REMARK  Name = ZINC67619937
REMARK  4 active torsions:
REMARK  status: ('A' for Active; 'I' for Inactive)
REMARK    1  A    between atoms: C_1  and  C_2
REMARK    2  A    between atoms: C_7  and  C_10
REMARK    3  A    between atoms: N_18  and  C_19
REMARK    4  A    between atoms: C_22  and  C_24
REMARK                            x       y       z     vdW  Elec       q    Type
REMARK                         _______ _______ _______ _____ _____    ______ ____
ROOT
ATOM      1  C   UNL     1      -0.022   1.522   0.001  0.00  0.00    +0.039 C 
ATOM      2  C   UNL     1      -0.000  -0.007  -0.002  0.00  0.00    +0.133 C 
ATOM      3  C   UNL     1      -1.438  -0.540   0.016  0.00  0.00    +0.140 C 
ATOM      4  N   UNL     1      -2.041  -0.205   1.315  0.00  0.00    -0.280 N 
ATOM      5  C   UNL     1      -1.294  -0.553   2.535  0.00  0.00    +0.145 C 
ATOM      6  C   UNL     1       0.137  -0.020   2.394  0.00  0.00    +0.166 C 
ATOM      7  O   UNL     1       0.691  -0.478   1.157  0.00  0.00    -0.366 OA
ATOM      8  C   UNL     1      -3.241   0.404   1.387  0.00  0.00    +0.303 C 
ATOM      9  O   UNL     1      -3.799   0.769   0.371  0.00  0.00    -0.253 OA
ATOM     10  N   UNL     1      -3.823   0.607   2.586  0.00  0.00    -0.296 N 
ATOM     11  H   UNL     1      -3.347   0.381   3.400  0.00  0.00    +0.151 HD
ENDROOT
BRANCH   6  12
ATOM     12  C   UNL     1       0.976  -0.524   3.540  0.00  0.00    -0.017 A 
ATOM     13  C   UNL     1       1.579  -1.765   3.462  0.00  0.00    +0.006 A 
ATOM     14  C   UNL     1       2.349  -2.227   4.513  0.00  0.00    +0.000 A 
ATOM     15  C   UNL     1       2.517  -1.447   5.641  0.00  0.00    +0.000 A 
ATOM     16  C   UNL     1       1.915  -0.205   5.719  0.00  0.00    +0.000 A 
ATOM     17  C   UNL     1       1.149   0.259   4.667  0.00  0.00    +0.006 A 
ENDBRANCH   6  12
BRANCH  10  18
ATOM     18  C   UNL     1      -5.174   1.168   2.658  0.00  0.00    +0.082 C 
ATOM     19  C   UNL     1      -5.432   2.258   3.701  0.00  0.00    +0.033 C 
ATOM     20  C   UNL     1      -6.004   0.853   3.905  0.00  0.00    +0.041 C 
BRANCH  20  21
ATOM     21  C   UNL     1      -5.369  -0.011   4.964  0.00  0.00    -0.042 A 
ATOM     22  C   UNL     1      -4.206   0.403   5.587  0.00  0.00    +0.004 A 
ATOM     23  C   UNL     1      -3.624  -0.389   6.559  0.00  0.00    +0.000 A 
ATOM     24  C   UNL     1      -4.203  -1.595   6.907  0.00  0.00    +0.000 A 
ATOM     25  C   UNL     1      -5.366  -2.008   6.284  0.00  0.00    +0.000 A 
ATOM     26  C   UNL     1      -5.951  -1.214   5.316  0.00  0.00    +0.004 A 
ENDBRANCH  20  21
ENDBRANCH  10  18
TORSDOF 3
