REMARK  Name = ZINC05576840
REMARK  10 active torsions:
REMARK  status: ('A' for Active; 'I' for Inactive)
REMARK    1  A    between atoms: C_1  and  N_52
REMARK    2  A    between atoms: C_2  and  N_52
REMARK    3  A    between atoms: C_3  and  C_4
REMARK    4  A    between atoms: C_3  and  N_52
REMARK    5  A    between atoms: C_4  and  N_5
REMARK    6  A    between atoms: C_6  and  C_24
REMARK    7  A    between atoms: C_9  and  C_10
REMARK    8  A    between atoms: C_9  and  O_19
REMARK    9  A    between atoms: C_13  and  O_17
REMARK   10  A    between atoms: O_17  and  C_18
REMARK                            x       y       z     vdW  Elec       q    Type
REMARK                         _______ _______ _______ _____ _____    ______ ____
ROOT
ATOM      1  N   UNL     1      -3.141   2.288   0.696  0.00  0.00    -0.285 N 
ATOM      2  C   UNL     1      -2.379   1.297  -0.070  0.00  0.00    +0.144 C 
ATOM      3  C   UNL     1      -2.971   1.276  -1.460  0.00  0.00    +0.071 C 
ATOM      4  C   UNL     1      -2.568   0.490  -2.522  0.00  0.00    +0.133 C 
ATOM      5  C   UNL     1      -4.013   2.215  -1.455  0.00  0.00    +0.249 C 
ATOM      6  O   UNL     1      -4.734   2.487  -2.398  0.00  0.00    -0.282 OA
ATOM      7  C   UNL     1      -4.085   2.821  -0.098  0.00  0.00    +0.288 C 
ATOM      8  O   UNL     1      -4.881   3.672   0.243  0.00  0.00    -0.266 OA
ENDROOT
BRANCH   4   9
ATOM      9  C   UNL     1      -3.346   0.484  -3.770  0.00  0.00    +0.019 A 
ATOM     10  C   UNL     1      -4.728   0.259  -3.735  0.00  0.00    +0.015 A 
ATOM     11  C   UNL     1      -5.453   0.260  -4.905  0.00  0.00    +0.048 A 
ATOM     12  C   UNL     1      -4.814   0.472  -6.122  0.00  0.00    +0.138 A 
ATOM     13  C   UNL     1      -3.440   0.691  -6.163  0.00  0.00    +0.083 A 
ATOM     14  C   UNL     1      -2.707   0.698  -4.997  0.00  0.00    +0.035 A 
ATOM     15 CL   UNL     1      -2.650   0.957  -7.686  0.00  0.00    -0.080 Cl
BRANCH  12  16
ATOM     16  O   UNL     1      -5.533   0.466  -7.273  0.00  0.00    -0.494 OA
ATOM     17  C   UNL     1      -6.938   0.236  -7.159  0.00  0.00    +0.277 C 
ENDBRANCH  12  16
ENDBRANCH   4   9
BRANCH   2  18
ATOM     18  C   UNL     1      -0.928   1.699  -0.134  0.00  0.00    -0.022 A 
ATOM     19  C   UNL     1       0.061   0.741  -0.012  0.00  0.00    +0.006 A 
ATOM     20  C   UNL     1       1.392   1.109  -0.076  0.00  0.00    +0.000 A 
ATOM     21  C   UNL     1       1.734   2.436  -0.256  0.00  0.00    +0.000 A 
ATOM     22  C   UNL     1       0.746   3.395  -0.372  0.00  0.00    +0.000 A 
ATOM     23  C   UNL     1      -0.585   3.027  -0.309  0.00  0.00    +0.006 A 
ENDBRANCH   2  18
BRANCH   4  24
ATOM     24  O   UNL     1      -1.460  -0.274  -2.414  0.00  0.00    -0.506 OA
ATOM     25  H   UNL     1      -1.315  -0.774  -3.268  0.00  0.00    +0.292 HD
ENDBRANCH   4  24
BRANCH   1  26
ATOM     26  C   UNL     1      -2.911   2.640   2.099  0.00  0.00    +0.090 C 
BRANCH  26  27
ATOM     27  C   UNL     1      -1.905   3.790   2.178  0.00  0.00    -0.060 C 
BRANCH  27  30
ATOM     28  C   UNL     1      -1.008   3.046   4.301  0.00  0.00    -0.097 C 
ATOM     29  C   UNL     1      -0.904   5.389   3.697  0.00  0.00    -0.097 C 
ATOM     30  N   UNL     1      -1.700   4.147   3.598  0.00  0.00    +0.377 N 
ATOM     31  H   UNL     1      -2.615   4.301   4.039  0.00  0.00    -0.083 HD
ENDBRANCH  27  30
ENDBRANCH  26  27
ENDBRANCH   1  26
TORSDOF 7
