REMARK  Name = ZINC66248147
REMARK  4 active torsions:
REMARK  status: ('A' for Active; 'I' for Inactive)
REMARK    1  A    between atoms: C_1  and  C_2
REMARK    2  A    between atoms: C_5  and  S_9
REMARK    3  A    between atoms: S_9  and  N_12
REMARK    4  A    between atoms: N_19  and  C_22
REMARK                            x       y       z     vdW  Elec       q    Type
REMARK                         _______ _______ _______ _____ _____    ______ ____
ROOT
ATOM      1  N   UNL     1       1.651  -5.000  -0.035  0.00  0.00    -0.103 NA
ATOM      2  C   UNL     1       1.958  -6.273  -0.044  0.00  0.00    +0.192 A 
ATOM      3  N   UNL     1       3.196  -6.872  -0.049  0.00  0.00    -0.336 N 
ATOM      4  C   UNL     1       3.288  -8.245  -0.059  0.00  0.00    +0.030 A 
ATOM      5  C   UNL     1       2.144  -8.943  -0.065  0.00  0.00    +0.026 A 
ATOM      6  S   UNL     1       0.881  -7.700  -0.047  0.00  0.00    -0.052 S 
ATOM      7  C   UNL     1       1.992 -10.430  -0.079  0.00  0.00    +0.128 C 
ATOM      8  N   UNL     1       3.293 -11.027  -0.434  0.00  0.00    -0.300 NA
ATOM      9  C   UNL     1       4.367 -10.435   0.376  0.00  0.00    +0.090 C 
ATOM     10  C   UNL     1       4.622  -8.991  -0.062  0.00  0.00    +0.069 C 
ATOM     11  C   UNL     1       3.261 -12.487  -0.282  0.00  0.00    +0.105 C 
ATOM     12  H   UNL     1       4.000  -6.329  -0.045  0.00  0.00    +0.168 HD
ENDROOT
BRANCH   1  13
ATOM     13  S   UNL     1       0.063  -4.531  -0.024  0.00  0.00    +0.101 S 
ATOM     14  O   UNL     1      -0.476  -4.952   1.221  0.00  0.00    -0.146 OA
ATOM     15  O   UNL     1      -0.489  -4.937  -1.270  0.00  0.00    -0.146 OA
BRANCH  13  20
ATOM     16  C   UNL     1      -0.018   1.503   0.010  0.00  0.00    +0.045 C 
ATOM     17  C   UNL     1       0.002  -0.004   0.002  0.00  0.00    -0.032 A 
ATOM     18  C   UNL     1       0.006  -0.689  -1.199  0.00  0.00    +0.007 A 
ATOM     19  C   UNL     1       0.025  -2.071  -1.207  0.00  0.00    +0.029 A 
ATOM     20  C   UNL     1       0.040  -2.769  -0.013  0.00  0.00    +0.114 A 
ATOM     21  C   UNL     1       0.036  -2.086   1.188  0.00  0.00    +0.049 A 
ATOM     22  C   UNL     1       0.023  -0.702   1.196  0.00  0.00    +0.046 A 
ATOM     23 CL   UNL     1       0.025   0.157   2.704  0.00  0.00    -0.083 Cl
ENDBRANCH  13  20
ENDBRANCH   1  13
TORSDOF 2
