REMARK  Name = ZINC12402794
REMARK  9 active torsions:
REMARK  status: ('A' for Active; 'I' for Inactive)
REMARK    1  A    between atoms: C_1  and  C_2
REMARK    2  A    between atoms: C_3  and  C_31
REMARK    3  A    between atoms: C_4  and  C_25
REMARK    4  A    between atoms: C_10  and  C_20
REMARK    5  A    between atoms: C_12  and  C_16
REMARK    6  A    between atoms: C_16  and  O_18
REMARK    7  A    between atoms: O_18  and  C_19
REMARK    8  A    between atoms: C_31  and  O_33
REMARK    9  A    between atoms: O_33  and  C_34
REMARK                            x       y       z     vdW  Elec       q    Type
REMARK                         _______ _______ _______ _____ _____    ______ ____
ROOT
ATOM      1  C   UNL     1      -1.109   5.184   1.643  0.00  0.00    +0.061 C 
ATOM      2  C   UNL     1      -0.179   4.292   0.862  0.00  0.00    +0.031 C 
ATOM      3  C   UNL     1       0.972   4.788   0.378  0.00  0.00    +0.154 C 
ATOM      4  C   UNL     1       1.920   3.932  -0.407  0.00  0.00    +0.075 C 
ATOM      5  C   UNL     1       1.629   2.467  -0.199  0.00  0.00    +0.026 C 
ATOM      6  C   UNL     1       0.446   2.065   0.313  0.00  0.00    +0.049 C 
ATOM      7  N   UNL     1      -0.512   2.983   0.652  0.00  0.00    -0.260 NA
ATOM      8  C   UNL     1       0.145   0.602   0.519  0.00  0.00    +0.065 C 
ATOM      9  C   UNL     1       0.893  -0.231  -0.522  0.00  0.00    +0.053 C 
ATOM     10  C   UNL     1       2.392   0.057  -0.392  0.00  0.00    +0.176 C 
ATOM     11  C   UNL     1       2.621   1.536  -0.550  0.00  0.00    +0.176 C 
ATOM     12  O   UNL     1       3.683   1.932  -0.989  0.00  0.00    -0.291 OA
ENDROOT
BRANCH   4  13
ATOM     13  C   UNL     1       1.772   4.263  -1.870  0.00  0.00    -0.021 A 
ATOM     14  C   UNL     1       2.845   4.771  -2.587  0.00  0.00    +0.007 A 
ATOM     15  C   UNL     1       2.664   5.057  -3.931  0.00  0.00    +0.020 A 
ATOM     16  C   UNL     1       1.427   4.837  -4.506  0.00  0.00    +0.111 A 
ATOM     17  N   UNL     1       0.427   4.356  -3.792  0.00  0.00    -0.263 NA
ATOM     18  C   UNL     1       0.564   4.069  -2.512  0.00  0.00    +0.115 A 
ENDBRANCH   4  13
BRANCH   9  19
ATOM     19  C   UNL     1       0.636  -1.696  -0.279  0.00  0.00    -0.006 A 
ATOM     20  C   UNL     1       0.197  -2.641  -1.146  0.00  0.00    +0.011 A 
ATOM     21  C   UNL     1       0.033  -3.938  -0.697  0.00  0.00    +0.008 A 
ATOM     22  C   UNL     1       0.316  -4.227   0.597  0.00  0.00    +0.045 A 
ATOM     23  S   UNL     1       0.839  -2.639   1.224  0.00  0.00    -0.101 S 
ENDBRANCH   9  19
BRANCH  10  24
ATOM     24  C   UNL     1       2.876  -0.386   0.964  0.00  0.00    +0.318 C 
ATOM     25  O   UNL     1       2.590   0.256   1.947  0.00  0.00    -0.250 OA
BRANCH  24  26
ATOM     26  O   UNL     1       3.625  -1.494   1.081  0.00  0.00    -0.467 OA
ATOM     27  C   UNL     1       4.056  -1.861   2.418  0.00  0.00    +0.280 C 
ENDBRANCH  24  26
ENDBRANCH  10  24
BRANCH   3  28
ATOM     28  C   UNL     1       1.299   6.144   0.616  0.00  0.00    +0.316 C 
ATOM     29  O   UNL     1       2.154   6.429   1.433  0.00  0.00    -0.250 OA
BRANCH  28  30
ATOM     30  O   UNL     1       0.661   7.121  -0.062  0.00  0.00    -0.467 OA
ATOM     31  C   UNL     1       1.041   8.467   0.230  0.00  0.00    +0.280 C 
ENDBRANCH  28  30
ENDBRANCH   3  28
TORSDOF 6
