REMARK  Name = ZINC00274995
REMARK  3 active torsions:
REMARK  status: ('A' for Active; 'I' for Inactive)
REMARK    1  A    between atoms: C_1  and  C_2
REMARK    2  A    between atoms: C_6  and  C_13
REMARK    3  A    between atoms: C_18  and  C_20
REMARK                            x       y       z     vdW  Elec       q    Type
REMARK                         _______ _______ _______ _____ _____    ______ ____
ROOT
ATOM      1  C   UNL     1       1.747  -1.741  -0.024  0.00  0.00    +0.045 C 
ATOM      2  C   UNL     1       1.269  -0.714   0.771  0.00  0.00    +0.152 C 
ATOM      3  C   UNL     1       2.043   0.139   1.684  0.00  0.00    +0.364 C 
ATOM      4  O   UNL     1       3.240   0.092   1.902  0.00  0.00    -0.243 OA
ATOM      5  O   UNL     1       1.143   0.985   2.231  0.00  0.00    -0.402 OA
ATOM      6  C   UNL     1      -0.073   0.706   1.724  0.00  0.00    +0.235 C 
ATOM      7  N   UNL     1      -0.021  -0.281   0.872  0.00  0.00    -0.205 NA
ENDROOT
BRANCH   1  13
ATOM      8  C   UNL     1       6.549   0.553  -0.218  0.00  0.00    +0.113 C 
ATOM      9  C   UNL     1       6.518  -0.951  -0.306  0.00  0.00    +0.229 C 
ATOM     10  O   UNL     1       7.553  -1.573  -0.414  0.00  0.00    -0.273 OA
ATOM     11  N   UNL     1       5.340  -1.605  -0.264  0.00  0.00    -0.287 N 
ATOM     12  C   UNL     1       4.121  -1.006  -0.149  0.00  0.00    +0.103 A 
ATOM     13  C   UNL     1       3.141  -1.961  -0.133  0.00  0.00    +0.003 A 
ATOM     14  C   UNL     1       3.823  -3.266  -0.258  0.00  0.00    +0.007 A 
ATOM     15  C   UNL     1       5.194  -2.981  -0.336  0.00  0.00    +0.057 A 
ATOM     16  C   UNL     1       6.102  -4.026  -0.461  0.00  0.00    +0.027 A 
ATOM     17  C   UNL     1       5.650  -5.328  -0.507  0.00  0.00    +0.002 A 
ATOM     18  C   UNL     1       4.295  -5.608  -0.430  0.00  0.00    +0.001 A 
ATOM     19  C   UNL     1       3.380  -4.583  -0.306  0.00  0.00    +0.010 A 
ENDBRANCH   1  13
BRANCH   6  20
ATOM     20  C   UNL     1      -1.309   1.429   2.083  0.00  0.00    +0.072 A 
ATOM     21  C   UNL     1      -1.266   2.475   3.008  0.00  0.00    +0.016 A 
ATOM     22  C   UNL     1      -2.424   3.147   3.339  0.00  0.00    +0.001 A 
ATOM     23  C   UNL     1      -3.628   2.789   2.757  0.00  0.00    +0.003 A 
ATOM     24  C   UNL     1      -3.680   1.754   1.841  0.00  0.00    +0.039 A 
ATOM     25  C   UNL     1      -2.527   1.075   1.495  0.00  0.00    +0.136 A 
ATOM     26  F   UNL     1      -2.578   0.068   0.595  0.00  0.00    -0.205 F 
ENDBRANCH   6  20
TORSDOF 2
