REMARK  Name = ZINC39563913
REMARK  10 active torsions:
REMARK  status: ('A' for Active; 'I' for Inactive)
REMARK    1  A    between atoms: C_1  and  C_2
REMARK    2  A    between atoms: C_2  and  C_3
REMARK    3  A    between atoms: C_2  and  N_4
REMARK    4  A    between atoms: N_4  and  C_5
REMARK    5  A    between atoms: N_4  and  C_6
REMARK    6  A    between atoms: C_6  and  C_7
REMARK    7  A    between atoms: C_13  and  C_15
REMARK    8  A    between atoms: N_18  and  S_21
REMARK    9  A    between atoms: S_21  and  C_24
REMARK   10  A    between atoms: C_25  and  C_26
REMARK                            x       y       z     vdW  Elec       q    Type
REMARK                         _______ _______ _______ _____ _____    ______ ____
ROOT
ATOM      1  C   UNL     1       6.215   1.300  -5.709  0.00  0.00    +0.078 C 
ATOM      2  C   UNL     1       6.423   1.994  -4.362  0.00  0.00    +0.030 C 
ATOM      3  C   UNL     1       7.908   2.328  -4.188  0.00  0.00    +0.110 C 
ATOM      4  N   UNL     1       8.355   3.113  -5.346  0.00  0.00    -0.177 NA
ATOM      5  C   UNL     1       8.121   2.578  -6.695  0.00  0.00    +0.110 C 
ATOM      6  C   UNL     1       6.634   2.241  -6.841  0.00  0.00    +0.030 C 
ENDROOT
BRANCH   1  13
ATOM      7  C   UNL     1       3.498  -2.895  -5.105  0.00  0.00    -0.025 C 
ATOM      8  C   UNL     1       4.979  -2.517  -5.182  0.00  0.00    +0.021 C 
ATOM      9  C   UNL     1       5.175  -1.113  -4.600  0.00  0.00    +0.108 C 
ATOM     10  N   UNL     1       4.278  -0.183  -5.299  0.00  0.00    -0.301 N 
ATOM     11  C   UNL     1       2.844  -0.498  -5.363  0.00  0.00    +0.108 C 
ATOM     12  C   UNL     1       2.675  -1.908  -5.936  0.00  0.00    +0.021 C 
ATOM     13  C   UNL     1       4.761   0.939  -5.869  0.00  0.00    +0.219 C 
ATOM     14  O   UNL     1       4.024   1.658  -6.511  0.00  0.00    -0.275 OA
BRANCH   7  15
ATOM     15  C   UNL     1       3.304  -4.310  -5.653  0.00  0.00    -0.075 C 
BRANCH  15  16
ATOM     16  N   UNL     1       3.997  -5.271  -4.785  0.00  0.00    +0.380 N 
ATOM     17  C   UNL     1       3.365  -5.277  -3.459  0.00  0.00    -0.096 C 
ATOM     18  H   UNL     1       4.966  -5.004  -4.694  0.00  0.00    -0.082 HD
BRANCH  16  20
ATOM     19  C   UNL     1       4.572  -6.606  -6.756  0.00  0.00    -0.014 C 
ATOM     20  C   UNL     1       3.913  -6.613  -5.375  0.00  0.00    -0.075 C 
ATOM     21  C   UNL     1       4.635  -7.614  -4.471  0.00  0.00    -0.014 C 
ENDBRANCH  16  20
ENDBRANCH  15  16
ENDBRANCH   7  15
ENDBRANCH   1  13
BRANCH   4  22
ATOM     22  S   UNL     1       9.108   4.573  -5.137  0.00  0.00    +0.054 S 
ATOM     23  O   UNL     1       8.909   5.308  -6.337  0.00  0.00    -0.153 OA
ATOM     24  O   UNL     1       8.699   5.062  -3.867  0.00  0.00    -0.153 OA
BRANCH  22  25
ATOM     25  C   UNL     1      10.837   4.256  -5.021  0.00  0.00    +0.153 C 
ATOM     26  C   UNL     1      11.659   4.714  -5.955  0.00  0.00    +0.028 C 
BRANCH  26  27
ATOM     27  C   UNL     1      13.110   4.448  -5.857  0.00  0.00    -0.024 A 
ATOM     28  C   UNL     1      13.617   3.710  -4.787  0.00  0.00    +0.008 A 
ATOM     29  C   UNL     1      14.972   3.465  -4.702  0.00  0.00    +0.001 A 
ATOM     30  C   UNL     1      15.828   3.950  -5.675  0.00  0.00    +0.000 A 
ATOM     31  C   UNL     1      15.332   4.682  -6.738  0.00  0.00    +0.001 A 
ATOM     32  C   UNL     1      13.978   4.928  -6.838  0.00  0.00    +0.008 A 
ENDBRANCH  26  27
ENDBRANCH  22  25
ENDBRANCH   4  22
TORSDOF 7
