REMARK  Name = ZINC39933415
REMARK  6 active torsions:
REMARK  status: ('A' for Active; 'I' for Inactive)
REMARK    1  A    between atoms: C_5  and  C_7
REMARK    2  A    between atoms: C_7  and  N_8
REMARK    3  A    between atoms: C_9  and  C_11
REMARK    4  A    between atoms: C_16  and  N_17
REMARK    5  A    between atoms: N_17  and  S_18
REMARK    6  A    between atoms: S_18  and  C_21
REMARK                            x       y       z     vdW  Elec       q    Type
REMARK                         _______ _______ _______ _____ _____    ______ ____
ROOT
ATOM      1  C   UNL     1       1.513  -4.463   2.795  0.00  0.00    +0.059 A 
ATOM      2  C   UNL     1       1.509  -3.494   3.801  0.00  0.00    +0.015 A 
ATOM      3  C   UNL     1       1.692  -3.866   5.115  0.00  0.00    +0.001 A 
ATOM      4  C   UNL     1       1.880  -5.199   5.445  0.00  0.00    +0.002 A 
ATOM      5  C   UNL     1       1.887  -6.168   4.463  0.00  0.00    +0.025 A 
ATOM      6  C   UNL     1       1.698  -5.812   3.133  0.00  0.00    +0.060 A 
ENDROOT
BRANCH   1   8
ATOM      7  N   UNL     1       1.142  -2.773   1.067  0.00  0.00    -0.307 N 
ATOM      8  C   UNL     1       1.319  -4.071   1.387  0.00  0.00    +0.246 C 
ATOM      9  O   UNL     1       1.318  -4.918   0.514  0.00  0.00    -0.270 OA
ATOM     10  H   UNL     1       1.143  -2.098   1.763  0.00  0.00    +0.149 HD
BRANCH   7  11
ATOM     11  C   UNL     1       0.949  -2.384  -0.332  0.00  0.00    +0.142 C 
BRANCH  11  16
ATOM     12  C   UNL     1      -0.649   1.025  -0.618  0.00  0.00    +0.000 A 
ATOM     13  C   UNL     1       0.457   1.854  -0.577  0.00  0.00    +0.003 A 
ATOM     14  C   UNL     1       1.723   1.313  -0.456  0.00  0.00    +0.038 A 
ATOM     15  C   UNL     1       1.883  -0.060  -0.376  0.00  0.00    +0.128 A 
ATOM     16  C   UNL     1       0.775  -0.889  -0.418  0.00  0.00    +0.005 A 
ATOM     17  C   UNL     1      -0.490  -0.346  -0.539  0.00  0.00    +0.008 A 
ATOM     18  F   UNL     1       3.120  -0.591  -0.259  0.00  0.00    -0.205 F 
ENDBRANCH  11  16
ENDBRANCH   7  11
ENDBRANCH   1   8
BRANCH   6  19
ATOM     19  N   UNL     1       1.698  -6.786   2.143  0.00  0.00    -0.216 N 
ATOM     20  H   UNL     1       2.075  -6.591   1.271  0.00  0.00    +0.174 HD
BRANCH  19  21
ATOM     21  S   UNL     1       1.054  -8.281   2.451  0.00  0.00    +0.072 S 
ATOM     22  O   UNL     1       1.082  -8.996   1.224  0.00  0.00    -0.150 OA
ATOM     23  O   UNL     1       1.690  -8.762   3.628  0.00  0.00    -0.150 OA
BRANCH  21  24
ATOM     24  C   UNL     1      -0.643  -8.043   2.858  0.00  0.00    +0.110 A 
ATOM     25  C   UNL     1      -1.013  -7.822   4.251  0.00  0.00    +0.031 A 
ATOM     26  C   UNL     1      -2.295  -7.633   4.630  0.00  0.00    +0.027 A 
ATOM     27  C   UNL     1      -3.354  -7.648   3.623  0.00  0.00    +0.056 A 
ATOM     28  N   UNL     1      -4.655  -7.503   3.649  0.00  0.00    -0.268 N 
ATOM     29  C   UNL     1      -5.131  -7.618   2.364  0.00  0.00    +0.308 C 
ATOM     30  O   UNL     1      -6.297  -7.533   2.042  0.00  0.00    -0.252 OA
ATOM     31  N   UNL     1      -4.086  -7.844   1.500  0.00  0.00    -0.267 N 
ATOM     32  C   UNL     1      -2.975  -7.875   2.192  0.00  0.00    +0.058 A 
ATOM     33  C   UNL     1      -1.563  -8.066   1.869  0.00  0.00    +0.054 A 
ATOM     34  H   UNL     1      -4.159  -7.961   0.539  0.00  0.00    +0.156 HD
ATOM     35  H   UNL     1      -5.193  -7.342   4.440  0.00  0.00    +0.156 HD
ENDBRANCH  21  24
ENDBRANCH  19  21
ENDBRANCH   6  19
TORSDOF 6
