REMARK  Name = ZINC14228941
REMARK  6 active torsions:
REMARK  status: ('A' for Active; 'I' for Inactive)
REMARK    1  A    between atoms: C_1  and  C_2
REMARK    2  A    between atoms: C_7  and  C_8
REMARK    3  A    between atoms: C_7  and  N_64
REMARK    4  A    between atoms: N_20  and  C_21
REMARK    5  A    between atoms: C_26  and  C_27
REMARK    6  A    between atoms: C_26  and  N_66
REMARK                            x       y       z     vdW  Elec       q    Type
REMARK                         _______ _______ _______ _____ _____    ______ ____
ROOT
ATOM      1  C   UNL     1       0.019   6.621  -2.333  0.00  0.00    +0.116 A 
ATOM      2  N   UNL     1       0.426   6.481  -3.582  0.00  0.00    -0.219 NA
ATOM      3  C   UNL     1      -0.401   6.597  -4.609  0.00  0.00    +0.131 A 
ATOM      4  C   UNL     1      -1.770   6.892  -4.362  0.00  0.00    +0.051 A 
ATOM      5  C   UNL     1      -2.858   7.069  -5.337  0.00  0.00    -0.025 A 
ATOM      6  C   UNL     1      -4.077   7.341  -4.843  0.00  0.00    -0.004 A 
ATOM      7  S   UNL     1      -3.862   7.385  -3.078  0.00  0.00    -0.073 S 
ATOM      8  C   UNL     1      -2.127   7.031  -3.009  0.00  0.00    +0.114 A 
ATOM      9  N   UNL     1      -1.238   6.895  -2.043  0.00  0.00    -0.227 NA
ATOM     10  C   UNL     1      -5.108   7.497  -5.928  0.00  0.00    +0.043 C 
ATOM     11  C   UNL     1      -4.459   6.858  -7.175  0.00  0.00    +0.010 C 
ATOM     12  C   UNL     1      -2.958   7.021  -6.864  0.00  0.00    +0.037 C 
ATOM     13  N   UNL     1       0.060   6.439  -5.904  0.00  0.00    -0.326 N 
ATOM     14  H   UNL     1      -0.551   6.529  -6.651  0.00  0.00    +0.148 HD
ENDROOT
BRANCH  13  15
ATOM     15  C   UNL     1       1.473   6.135  -6.146  0.00  0.00    +0.068 C 
ATOM     16  C   UNL     1       2.278   7.437  -6.178  0.00  0.00    +0.003 C 
ATOM     17  C   UNL     1       3.741   7.119  -6.493  0.00  0.00    -0.076 C 
ATOM     18  C   UNL     1       3.102   5.159  -7.767  0.00  0.00    -0.076 C 
ATOM     19  C   UNL     1       1.619   5.419  -7.491  0.00  0.00    +0.003 C 
ATOM     20  N   UNL     1       3.816   6.452  -7.811  0.00  0.00    +0.385 N 
ATOM     21  H   UNL     1       3.371   7.054  -8.514  0.00  0.00    -0.081 HD
BRANCH  20  22
ATOM     22  C   UNL     1       5.228   6.237  -8.188  0.00  0.00    +0.018 C 
BRANCH  22  23
ATOM     23  C   UNL     1       5.282   5.776  -9.622  0.00  0.00    +0.194 C 
ATOM     24  O   UNL     1       4.267   5.736 -10.285  0.00  0.00    -0.278 OA
ATOM     25  N   UNL     1       6.458   5.408 -10.168  0.00  0.00    -0.331 N 
ATOM     26  H   UNL     1       7.270   5.440  -9.638  0.00  0.00    +0.145 HD
ATOM     27  H   UNL     1       6.493   5.112 -11.091  0.00  0.00    +0.145 HD
ENDBRANCH  22  23
ENDBRANCH  20  22
ENDBRANCH  13  15
BRANCH   1  28
ATOM     28  C   UNL     1       1.016   6.469  -1.213  0.00  0.00    -0.001 C 
BRANCH  28  35
ATOM     29  C   UNL     1       0.733   1.314   1.240  0.00  0.00    +0.007 C 
ATOM     30  C   UNL     1       0.594   2.813   0.963  0.00  0.00    -0.018 C 
ATOM     31  C   UNL     1      -0.211   3.022  -0.323  0.00  0.00    -0.016 C 
ATOM     32  C   UNL     1      -0.294   4.520  -0.628  0.00  0.00    -0.078 C 
ATOM     33  C   UNL     1       1.837   4.917   0.454  0.00  0.00    -0.078 C 
ATOM     34  C   UNL     1       1.984   3.432   0.792  0.00  0.00    -0.016 C 
ATOM     35  N   UNL     1       1.074   5.050  -0.805  0.00  0.00    +0.384 N 
ATOM     36  H   UNL     1       1.547   4.511  -1.540  0.00  0.00    -0.081 HD
ENDBRANCH  28  35
ENDBRANCH   1  28
TORSDOF 5
