REMARK  Name = ZINC20418207
REMARK  8 active torsions:
REMARK  status: ('A' for Active; 'I' for Inactive)
REMARK    1  A    between atoms: C_1  and  C_2
REMARK    2  A    between atoms: C_12  and  C_14
REMARK    3  A    between atoms: C_12  and  C_15
REMARK    4  A    between atoms: C_23  and  C_24
REMARK    5  A    between atoms: N_26  and  C_27
REMARK    6  A    between atoms: C_27  and  C_28
REMARK    7  A    between atoms: C_28  and  C_29
REMARK    8  A    between atoms: C_29  and  N_30
REMARK                            x       y       z     vdW  Elec       q    Type
REMARK                         _______ _______ _______ _____ _____    ______ ____
ROOT
ATOM      1  C   UNL     1      -4.023   2.892   0.050  0.00  0.00    +0.048 C 
ATOM      2  C   UNL     1      -3.693   1.422   0.033  0.00  0.00    +0.008 A 
ATOM      3  C   UNL     1      -4.530   0.376  -0.425  0.00  0.00    +0.038 A 
ATOM      4  C   UNL     1      -3.810  -0.816  -0.244  0.00  0.00    +0.137 A 
ATOM      5  C   UNL     1      -4.390  -2.029  -0.607  0.00  0.00    +0.050 A 
ATOM      6  C   UNL     1      -5.658  -2.071  -1.141  0.00  0.00    +0.050 A 
ATOM      7  C   UNL     1      -6.392  -0.902  -1.332  0.00  0.00    +0.133 A 
ATOM      8  C   UNL     1      -5.831   0.329  -0.971  0.00  0.00    +0.070 A 
ATOM      9  C   UNL     1      -6.613   1.556  -1.166  0.00  0.00    +0.171 C 
ATOM     10  O   UNL     1      -6.270   2.614  -0.679  0.00  0.00    -0.292 OA
ATOM     11  C   UNL     1      -7.871   1.435  -2.006  0.00  0.00    +0.132 C 
ATOM     12  C   UNL     1      -8.543   0.107  -1.624  0.00  0.00    +0.140 C 
ATOM     13  O   UNL     1      -7.635  -0.967  -1.866  0.00  0.00    -0.480 OA
ATOM     14  C   UNL     1      -8.921   0.133  -0.142  0.00  0.00    +0.061 C 
ATOM     15  O   UNL     1      -2.614  -0.490   0.286  0.00  0.00    -0.450 OA
ATOM     16  C   UNL     1      -2.535   0.847   0.451  0.00  0.00    +0.193 A 
ENDROOT
BRANCH  12  17
ATOM     17  C   UNL     1      -9.784  -0.087  -2.457  0.00  0.00    -0.004 A 
ATOM     18  C   UNL     1     -10.504   1.010  -2.890  0.00  0.00    +0.010 A 
ATOM     19  C   UNL     1     -11.640   0.834  -3.658  0.00  0.00    +0.039 A 
ATOM     20  C   UNL     1     -12.062  -0.444  -3.983  0.00  0.00    +0.123 A 
ATOM     21  C   UNL     1     -11.344  -1.543  -3.544  0.00  0.00    +0.039 A 
ATOM     22  C   UNL     1     -10.205  -1.363  -2.781  0.00  0.00    +0.010 A 
ATOM     23  F   UNL     1     -13.175  -0.618  -4.729  0.00  0.00    -0.205 F 
ENDBRANCH  12  17
BRANCH  16  24
ATOM     24  C   UNL     1      -1.379   1.570   1.003  0.00  0.00    +0.280 C 
ATOM     25  O   UNL     1      -1.412   2.781   1.109  0.00  0.00    -0.267 OA
ATOM     26  N   UNL     1      -0.282   0.889   1.392  0.00  0.00    -0.309 N 
ATOM     27  H   UNL     1      -0.253  -0.206   1.300  0.00  0.00    +0.149 HD
BRANCH  26  28
ATOM     28  C   UNL     1       0.872   1.609   1.936  0.00  0.00    +0.103 C 
BRANCH  28  29
ATOM     29  C   UNL     1       1.976   0.611   2.289  0.00  0.00    +0.000 C 
BRANCH  29  30
ATOM     30  C   UNL     1       3.181   1.362   2.858  0.00  0.00    -0.077 C 
BRANCH  30  31
ATOM     31  N   UNL     1       4.241   0.403   3.197  0.00  0.00    +0.380 N 
ATOM     32  C   UNL     1       3.822  -0.477   4.295  0.00  0.00    -0.079 C 
ATOM     33  C   UNL     1       4.887  -1.552   4.524  0.00  0.00    -0.019 C 
ATOM     34  C   UNL     1       6.220  -0.879   4.864  0.00  0.00    -0.004 C 
ATOM     35  C   UNL     1       6.609   0.069   3.727  0.00  0.00    -0.019 C 
ATOM     36  C   UNL     1       5.494   1.097   3.521  0.00  0.00    -0.079 C 
ATOM     37  H   UNL     1       4.425  -0.226   2.314  0.00  0.00    -0.082 HD
ENDBRANCH  30  31
ENDBRANCH  29  30
ENDBRANCH  28  29
ENDBRANCH  26  28
ENDBRANCH  16  24
TORSDOF 6
