REMARK  Name = ZINC09534627
REMARK  5 active torsions:
REMARK  status: ('A' for Active; 'I' for Inactive)
REMARK    1  A    between atoms: C_1  and  C_2
REMARK    2  A    between atoms: C_6  and  C_13
REMARK    3  A    between atoms: C_13  and  O_14
REMARK    4  A    between atoms: O_14  and  C_15
REMARK    5  A    between atoms: C_15  and  C_17
REMARK                            x       y       z     vdW  Elec       q    Type
REMARK                         _______ _______ _______ _____ _____    ______ ____
ROOT
ATOM      1  C   UNL     1       6.802   3.934  -0.041  0.00  0.00    +0.269 C 
ENDROOT
BRANCH   1   7
ATOM      2  C   UNL     1      12.860   6.674  -0.086  0.00  0.00    +0.044 C 
ATOM      3  C   UNL     1      11.392   6.332  -0.073  0.00  0.00    -0.047 A 
ATOM      4  C   UNL     1      10.997   5.002  -0.076  0.00  0.00    +0.004 A 
ATOM      5  C   UNL     1       9.671   4.673  -0.064  0.00  0.00    +0.012 A 
ATOM      6  C   UNL     1       8.706   5.684  -0.043  0.00  0.00    +0.024 A 
ATOM      7  C   UNL     1       7.275   5.364  -0.037  0.00  0.00    +0.007 A 
ATOM      8  C   UNL     1       6.388   6.392  -0.023  0.00  0.00    +0.099 A 
ATOM      9  C   UNL     1       6.858   7.723  -0.020  0.00  0.00    +0.338 A 
ATOM     10  O   UNL     1       6.052   8.636  -0.007  0.00  0.00    -0.245 OA
ATOM     11  O   UNL     1       8.169   8.009  -0.032  0.00  0.00    -0.422 OA
ATOM     12  C   UNL     1       9.102   7.033  -0.046  0.00  0.00    +0.140 A 
ATOM     13  C   UNL     1      10.456   7.345  -0.058  0.00  0.00    +0.050 A 
ENDBRANCH   1   7
BRANCH   1  14
ATOM     14  O   UNL     1       5.350   3.904  -0.027  0.00  0.00    -0.454 OA
BRANCH  14  15
ATOM     15  C   UNL     1       4.762   2.690  -0.028  0.00  0.00    +0.375 C 
ATOM     16  O   UNL     1       5.445   1.684  -0.040  0.00  0.00    -0.241 OA
BRANCH  15  17
ATOM     17  C   UNL     1       3.298   2.583  -0.015  0.00  0.00    +0.213 A 
ATOM     18  C   UNL     1       2.599   1.418  -0.015  0.00  0.00    +0.065 A 
ATOM     19  C   UNL     1       1.186   1.794   0.000  0.00  0.00    +0.021 A 
ATOM     20  C   UNL     1      -0.013   1.076   0.008  0.00  0.00    +0.011 A 
ATOM     21  C   UNL     1      -1.203   1.746   0.017  0.00  0.00    +0.001 A 
ATOM     22  C   UNL     1      -1.229   3.134   0.031  0.00  0.00    +0.004 A 
ATOM     23  C   UNL     1      -0.058   3.861   0.023  0.00  0.00    +0.047 A 
ATOM     24  C   UNL     1       1.165   3.201   0.008  0.00  0.00    +0.136 A 
ATOM     25  O   UNL     1       2.443   3.627  -0.001  0.00  0.00    -0.448 OA
ENDBRANCH  15  17
ENDBRANCH  14  15
ENDBRANCH   1  14
TORSDOF 4
