REMARK  Name = ZINC36026905
REMARK  11 active torsions:
REMARK  status: ('A' for Active; 'I' for Inactive)
REMARK    1  A    between atoms: C_1  and  C_2
REMARK    2  A    between atoms: C_2  and  C_3
REMARK    3  A    between atoms: C_3  and  C_5
REMARK    4  A    between atoms: C_3  and  C_6
REMARK    5  A    between atoms: C_6  and  N_7
REMARK    6  A    between atoms: C_10  and  C_30
REMARK    7  A    between atoms: N_16  and  C_19
REMARK    8  A    between atoms: C_19  and  N_21
REMARK    9  A    between atoms: N_21  and  C_22
REMARK   10  A    between atoms: C_25  and  O_28
REMARK   11  A    between atoms: O_28  and  C_29
REMARK                            x       y       z     vdW  Elec       q    Type
REMARK                         _______ _______ _______ _____ _____    ______ ____
ROOT
ATOM      1  N   UNL     1       1.038  -2.434  -2.321  0.00  0.00    -0.313 N 
ATOM      2  C   UNL     1       0.488  -2.582  -3.544  0.00  0.00    +0.200 C 
ATOM      3  O   UNL     1      -0.627  -2.231  -3.866  0.00  0.00    -0.277 OA
ATOM      4  C   UNL     1       1.496  -3.260  -4.446  0.00  0.00    +0.016 C 
ATOM      5  N   UNL     1       2.794  -3.108  -3.743  0.00  0.00    +0.401 N 
ATOM      6  C   UNL     1       2.397  -2.983  -2.327  0.00  0.00    +0.006 C 
ATOM      7  C   UNL     1       2.414  -4.360  -1.667  0.00  0.00    +0.025 C 
ATOM      8  C   UNL     1       1.966  -4.230  -0.207  0.00  0.00    +0.107 C 
ATOM      9  N   UNL     1       2.805  -3.223   0.457  0.00  0.00    -0.312 N 
ATOM     10  C   UNL     1       2.913  -1.886  -0.144  0.00  0.00    +0.107 C 
ATOM     11  C   UNL     1       3.353  -2.035  -1.604  0.00  0.00    +0.025 C 
ATOM     12  C   UNL     1       1.542  -2.568  -5.809  0.00  0.00    -0.004 C 
ATOM     13  H   UNL     1       3.372  -3.924  -3.883  0.00  0.00    -0.082 HD
ATOM     14  H   UNL     1       3.270  -2.274  -4.051  0.00  0.00    -0.082 HD
ENDROOT
BRANCH   9  15
ATOM     15  C   UNL     1       3.462  -3.519   1.595  0.00  0.00    +0.137 C 
ATOM     16  S   UNL     1       3.226  -5.038   2.349  0.00  0.00    -0.018 S 
BRANCH  15  17
ATOM     17  N   UNL     1       4.306  -2.620   2.139  0.00  0.00    -0.297 N 
ATOM     18  H   UNL     1       5.263  -2.711   2.009  0.00  0.00    +0.154 HD
BRANCH  17  19
ATOM     19  C   UNL     1       3.801  -1.553   2.894  0.00  0.00    +0.033 A 
ATOM     20  C   UNL     1       2.443  -1.484   3.177  0.00  0.00    +0.027 A 
ATOM     21  C   UNL     1       1.946  -0.432   3.922  0.00  0.00    +0.047 A 
ATOM     22  C   UNL     1       2.803   0.555   4.387  0.00  0.00    +0.120 A 
ATOM     23  C   UNL     1       4.159   0.486   4.104  0.00  0.00    +0.047 A 
ATOM     24  C   UNL     1       4.659  -0.568   3.365  0.00  0.00    +0.027 A 
BRANCH  22  25
ATOM     25  O   UNL     1       2.313   1.590   5.119  0.00  0.00    -0.495 OA
ATOM     26  C   UNL     1       3.251   2.571   5.566  0.00  0.00    +0.277 C 
ENDBRANCH  22  25
ENDBRANCH  17  19
ENDBRANCH  15  17
ENDBRANCH   9  15
BRANCH   1  27
ATOM     27  C   UNL     1       0.381  -1.815  -1.167  0.00  0.00    +0.109 C 
BRANCH  27  28
ATOM     28  C   UNL     1       0.347  -0.297  -1.353  0.00  0.00    +0.003 C 
ATOM     29  C   UNL     1       1.755   0.209  -1.672  0.00  0.00    +0.009 C 
BRANCH  28  31
ATOM     30  C   UNL     1      -0.306   1.869  -0.293  0.00  0.00    +0.004 C 
ATOM     31  C   UNL     1      -0.153   0.363  -0.067  0.00  0.00    +0.001 C 
ENDBRANCH  28  31
ENDBRANCH  27  28
ENDBRANCH   1  27
TORSDOF 7
