REMARK  Name = ZINC59422920
REMARK  2 active torsions:
REMARK  status: ('A' for Active; 'I' for Inactive)
REMARK    1  A    between atoms: C_9  and  N_12
REMARK    2  A    between atoms: C_13  and  C_15
REMARK                            x       y       z     vdW  Elec       q    Type
REMARK                         _______ _______ _______ _____ _____    ______ ____
ROOT
ATOM      1  N   UNL     1      -2.319  -2.865   0.007  0.00  0.00    -0.282 N 
ATOM      2  C   UNL     1      -2.273  -4.208  -0.102  0.00  0.00    +0.248 C 
ATOM      3  O   UNL     1      -1.199  -4.781  -0.116  0.00  0.00    -0.270 OA
ATOM      4  H   UNL     1      -3.174  -2.415   0.096  0.00  0.00    +0.155 HD
ENDROOT
BRANCH   1  13
ATOM      5  C   UNL     1       2.274  -2.218  -1.575  0.00  0.00    +0.018 A 
ATOM      6  C   UNL     1       3.392  -1.449  -1.540  0.00  0.00    +0.092 A 
ATOM      7  C   UNL     1       3.415  -0.280  -0.750  0.00  0.00    +0.337 A 
ATOM      8  O   UNL     1       4.424   0.401  -0.727  0.00  0.00    -0.245 OA
ATOM      9  O   UNL     1       2.353   0.100  -0.022  0.00  0.00    -0.422 OA
ATOM     10  C   UNL     1       1.210  -0.620  -0.012  0.00  0.00    +0.139 A 
ATOM     11  C   UNL     1       1.119  -1.797  -0.777  0.00  0.00    +0.019 A 
ATOM     12  C   UNL     1      -0.061  -2.546  -0.769  0.00  0.00    +0.035 A 
ATOM     13  C   UNL     1      -1.134  -2.121  -0.006  0.00  0.00    +0.034 A 
ATOM     14  C   UNL     1      -1.038  -0.955   0.750  0.00  0.00    +0.027 A 
ATOM     15  C   UNL     1       0.122  -0.210   0.748  0.00  0.00    +0.049 A 
ENDBRANCH   1  13
BRANCH   2  16
ATOM     16  C   UNL     1      -3.513  -4.976  -0.205  0.00  0.00    +0.052 C 
ATOM     17  C   UNL     1      -3.470  -6.327  -0.310  0.00  0.00    +0.023 C 
ATOM     18  C   UNL     1      -4.747  -7.048  -0.432  0.00  0.00    +0.019 A 
ATOM     19  C   UNL     1      -4.831  -8.422  -0.213  0.00  0.00    +0.031 A 
ATOM     20  C   UNL     1      -6.050  -9.058  -0.337  0.00  0.00    +0.042 A 
ATOM     21  C   UNL     1      -7.184  -8.336  -0.678  0.00  0.00    +0.023 A 
ATOM     22  C   UNL     1      -7.112  -6.973  -0.898  0.00  0.00    +0.048 A 
ATOM     23  C   UNL     1      -5.898  -6.319  -0.777  0.00  0.00    +0.128 A 
ATOM     24  O   UNL     1      -5.794  -4.983  -0.986  0.00  0.00    -0.487 OA
ATOM     25  C   UNL     1      -4.844  -4.270  -0.189  0.00  0.00    +0.269 C 
ATOM     26 CL   UNL     1      -6.164 -10.769  -0.067  0.00  0.00    -0.084 Cl
ENDBRANCH   2  16
TORSDOF 2
