REMARK  Name = ZINC39030321
REMARK  5 active torsions:
REMARK  status: ('A' for Active; 'I' for Inactive)
REMARK    1  A    between atoms: C_1  and  C_2
REMARK    2  A    between atoms: C_2  and  C_4
REMARK    3  A    between atoms: C_2  and  C_10
REMARK    4  A    between atoms: N_15  and  C_16
REMARK    5  A    between atoms: C_16  and  C_18
REMARK                            x       y       z     vdW  Elec       q    Type
REMARK                         _______ _______ _______ _____ _____    ______ ____
ROOT
ATOM      1  C   UNL     1      -1.433  -0.534   0.013  0.00  0.00    +0.200 C 
ATOM      2  N   UNL     1      -1.465  -2.015  -0.013  0.00  0.00    -0.170 NA
ATOM      3  N   UNL     1      -1.981  -2.564  -0.960  0.00  0.00    -0.129 NA
ATOM      4  C   UNL     1      -2.550  -1.908  -2.030  0.00  0.00    +0.204 C 
ATOM      5  N   UNL     1      -3.134  -2.413  -3.102  0.00  0.00    -0.149 NA
ATOM      6  S   UNL     1      -2.291  -0.191  -1.584  0.00  0.00    -0.058 S 
ENDROOT
BRANCH   1   8
ATOM      7  C   UNL     1      -0.019   1.526   0.010  0.00  0.00    +0.015 C 
ATOM      8  C   UNL     1       0.002  -0.004   0.002  0.00  0.00    +0.053 C 
BRANCH   8   9
ATOM      9  C   UNL     1       0.731  -0.503   1.223  0.00  0.00    -0.042 A 
ATOM     10  C   UNL     1       0.263  -0.187   2.485  0.00  0.00    +0.004 A 
ATOM     11  C   UNL     1       0.931  -0.645   3.605  0.00  0.00    +0.000 A 
ATOM     12  C   UNL     1       2.068  -1.419   3.463  0.00  0.00    +0.000 A 
ATOM     13  C   UNL     1       2.535  -1.736   2.201  0.00  0.00    +0.000 A 
ATOM     14  C   UNL     1       1.864  -1.282   1.081  0.00  0.00    +0.004 A 
ENDBRANCH   8   9
ENDBRANCH   1   8
BRANCH   5  15
ATOM     15  C   UNL     1      -3.633  -1.594  -4.043  0.00  0.00    +0.270 C 
ATOM     16  O   UNL     1      -3.546  -0.387  -3.908  0.00  0.00    -0.268 OA
BRANCH  15  17
ATOM     17  C   UNL     1      -4.287  -2.159  -5.245  0.00  0.00    +0.039 A 
ATOM     18  C   UNL     1      -4.392  -3.542  -5.400  0.00  0.00    +0.014 A 
ATOM     19  C   UNL     1      -5.003  -4.062  -6.521  0.00  0.00    +0.021 A 
ATOM     20  C   UNL     1      -5.511  -3.215  -7.492  0.00  0.00    +0.041 A 
ATOM     21  C   UNL     1      -5.409  -1.842  -7.344  0.00  0.00    +0.021 A 
ATOM     22  C   UNL     1      -4.805  -1.310  -6.224  0.00  0.00    +0.014 A 
ATOM     23 CL   UNL     1      -6.279  -3.878  -8.902  0.00  0.00    -0.084 Cl
ENDBRANCH  15  17
ENDBRANCH   5  15
TORSDOF 4
