REMARK  Name = ZINC45811692
REMARK  4 active torsions:
REMARK  status: ('A' for Active; 'I' for Inactive)
REMARK    1  A    between atoms: C_3  and  N_23
REMARK    2  A    between atoms: C_6  and  C_7
REMARK    3  A    between atoms: N_9  and  N_10
REMARK    4  A    between atoms: C_11  and  C_13
REMARK                            x       y       z     vdW  Elec       q    Type
REMARK                         _______ _______ _______ _____ _____    ______ ____
ROOT
ATOM      1  C   UNL     1      -1.265  -0.761   0.011  0.00  0.00    +0.260 C 
ATOM      2  O   UNL     1      -2.326  -0.169   0.038  0.00  0.00    -0.269 OA
ATOM      3  N   UNL     1      -1.245  -2.108  -0.013  0.00  0.00    -0.230 N 
ATOM      4  H   UNL     1      -0.398  -2.581  -0.035  0.00  0.00    +0.173 HD
ENDROOT
BRANCH   1  10
ATOM      5  C   UNL     1      -0.017   1.393   0.026  0.00  0.00    +0.015 A 
ATOM      6  C   UNL     1       1.167   2.096   0.018  0.00  0.00    +0.024 A 
ATOM      7  C   UNL     1       2.381   1.417  -0.013  0.00  0.00    +0.038 A 
ATOM      8  C   UNL     1       2.403   0.026  -0.037  0.00  0.00    +0.024 A 
ATOM      9  C   UNL     1       1.223  -0.683  -0.030  0.00  0.00    +0.015 A 
ATOM     10  C   UNL     1       0.002  -0.004   0.002  0.00  0.00    +0.038 A 
BRANCH   7  11
ATOM     11  N   UNL     1       3.578   2.132  -0.021  0.00  0.00    -0.254 N 
ATOM     12  C   UNL     1       4.923   1.543   0.061  0.00  0.00    +0.134 C 
ATOM     13  C   UNL     1       5.864   2.763   0.013  0.00  0.00    +0.125 C 
ATOM     14  N   UNL     1       4.949   3.909  -0.092  0.00  0.00    -0.297 N 
ATOM     15  C   UNL     1       3.686   3.464  -0.110  0.00  0.00    +0.307 C 
ATOM     16  O   UNL     1       2.724   4.203  -0.195  0.00  0.00    -0.252 OA
ATOM     17  H   UNL     1       5.218   4.840  -0.143  0.00  0.00    +0.150 HD
ENDBRANCH   7  11
ENDBRANCH   1  10
BRANCH   3  18
ATOM     18  N   UNL     1      -2.448  -2.827  -0.004  0.00  0.00    -0.234 N 
ATOM     19  C   UNL     1      -2.428  -4.174  -0.028  0.00  0.00    +0.235 C 
ATOM     20  O   UNL     1      -1.369  -4.765  -0.055  0.00  0.00    -0.274 OA
ATOM     21  H   UNL     1      -3.295  -2.355   0.018  0.00  0.00    +0.173 HD
BRANCH  19  22
ATOM     22  C   UNL     1      -3.722  -4.947  -0.019  0.00  0.00    +0.049 C 
ATOM     23  C   UNL     1      -4.508  -4.611   1.250  0.00  0.00    +0.019 C 
ATOM     24  C   UNL     1      -5.822  -5.395   1.258  0.00  0.00    -0.009 C 
ATOM     25  C   UNL     1      -5.520  -6.895   1.228  0.00  0.00    +0.007 C 
ATOM     26  C   UNL     1      -4.734  -7.231  -0.040  0.00  0.00    -0.009 C 
ATOM     27  C   UNL     1      -3.420  -6.447  -0.049  0.00  0.00    +0.019 C 
ATOM     28  C   UNL     1      -5.562  -6.853  -1.270  0.00  0.00    +0.007 C 
ATOM     29  C   UNL     1      -5.864  -5.353  -1.239  0.00  0.00    -0.009 C 
ATOM     30  C   UNL     1      -6.650  -5.017   0.029  0.00  0.00    +0.007 C 
ATOM     31  C   UNL     1      -4.550  -4.569  -1.248  0.00  0.00    +0.019 C 
ENDBRANCH  19  22
ENDBRANCH   3  18
TORSDOF 4
