REMARK  Name = ZINC08558902
REMARK  4 active torsions:
REMARK  status: ('A' for Active; 'I' for Inactive)
REMARK    1  A    between atoms: C_1  and  C_2
REMARK    2  A    between atoms: C_5  and  C_8
REMARK    3  A    between atoms: C_21  and  C_26
REMARK    4  A    between atoms: C_23  and  C_25
REMARK                            x       y       z     vdW  Elec       q    Type
REMARK                         _______ _______ _______ _____ _____    ______ ____
ROOT
ATOM      1  C   UNL     1      -2.632   1.390   0.013  0.00  0.00    +0.162 C 
ATOM      2  C   UNL     1      -1.225   1.917   0.018  0.00  0.00    +0.040 C 
ATOM      3  C   UNL     1      -1.299   3.277   0.049  0.00  0.00    +0.031 C 
ATOM      4  C   UNL     1      -0.055   4.141   0.080  0.00  0.00    +0.053 C 
ATOM      5  C   UNL     1       1.068   3.331   0.740  0.00  0.00    +0.014 C 
ATOM      6  C   UNL     1       1.271   2.008   0.001  0.00  0.00    +0.080 C 
ATOM      7  C   UNL     1      -0.014   1.211   0.009  0.00  0.00    +0.163 C 
ATOM      8  O   UNL     1       0.002  -0.004   0.002  0.00  0.00    -0.292 OA
ATOM      9  N   UNL     1      -2.585   3.692   0.044  0.00  0.00    -0.265 N 
ATOM     10  N   UNL     1      -3.470   2.604   0.027  0.00  0.00    -0.209 N 
ATOM     11  C   UNL     1      -4.852   2.659   0.024  0.00  0.00    +0.236 A 
ATOM     12  N   UNL     1      -5.545   1.530   0.002  0.00  0.00    -0.218 NA
ATOM     13  C   UNL     1      -6.867   1.547   0.004  0.00  0.00    +0.044 A 
ATOM     14  C   UNL     1      -7.527   2.765   0.018  0.00  0.00    +0.046 A 
ATOM     15  C   UNL     1      -6.773   3.928   0.036  0.00  0.00    +0.044 A 
ATOM     16  N   UNL     1      -5.453   3.840   0.038  0.00  0.00    -0.218 NA
ATOM     17  C   UNL     1      -7.447   5.275   0.051  0.00  0.00    +0.066 C 
ATOM     18  C   UNL     1      -7.647   0.257  -0.015  0.00  0.00    +0.066 C 
ATOM     19  H   UNL     1      -2.860   4.622   0.052  0.00  0.00    +0.170 HD
ENDROOT
BRANCH   1  24
ATOM     20  C   UNL     1      -3.610  -1.689  -4.778  0.00  0.00    +0.044 C 
ATOM     21  C   UNL     1      -3.354  -0.886  -3.529  0.00  0.00    -0.050 A 
ATOM     22  C   UNL     1      -3.150  -1.530  -2.323  0.00  0.00    +0.004 A 
ATOM     23  C   UNL     1      -2.917  -0.794  -1.177  0.00  0.00    +0.006 A 
ATOM     24  C   UNL     1      -2.887   0.587  -1.236  0.00  0.00    -0.021 A 
ATOM     25  C   UNL     1      -3.096   1.232  -2.441  0.00  0.00    +0.006 A 
ATOM     26  C   UNL     1      -3.324   0.495  -3.588  0.00  0.00    +0.004 A 
ENDBRANCH   1  24
TORSDOF 1
