REMARK  Name = ZINC04613919
REMARK  9 active torsions:
REMARK  status: ('A' for Active; 'I' for Inactive)
REMARK    1  A    between atoms: C_1  and  C_2
REMARK    2  A    between atoms: C_2  and  O_3
REMARK    3  A    between atoms: O_3  and  C_4
REMARK    4  A    between atoms: C_4  and  C_6
REMARK    5  A    between atoms: C_7  and  C_25
REMARK    6  A    between atoms: C_8  and  C_24
REMARK    7  A    between atoms: C_10  and  N_11
REMARK    8  A    between atoms: C_12  and  C_14
REMARK    9  A    between atoms: C_20  and  C_22
REMARK                            x       y       z     vdW  Elec       q    Type
REMARK                         _______ _______ _______ _____ _____    ______ ____
ROOT
ATOM      1  N   UNL     1       0.794   4.234  -0.994  0.00  0.00    -0.279 N 
ATOM      2  C   UNL     1       1.396   3.562   0.008  0.00  0.00    +0.221 C 
ATOM      3  O   UNL     1       1.922   4.171   0.916  0.00  0.00    -0.275 OA
ATOM      4  H   UNL     1       0.374   3.747  -1.720  0.00  0.00    +0.155 HD
ENDROOT
BRANCH   1   9
ATOM      5  C   UNL     1       0.214   6.481  -1.923  0.00  0.00    +0.091 A 
ATOM      6  C   UNL     1       0.340   7.895  -1.660  0.00  0.00    -0.025 A 
ATOM      7  C   UNL     1       0.994   8.257  -0.542  0.00  0.00    -0.008 A 
ATOM      8  S   UNL     1       1.451   6.698   0.188  0.00  0.00    -0.078 S 
ATOM      9  C   UNL     1       0.775   5.619  -0.986  0.00  0.00    +0.086 A 
ATOM     10  C   UNL     1       1.273   9.646  -0.030  0.00  0.00    +0.052 C 
ATOM     11  C   UNL     1      -0.232   8.923  -2.602  0.00  0.00    +0.045 C 
BRANCH   5  12
ATOM     12  C   UNL     1      -0.473   5.979  -3.114  0.00  0.00    +0.342 C 
ATOM     13  O   UNL     1      -1.668   5.756  -3.079  0.00  0.00    -0.245 OA
BRANCH  12  14
ATOM     14  O   UNL     1       0.219   5.763  -4.252  0.00  0.00    -0.461 OA
BRANCH  14  16
ATOM     15  C   UNL     1       0.420   5.084  -6.582  0.00  0.00    +0.048 C 
ATOM     16  C   UNL     1      -0.527   5.265  -5.393  0.00  0.00    +0.229 C 
ENDBRANCH  14  16
ENDBRANCH  12  14
ENDBRANCH   5  12
ENDBRANCH   1   9
BRANCH   2  17
ATOM     17  C   UNL     1       1.417   2.055  -0.000  0.00  0.00    +0.089 C 
ATOM     18  C   UNL     1      -0.019   1.526   0.010  0.00  0.00    +0.013 C 
ATOM     19  C   UNL     1       0.002  -0.004   0.002  0.00  0.00    +0.001 C 
ATOM     20  C   UNL     1       0.742  -0.511   1.242  0.00  0.00    +0.001 C 
ATOM     21  C   UNL     1       2.178   0.019   1.231  0.00  0.00    +0.015 C 
ATOM     22  C   UNL     1       2.157   1.548   1.239  0.00  0.00    +0.114 C 
BRANCH  22  23
ATOM     23  C   UNL     1       3.571   2.070   1.228  0.00  0.00    +0.360 C 
ATOM     24  O   UNL     1       3.948   2.775   0.322  0.00  0.00    -0.246 OA
ATOM     25  O   UNL     1       4.411   1.752   2.225  0.00  0.00    -0.246 OA
ENDBRANCH  22  23
ENDBRANCH   2  17
TORSDOF 6
