REMARK  Name = ZINC43427887
REMARK  3 active torsions:
REMARK  status: ('A' for Active; 'I' for Inactive)
REMARK    1  A    between atoms: C_1  and  C_2
REMARK    2  A    between atoms: C_5  and  C_9
REMARK    3  A    between atoms: C_6  and  O_8
REMARK                            x       y       z     vdW  Elec       q    Type
REMARK                         _______ _______ _______ _____ _____    ______ ____
ROOT
ATOM      1  C   UNL     1       0.059  -4.252  -0.036  0.00  0.00    +0.251 C 
ATOM      2  O   UNL     1       0.172  -4.869   1.006  0.00  0.00    -0.270 OA
ATOM      3  N   UNL     1      -0.040  -4.917  -1.204  0.00  0.00    -0.290 N 
ATOM      4  C   UNL     1      -0.055  -4.229  -2.516  0.00  0.00    +0.136 C 
ATOM      5  C   UNL     1       0.936  -4.879  -3.480  0.00  0.00    +0.179 C 
ATOM      6  O   UNL     1       0.844  -6.315  -3.455  0.00  0.00    -0.373 OA
ATOM      7  C   UNL     1       1.062  -6.817  -2.157  0.00  0.00    +0.139 C 
ATOM      8  C   UNL     1      -0.133  -6.371  -1.277  0.00  0.00    +0.105 C 
ATOM      9  C   UNL     1       0.146  -7.143   0.015  0.00  0.00    +0.025 C 
ATOM     10  C   UNL     1       0.593  -8.538  -0.505  0.00  0.00    +0.004 C 
ATOM     11  C   UNL     1       1.094  -8.320  -1.934  0.00  0.00    +0.033 C 
ENDROOT
BRANCH   1  16
ATOM     12  C   UNL     1      -0.057   1.502   0.017  0.00  0.00    +0.044 C 
ATOM     13  C   UNL     1      -0.024  -0.004   0.005  0.00  0.00    -0.047 A 
ATOM     14  C   UNL     1      -0.914  -0.707  -0.791  0.00  0.00    +0.004 A 
ATOM     15  C   UNL     1      -0.892  -2.085  -0.809  0.00  0.00    +0.017 A 
ATOM     16  C   UNL     1       0.031  -2.777  -0.022  0.00  0.00    +0.078 A 
ATOM     17  C   UNL     1       0.929  -2.063   0.782  0.00  0.00    +0.129 A 
ATOM     18  C   UNL     1       0.897  -0.676   0.784  0.00  0.00    +0.049 A 
BRANCH  17  19
ATOM     19  O   UNL     1       1.830  -2.725   1.552  0.00  0.00    -0.506 OA
ATOM     20  H   UNL     1       2.672  -2.899   1.109  0.00  0.00    +0.292 HD
ENDBRANCH  17  19
ENDBRANCH   1  16
TORSDOF 2
