REMARK  Name = ZINC61604855
REMARK  5 active torsions:
REMARK  status: ('A' for Active; 'I' for Inactive)
REMARK    1  A    between atoms: C_4  and  C_7
REMARK    2  A    between atoms: C_7  and  N_8
REMARK    3  A    between atoms: N_11  and  C_12
REMARK    4  A    between atoms: C_12  and  C_17
REMARK    5  A    between atoms: N_23  and  C_26
REMARK                            x       y       z     vdW  Elec       q    Type
REMARK                         _______ _______ _______ _____ _____    ______ ____
ROOT
ATOM      1  C   UNL     1       6.856  -2.701   3.080  0.00  0.00    +0.112 C 
ATOM      2  C   UNL     1       6.793  -4.136   2.530  0.00  0.00    +0.035 C 
ATOM      3  C   UNL     1       6.964  -5.080   3.739  0.00  0.00    +0.003 C 
ATOM      4  C   UNL     1       6.515  -4.228   4.952  0.00  0.00    +0.003 C 
ATOM      5  C   UNL     1       7.064  -2.822   4.604  0.00  0.00    +0.035 C 
ENDROOT
BRANCH   1   6
ATOM      6  C   UNL     1       8.012  -1.959   2.460  0.00  0.00    +0.239 C 
ATOM      7  O   UNL     1       8.910  -2.574   1.925  0.00  0.00    -0.273 OA
ATOM      8  N   UNL     1       8.048  -0.613   2.499  0.00  0.00    -0.302 N 
ATOM      9  C   UNL     1       7.013   0.105   3.271  0.00  0.00    +0.106 C 
ATOM     10  C   UNL     1       7.625   1.277   4.061  0.00  0.00    +0.000 C 
ATOM     11  C   UNL     1       8.960   0.856   4.632  0.00  0.00    -0.077 C 
ATOM     12  N   UNL     1      10.024   1.239   3.706  0.00  0.00    +0.383 N 
ATOM     13  C   UNL     1      10.320   0.282   2.711  0.00  0.00    -0.059 C 
ATOM     14  C   UNL     1       9.103   0.079   1.787  0.00  0.00    +0.089 C 
ATOM     15  H   UNL     1       9.755   2.099   3.251  0.00  0.00    -0.081 HD
BRANCH  12  16
ATOM     16  C   UNL     1      11.245   1.494   4.482  0.00  0.00    -0.069 C 
ATOM     17  C   UNL     1      11.743   2.939   4.560  0.00  0.00    -0.017 C 
ATOM     18  C   UNL     1      12.497   1.914   3.711  0.00  0.00    -0.017 C 
ENDBRANCH  12  16
ENDBRANCH   1   6
BRANCH   1  22
ATOM     19  N   UNL     1       4.166  -0.965   1.276  0.00  0.00    -0.295 N 
ATOM     20  C   UNL     1       5.269  -1.698   1.528  0.00  0.00    +0.301 C 
ATOM     21  O   UNL     1       5.963  -2.088   0.609  0.00  0.00    -0.253 OA
ATOM     22  N   UNL     1       5.601  -2.000   2.799  0.00  0.00    -0.285 N 
ATOM     23  H   UNL     1       3.653  -0.593   2.010  0.00  0.00    +0.151 HD
ATOM     24  H   UNL     1       5.010  -1.753   3.527  0.00  0.00    +0.151 HD
BRANCH  19  25
ATOM     25  C   UNL     1       3.743  -0.729  -0.106  0.00  0.00    +0.141 C 
BRANCH  25  29
ATOM     26  C   UNL     1       0.016   1.357  -0.122  0.00  0.00    +0.000 A 
ATOM     27  C   UNL     1       1.204   2.064  -0.119  0.00  0.00    +0.000 A 
ATOM     28  C   UNL     1       2.410   1.389  -0.114  0.00  0.00    +0.005 A 
ATOM     29  C   UNL     1       2.428   0.007  -0.111  0.00  0.00    -0.030 A 
ATOM     30  C   UNL     1       1.240  -0.700  -0.113  0.00  0.00    +0.005 A 
ATOM     31  C   UNL     1       0.034  -0.025  -0.119  0.00  0.00    +0.000 A 
ENDBRANCH  25  29
ENDBRANCH  19  25
ENDBRANCH   1  22
TORSDOF 5
