REMARK  Name = ZINC36150529
REMARK  4 active torsions:
REMARK  status: ('A' for Active; 'I' for Inactive)
REMARK    1  A    between atoms: C_1  and  C_2
REMARK    2  A    between atoms: C_9  and  C_12
REMARK    3  A    between atoms: C_17  and  O_18
REMARK    4  A    between atoms: O_18  and  C_19
REMARK                            x       y       z     vdW  Elec       q    Type
REMARK                         _______ _______ _______ _____ _____    ______ ____
ROOT
ATOM      1  C   UNL     1      -0.019   1.526   0.010  0.00  0.00    +0.030 C 
ATOM      2  C   UNL     1       0.002  -0.004   0.002  0.00  0.00    +0.095 C 
ATOM      3  C   UNL     1       0.707  -0.492  -1.273  0.00  0.00    +0.101 C 
ATOM      4  S   UNL     1       0.439  -2.297  -1.375  0.00  0.00    -0.083 S 
ATOM      5  C   UNL     1       0.662  -2.754   0.319  0.00  0.00    +0.209 A 
ATOM      6  N   UNL     1       0.776  -3.939   0.841  0.00  0.00    -0.121 NA
ATOM      7  N   UNL     1       0.910  -3.836   2.120  0.00  0.00    -0.127 NA
ATOM      8  C   UNL     1       0.891  -2.570   2.475  0.00  0.00    +0.185 A 
ATOM      9  N   UNL     1       0.740  -1.831   1.329  0.00  0.00    -0.221 N 
ATOM     10  N   UNL     1       0.696  -0.482   1.197  0.00  0.00    -0.277 N 
ATOM     11  H   UNL     1       1.619  -0.080   1.264  0.00  0.00    +0.167 HD
ENDROOT
BRANCH   8  12
ATOM     12  C   UNL     1       1.010  -2.042   3.850  0.00  0.00    +0.062 A 
ATOM     13  C   UNL     1       0.967  -0.667   4.080  0.00  0.00    +0.015 A 
ATOM     14  C   UNL     1       1.078  -0.180   5.366  0.00  0.00    +0.001 A 
ATOM     15  C   UNL     1       1.232  -1.051   6.430  0.00  0.00    +0.004 A 
ATOM     16  C   UNL     1       1.277  -2.416   6.215  0.00  0.00    +0.046 A 
ATOM     17  C   UNL     1       1.160  -2.921   4.931  0.00  0.00    +0.131 A 
BRANCH  17  18
ATOM     18  O   UNL     1       1.197  -4.262   4.719  0.00  0.00    -0.494 OA
ATOM     19  C   UNL     1       1.353  -5.096   5.869  0.00  0.00    +0.277 C 
ENDBRANCH  17  18
ENDBRANCH   8  12
TORSDOF 2
