REMARK  Name = ZINC40005481
REMARK  9 active torsions:
REMARK  status: ('A' for Active; 'I' for Inactive)
REMARK    1  A    between atoms: C_1  and  C_2
REMARK    2  A    between atoms: C_4  and  C_27
REMARK    3  A    between atoms: C_8  and  C_12
REMARK    4  A    between atoms: C_12  and  O_13
REMARK    5  A    between atoms: O_13  and  C_14
REMARK    6  A    between atoms: C_14  and  C_16
REMARK    7  A    between atoms: C_19  and  N_24
REMARK    8  A    between atoms: C_21  and  O_22
REMARK    9  A    between atoms: O_22  and  C_23
REMARK                            x       y       z     vdW  Elec       q    Type
REMARK                         _______ _______ _______ _____ _____    ______ ____
ROOT
ATOM      1  O   UNL     1       5.963  -4.003  -0.933  0.00  0.00    -0.453 OA
ENDROOT
BRANCH   1   2
ATOM      2  C   UNL     1       7.071  -4.743  -0.731  0.00  0.00    +0.343 C 
ATOM      3  O   UNL     1       7.445  -4.981   0.401  0.00  0.00    -0.245 OA
BRANCH   2   4
ATOM      4  C   UNL     1       7.829  -5.262  -1.880  0.00  0.00    +0.102 A 
ATOM      5  C   UNL     1       7.404  -4.984  -3.185  0.00  0.00    +0.040 A 
ATOM      6  C   UNL     1       8.108  -5.465  -4.251  0.00  0.00    +0.063 A 
ATOM      7  C   UNL     1       9.252  -6.237  -4.049  0.00  0.00    +0.047 A 
ATOM      8  C   UNL     1       9.686  -6.521  -2.760  0.00  0.00    +0.070 A 
ATOM      9  C   UNL     1       8.984  -6.033  -1.672  0.00  0.00    +0.136 A 
ATOM     10 CL   UNL     1       7.575  -5.117  -5.866  0.00  0.00    -0.082 Cl
BRANCH   7  11
ATOM     11  N   UNL     1       9.962  -6.723  -5.142  0.00  0.00    -0.357 N 
ATOM     12  H   UNL     1       9.660  -6.526  -6.042  0.00  0.00    +0.142 HD
ATOM     13  H   UNL     1      10.758  -7.260  -5.003  0.00  0.00    +0.142 HD
ENDBRANCH   7  11
BRANCH   9  14
ATOM     14  O   UNL     1       9.406  -6.302  -0.411  0.00  0.00    -0.494 OA
ATOM     15  C   UNL     1      10.589  -7.093  -0.278  0.00  0.00    +0.277 C 
ENDBRANCH   9  14
ENDBRANCH   2   4
ENDBRANCH   1   2
BRANCH   1  16
ATOM     16  C   UNL     1       5.277  -3.531   0.228  0.00  0.00    +0.305 C 
BRANCH  16  23
ATOM     17  C   UNL     1      -0.019   1.526   0.010  0.00  0.00    +0.024 C 
ATOM     18  C   UNL     1       0.002  -0.004   0.002  0.00  0.00    +0.076 C 
ATOM     19  C   UNL     1       0.769  -0.528  -1.190  0.00  0.00    -0.045 C 
ATOM     20  C   UNL     1       1.868  -1.261  -0.953  0.00  0.00    +0.071 C 
ATOM     21  C   UNL     1       2.243  -1.498   0.457  0.00  0.00    +0.112 C 
ATOM     22  N   UNL     1       3.306  -2.207   0.754  0.00  0.00    -0.224 NA
ATOM     23  C   UNL     1       4.072  -2.729  -0.191  0.00  0.00    +0.161 C 
ATOM     24  N   UNL     1       3.837  -2.585  -1.473  0.00  0.00    -0.158 NA
ATOM     25  C   UNL     1       2.796  -1.891  -1.945  0.00  0.00    +0.271 C 
ATOM     26  O   UNL     1       2.607  -1.777  -3.144  0.00  0.00    -0.268 OA
ATOM     27  S   UNL     1       0.997  -0.657   1.404  0.00  0.00    -0.098 S 
ATOM     28  C   UNL     1       0.315  -0.239  -2.598  0.00  0.00    +0.041 C 
ENDBRANCH  16  23
ENDBRANCH   1  16
TORSDOF 6
