REMARK  Name = ZINC50037560
REMARK  4 active torsions:
REMARK  status: ('A' for Active; 'I' for Inactive)
REMARK    1  A    between atoms: C_1  and  C_2
REMARK    2  A    between atoms: C_6  and  C_10
REMARK    3  A    between atoms: C_11  and  C_13
REMARK    4  A    between atoms: C_18  and  N_19
REMARK                            x       y       z     vdW  Elec       q    Type
REMARK                         _______ _______ _______ _____ _____    ______ ____
ROOT
ATOM      1  C   UNL     1      -0.156  -2.248  -3.358  0.00  0.00    +0.070 A 
ATOM      2  C   UNL     1       0.508  -1.357  -4.205  0.00  0.00    +0.056 A 
ATOM      3  C   UNL     1      -0.151  -0.822  -5.293  0.00  0.00    +0.159 A 
ATOM      4  C   UNL     1      -1.472  -1.167  -5.545  0.00  0.00    +0.161 A 
ATOM      5  C   UNL     1      -2.135  -2.050  -4.707  0.00  0.00    +0.074 A 
ATOM      6  C   UNL     1      -1.483  -2.595  -3.621  0.00  0.00    +0.141 A 
ATOM      7  F   UNL     1      -2.114  -0.640  -6.611  0.00  0.00    -0.202 F 
ATOM      8  F   UNL     1       0.490   0.040  -6.113  0.00  0.00    -0.202 F 
ENDROOT
BRANCH   1  17
ATOM      9  C   UNL     1       0.531   1.572  -0.156  0.00  0.00    +0.039 C 
ATOM     10  C   UNL     1       0.410   0.048  -0.111  0.00  0.00    +0.133 C 
ATOM     11  C   UNL     1       1.005  -0.552  -1.390  0.00  0.00    +0.139 C 
ATOM     12  N   UNL     1       1.048  -2.015  -1.240  0.00  0.00    -0.290 N 
ATOM     13  C   UNL     1       1.658  -2.568  -0.021  0.00  0.00    +0.099 C 
ATOM     14  C   UNL     1       1.032  -1.870   1.192  0.00  0.00    +0.182 C 
ATOM     15  O   UNL     1       1.125  -0.454   1.022  0.00  0.00    -0.373 OA
ATOM     16  C   UNL     1       3.167  -2.315  -0.040  0.00  0.00    +0.030 C 
ATOM     17  C   UNL     1       0.544  -2.825  -2.193  0.00  0.00    +0.249 C 
ATOM     18  O   UNL     1       0.665  -4.030  -2.092  0.00  0.00    -0.270 OA
ENDBRANCH   1  17
BRANCH   6  19
ATOM     19  N   UNL     1      -2.191  -3.543  -2.731  0.00  0.00    +0.057 N 
ATOM     20  O   UNL     1      -3.297  -3.934  -3.023  0.00  0.00    -0.126 OA
ATOM     21  O   UNL     1      -1.663  -3.925  -1.713  0.00  0.00    -0.126 OA
ENDBRANCH   6  19
TORSDOF 2
