REMARK  Name = ZINC00679475
REMARK  8 active torsions:
REMARK  status: ('A' for Active; 'I' for Inactive)
REMARK    1  A    between atoms: C_1  and  C_2
REMARK    2  A    between atoms: C_3  and  C_20
REMARK    3  A    between atoms: C_4  and  C_10
REMARK    4  A    between atoms: C_12  and  O_18
REMARK    5  A    between atoms: C_13  and  O_17
REMARK    6  A    between atoms: O_18  and  C_19
REMARK    7  A    between atoms: N_22  and  C_23
REMARK    8  A    between atoms: C_23  and  C_24
REMARK                            x       y       z     vdW  Elec       q    Type
REMARK                         _______ _______ _______ _____ _____    ______ ____
ROOT
ATOM      1  C   UNL     1       0.648   1.207  -0.208  0.00  0.00    +0.061 C 
ATOM      2  C   UNL     1       0.389  -0.274  -0.102  0.00  0.00    +0.019 C 
ATOM      3  C   UNL     1      -0.878  -0.733  -0.171  0.00  0.00    +0.056 C 
ATOM      4  C   UNL     1      -1.093  -2.228  -0.060  0.00  0.00    +0.143 C 
ATOM      5  N   UNL     1       0.106  -3.064   0.115  0.00  0.00    -0.288 N 
ATOM      6  C   UNL     1       1.309  -2.458   0.166  0.00  0.00    +0.304 C 
ATOM      7  O   UNL     1       2.305  -3.139   0.310  0.00  0.00    -0.252 OA
ATOM      8  N   UNL     1       1.442  -1.130   0.057  0.00  0.00    -0.273 N 
ATOM      9  H   UNL     1       0.033  -4.028   0.193  0.00  0.00    +0.151 HD
ATOM     10  H   UNL     1       2.336  -0.754   0.098  0.00  0.00    +0.156 HD
ENDROOT
BRANCH   4  11
ATOM     11  C   UNL     1      -1.802  -2.689  -1.307  0.00  0.00    -0.001 A 
ATOM     12  C   UNL     1      -1.069  -3.130  -2.394  0.00  0.00    +0.056 A 
ATOM     13  C   UNL     1      -1.718  -3.554  -3.542  0.00  0.00    +0.162 A 
ATOM     14  C   UNL     1      -3.109  -3.536  -3.598  0.00  0.00    +0.160 A 
ATOM     15  C   UNL     1      -3.838  -3.094  -2.507  0.00  0.00    +0.069 A 
ATOM     16  C   UNL     1      -3.184  -2.676  -1.361  0.00  0.00    +0.050 A 
ATOM     17 CL   UNL     1      -4.099  -2.128   0.009  0.00  0.00    -0.083 Cl
BRANCH  14  18
ATOM     18  O   UNL     1      -3.751  -3.951  -4.723  0.00  0.00    -0.503 OA
ATOM     19  H   UNL     1      -3.960  -4.895  -4.731  0.00  0.00    +0.292 HD
ENDBRANCH  14  18
BRANCH  13  20
ATOM     20  O   UNL     1      -0.999  -3.987  -4.612  0.00  0.00    -0.491 OA
ATOM     21  C   UNL     1       0.424  -3.978  -4.483  0.00  0.00    +0.277 C 
ENDBRANCH  13  20
ENDBRANCH   4  11
BRANCH   3  22
ATOM     22  C   UNL     1      -1.970   0.154  -0.340  0.00  0.00    +0.244 C 
ATOM     23  O   UNL     1      -2.669   0.449   0.612  0.00  0.00    -0.270 OA
ATOM     24  N   UNL     1      -2.235   0.672  -1.556  0.00  0.00    -0.307 N 
ATOM     25  H   UNL     1      -1.722   0.384  -2.328  0.00  0.00    +0.149 HD
BRANCH  24  26
ATOM     26  C   UNL     1      -3.298   1.668  -1.712  0.00  0.00    +0.139 C 
BRANCH  26  27
ATOM     27  C   UNL     1      -3.309   2.172  -3.132  0.00  0.00    -0.030 A 
ATOM     28  C   UNL     1      -2.542   3.266  -3.484  0.00  0.00    +0.005 A 
ATOM     29  C   UNL     1      -2.552   3.728  -4.787  0.00  0.00    +0.000 A 
ATOM     30  C   UNL     1      -3.330   3.095  -5.738  0.00  0.00    +0.000 A 
ATOM     31  C   UNL     1      -4.097   2.000  -5.387  0.00  0.00    +0.000 A 
ATOM     32  C   UNL     1      -4.083   1.536  -4.085  0.00  0.00    +0.005 A 
ENDBRANCH  26  27
ENDBRANCH  24  26
ENDBRANCH   3  22
TORSDOF 6
