REMARK  Name = ZINC23881083
REMARK  7 active torsions:
REMARK  status: ('A' for Active; 'I' for Inactive)
REMARK    1  A    between atoms: C_1  and  O_2
REMARK    2  A    between atoms: O_2  and  C_3
REMARK    3  A    between atoms: C_8  and  O_9
REMARK    4  A    between atoms: O_9  and  C_10
REMARK    5  A    between atoms: C_11  and  C_30
REMARK    6  A    between atoms: N_13  and  C_16
REMARK    7  A    between atoms: C_16  and  N_17
REMARK                            x       y       z     vdW  Elec       q    Type
REMARK                         _______ _______ _______ _____ _____    ______ ____
ROOT
ATOM      1  C   UNL     1      -0.787   2.893   1.346  0.00  0.00    +0.162 A 
ATOM      2  C   UNL     1      -0.256   3.751   0.400  0.00  0.00    +0.053 A 
ATOM      3  C   UNL     1      -0.365   5.125   0.559  0.00  0.00    -0.037 A 
ATOM      4  C   UNL     1      -1.001   5.641   1.668  0.00  0.00    -0.019 A 
ATOM      5  C   UNL     1      -1.530   4.784   2.623  0.00  0.00    +0.055 A 
ATOM      6  C   UNL     1      -1.426   3.413   2.468  0.00  0.00    +0.162 A 
ATOM      7  C   UNL     1      -1.150   7.125   1.879  0.00  0.00    +0.119 C 
ATOM      8  N   UNL     1      -0.208   7.862   1.030  0.00  0.00    -0.275 NA
ATOM      9  C   UNL     1      -0.340   7.431  -0.370  0.00  0.00    +0.091 C 
ATOM     10  C   UNL     1       0.230   6.018  -0.499  0.00  0.00    +0.051 C 
ENDROOT
BRANCH   7  11
ATOM     11  C   UNL     1      -0.877   7.452   3.325  0.00  0.00    -0.026 A 
ATOM     12  C   UNL     1       0.426   7.545   3.778  0.00  0.00    +0.005 A 
ATOM     13  C   UNL     1       0.677   7.848   5.103  0.00  0.00    +0.000 A 
ATOM     14  C   UNL     1      -0.375   8.051   5.977  0.00  0.00    +0.000 A 
ATOM     15  C   UNL     1      -1.678   7.953   5.525  0.00  0.00    +0.000 A 
ATOM     16  C   UNL     1      -1.929   7.653   4.199  0.00  0.00    +0.005 A 
ENDBRANCH   7  11
BRANCH   1  18
ATOM     17  C   UNL     1      -0.013   1.086   0.008  0.00  0.00    +0.277 C 
ATOM     18  O   UNL     1      -0.682   1.547   1.184  0.00  0.00    -0.491 OA
ENDBRANCH   1  18
BRANCH   6  19
ATOM     19  O   UNL     1      -1.947   2.579   3.406  0.00  0.00    -0.491 OA
ATOM     20  C   UNL     1      -2.588   3.185   4.530  0.00  0.00    +0.277 C 
ENDBRANCH   6  19
BRANCH   8  21
ATOM     21  C   UNL     1      -0.409   9.312   1.156  0.00  0.00    +0.205 C 
BRANCH  21  22
ATOM     22  N   UNL     1       0.829  10.009   0.798  0.00  0.00    -0.211 N 
ATOM     23  C   UNL     1       1.134  10.415  -0.449  0.00  0.00    +0.248 C 
ATOM     24  O   UNL     1       0.462  10.275  -1.448  0.00  0.00    -0.273 OA
ATOM     25  C   UNL     1       2.494  11.084  -0.345  0.00  0.00    +0.113 C 
ATOM     26  C   UNL     1       2.306  12.587  -0.657  0.00  0.00    +0.035 C 
ATOM     27  C   UNL     1       3.431  13.358  -0.025  0.00  0.00    +0.003 C 
ATOM     28  C   UNL     1       4.605  13.598  -0.994  0.00  0.00    +0.000 C 
ATOM     29  C   UNL     1       4.938  12.360  -1.847  0.00  0.00    +0.000 C 
ATOM     30  C   UNL     1       4.889  11.085  -1.048  0.00  0.00    +0.003 C 
ATOM     31  C   UNL     1       3.490  10.463  -1.210  0.00  0.00    +0.035 C 
ATOM     32  N   UNL     1       2.825  10.958   1.088  0.00  0.00    -0.285 N 
ATOM     33  C   UNL     1       1.792  10.326   1.671  0.00  0.00    +0.310 C 
ATOM     34  O   UNL     1       1.739  10.068   2.857  0.00  0.00    -0.252 OA
ATOM     35  H   UNL     1       3.777  11.354   1.470  0.00  0.00    +0.151 HD
ENDBRANCH  21  22
ENDBRANCH   8  21
TORSDOF 5
