REMARK  Name = ZINC13896219
REMARK  6 active torsions:
REMARK  status: ('A' for Active; 'I' for Inactive)
REMARK    1  A    between atoms: C_1  and  C_2
REMARK    2  A    between atoms: C_2  and  O_3
REMARK    3  A    between atoms: O_3  and  C_4
REMARK    4  A    between atoms: C_6  and  C_12
REMARK    5  A    between atoms: C_9  and  O_10
REMARK    6  A    between atoms: N_19  and  C_22
REMARK                            x       y       z     vdW  Elec       q    Type
REMARK                         _______ _______ _______ _____ _____    ______ ____
ROOT
ATOM      1  C   UNL     1       4.803   4.010   0.006  0.00  0.00    +0.026 C 
ATOM      2  C   UNL     1       5.530   4.033   1.181  0.00  0.00    +0.100 C 
ATOM      3  C   UNL     1       6.973   4.344   1.188  0.00  0.00    +0.257 C 
ATOM      4  O   UNL     1       7.565   4.589   0.154  0.00  0.00    -0.270 OA
ATOM      5  N   UNL     1       7.616   4.353   2.374  0.00  0.00    -0.235 N 
ATOM      6  C   UNL     1       6.978   4.079   3.520  0.00  0.00    +0.320 C 
ATOM      7  O   UNL     1       7.617   4.100   4.554  0.00  0.00    -0.251 OA
ATOM      8  N   UNL     1       5.672   3.784   3.588  0.00  0.00    -0.190 N 
ATOM      9  C   UNL     1       4.899   3.743   2.483  0.00  0.00    +0.263 C 
ATOM     10  O   UNL     1       3.715   3.474   2.558  0.00  0.00    -0.269 OA
ATOM     11  H   UNL     1       8.564   4.558   2.397  0.00  0.00    +0.159 HD
ENDROOT
BRANCH   1  14
ATOM     12  C   UNL     1       1.268   3.045  -0.770  0.00  0.00    +0.163 A 
ATOM     13  C   UNL     1       2.646   3.096  -0.818  0.00  0.00    +0.057 A 
ATOM     14  C   UNL     1       3.342   3.950   0.051  0.00  0.00    -0.019 A 
ATOM     15  C   UNL     1       2.633   4.747   0.962  0.00  0.00    +0.027 A 
ATOM     16  C   UNL     1       1.258   4.692   0.997  0.00  0.00    +0.063 A 
ATOM     17  C   UNL     1       0.570   3.840   0.139  0.00  0.00    +0.173 A 
ATOM     18 BR   UNL     1       0.302   5.772   2.220  0.00  0.00    -0.046 Br
BRANCH  17  19
ATOM     19  O   UNL     1      -0.786   3.787   0.183  0.00  0.00    -0.503 OA
ATOM     20  H   UNL     1      -1.134   3.125   0.796  0.00  0.00    +0.292 HD
ENDBRANCH  17  19
BRANCH  12  21
ATOM     21  O   UNL     1       0.590   2.218  -1.610  0.00  0.00    -0.489 OA
BRANCH  21  23
ATOM     22  C   UNL     1       0.438   0.571  -3.373  0.00  0.00    +0.048 C 
ATOM     23  C   UNL     1       1.367   1.432  -2.515  0.00  0.00    +0.226 C 
ENDBRANCH  21  23
ENDBRANCH  12  21
ENDBRANCH   1  14
BRANCH   8  24
ATOM     24  C   UNL     1       5.096   3.512   4.837  0.00  0.00    +0.046 A 
ATOM     25  C   UNL     1       4.943   2.199   5.260  0.00  0.00    +0.024 A 
ATOM     26  C   UNL     1       4.381   1.934   6.494  0.00  0.00    +0.002 A 
ATOM     27  C   UNL     1       3.960   2.974   7.301  0.00  0.00    +0.000 A 
ATOM     28  C   UNL     1       4.105   4.283   6.879  0.00  0.00    +0.002 A 
ATOM     29  C   UNL     1       4.672   4.555   5.649  0.00  0.00    +0.024 A 
ENDBRANCH   8  24
TORSDOF 5
