REMARK  Name = ZINC17370926
REMARK  6 active torsions:
REMARK  status: ('A' for Active; 'I' for Inactive)
REMARK    1  A    between atoms: C_1  and  C_2
REMARK    2  A    between atoms: C_7  and  C_22
REMARK    3  A    between atoms: C_8  and  N_11
REMARK    4  A    between atoms: C_12  and  C_14
REMARK    5  A    between atoms: C_14  and  N_15
REMARK    6  A    between atoms: C_16  and  C_21
REMARK                            x       y       z     vdW  Elec       q    Type
REMARK                         _______ _______ _______ _____ _____    ______ ____
ROOT
ATOM      1  C   UNL     1      -4.734   4.378  -1.577  0.00  0.00    +0.045 C 
ATOM      2  C   UNL     1      -3.981   3.754  -2.724  0.00  0.00    -0.034 A 
ATOM      3  C   UNL     1      -4.438   3.935  -4.041  0.00  0.00    +0.008 A 
ATOM      4  C   UNL     1      -3.758   3.371  -5.074  0.00  0.00    +0.047 A 
ATOM      5  C   UNL     1      -2.600   2.610  -4.809  0.00  0.00    +0.140 A 
ATOM      6  N   UNL     1      -1.764   1.965  -5.606  0.00  0.00    -0.226 NA
ATOM      7  C   UNL     1      -0.800   1.390  -4.866  0.00  0.00    +0.112 A 
ATOM      8  C   UNL     1      -1.048   1.681  -3.541  0.00  0.00    +0.137 A 
ATOM      9  N   UNL     1      -2.178   2.451  -3.510  0.00  0.00    -0.287 N 
ATOM     10  C   UNL     1      -2.873   3.024  -2.481  0.00  0.00    +0.097 A 
ENDROOT
BRANCH   7  11
ATOM     11  C   UNL     1       0.330   0.582  -5.384  0.00  0.00    +0.004 A 
ATOM     12  C   UNL     1       1.577   0.643  -4.762  0.00  0.00    +0.010 A 
ATOM     13  C   UNL     1       2.623  -0.116  -5.245  0.00  0.00    +0.001 A 
ATOM     14  C   UNL     1       2.440  -0.928  -6.351  0.00  0.00    +0.000 A 
ATOM     15  C   UNL     1       1.206  -0.989  -6.974  0.00  0.00    +0.001 A 
ATOM     16  C   UNL     1       0.151  -0.238  -6.497  0.00  0.00    +0.010 A 
ENDBRANCH   7  11
BRANCH   8  17
ATOM     17  N   UNL     1      -0.288   1.272  -2.443  0.00  0.00    -0.268 N 
ATOM     18  C   UNL     1      -0.214   2.054  -1.347  0.00  0.00    +0.238 C 
ATOM     19  O   UNL     1      -0.712   3.160  -1.356  0.00  0.00    -0.273 OA
ATOM     20  H   UNL     1       0.185   0.426  -2.469  0.00  0.00    +0.156 HD
BRANCH  18  21
ATOM     21  C   UNL     1       0.488   1.553  -0.111  0.00  0.00    +0.221 C 
BRANCH  21  22
ATOM     22  N   UNL     1       0.432   2.580   0.932  0.00  0.00    -0.298 N 
ATOM     23  C   UNL     1       1.420   3.513   1.035  0.00  0.00    +0.027 A 
ATOM     24  C   UNL     1       1.330   4.435   1.997  0.00  0.00    +0.071 A 
ATOM     25  S   UNL     1      -0.195   3.975   2.802  0.00  0.00    -0.035 S 
ATOM     26  C   UNL     1      -0.597   2.611   1.808  0.00  0.00    +0.291 A 
ATOM     27  O   UNL     1      -1.562   1.871   1.881  0.00  0.00    -0.259 OA
ATOM     28  C   UNL     1       2.587   3.507   0.081  0.00  0.00    +0.064 C 
ENDBRANCH  21  22
ENDBRANCH  18  21
ENDBRANCH   8  17
TORSDOF 4
