REMARK  Name = ZINC01788044
REMARK  2 active torsions:
REMARK  status: ('A' for Active; 'I' for Inactive)
REMARK    1  A    between atoms: C_4  and  C_7
REMARK    2  A    between atoms: C_9  and  C_17
REMARK                            x       y       z     vdW  Elec       q    Type
REMARK                         _______ _______ _______ _____ _____    ______ ____
ROOT
ATOM      1  C   UNL     1       3.691  -0.679  -0.038  0.00  0.00    +0.055 C 
ATOM      2  C   UNL     1       3.680  -2.182  -0.052  0.00  0.00    +0.088 C 
ATOM      3  C   UNL     1       4.862  -2.740  -0.853  0.00  0.00    +0.152 C 
ATOM      4  N   UNL     1       6.047  -1.952  -0.519  0.00  0.00    -0.202 N 
ATOM      5  C   UNL     1       5.981  -0.635  -0.147  0.00  0.00    +0.270 A 
ATOM      6  N   UNL     1       7.210  -0.240   0.061  0.00  0.00    -0.088 NA
ATOM      7  N   UNL     1       8.033  -1.211  -0.145  0.00  0.00    -0.021 NA
ATOM      8  N   UNL     1       7.397  -2.282  -0.497  0.00  0.00    -0.042 NA
ATOM      9  N   UNL     1       4.794   0.019  -0.046  0.00  0.00    -0.214 NA
ENDROOT
BRANCH   3  10
ATOM     10  C   UNL     1       5.090  -4.183  -0.486  0.00  0.00    +0.031 A 
ATOM     11  C   UNL     1       5.379  -4.528   0.824  0.00  0.00    +0.130 A 
ATOM     12  C   UNL     1       5.588  -5.855   1.159  0.00  0.00    +0.039 A 
ATOM     13  C   UNL     1       5.507  -6.835   0.188  0.00  0.00    +0.004 A 
ATOM     14  C   UNL     1       5.218  -6.491  -1.119  0.00  0.00    +0.020 A 
ATOM     15  C   UNL     1       5.003  -5.166  -1.456  0.00  0.00    +0.049 A 
ATOM     16 CL   UNL     1       4.633  -4.736  -3.096  0.00  0.00    -0.083 Cl
ATOM     17  F   UNL     1       5.459  -3.570   1.773  0.00  0.00    -0.205 F 
ENDBRANCH   3  10
BRANCH   1  21
ATOM     18  C   UNL     1      -0.017   1.380   0.010  0.00  0.00    +0.000 A 
ATOM     19  C   UNL     1       1.168   2.095   0.002  0.00  0.00    +0.001 A 
ATOM     20  C   UNL     1       2.377   1.433  -0.013  0.00  0.00    +0.010 A 
ATOM     21  C   UNL     1       2.405   0.035  -0.021  0.00  0.00    -0.004 A 
ATOM     22  C   UNL     1       1.203  -0.681  -0.013  0.00  0.00    +0.010 A 
ATOM     23  C   UNL     1       0.002  -0.004   0.002  0.00  0.00    +0.001 A 
ENDBRANCH   1  21
TORSDOF 2
