REMARK  Name = ZINC39421062
REMARK  6 active torsions:
REMARK  status: ('A' for Active; 'I' for Inactive)
REMARK    1  A    between atoms: C_1  and  O_2
REMARK    2  A    between atoms: O_2  and  C_3
REMARK    3  A    between atoms: C_6  and  N_9
REMARK    4  A    between atoms: N_9  and  C_10
REMARK    5  A    between atoms: C_17  and  C_19
REMARK    6  A    between atoms: C_24  and  C_25
REMARK                            x       y       z     vdW  Elec       q    Type
REMARK                         _______ _______ _______ _____ _____    ______ ____
ROOT
ATOM      1  C   UNL     1       2.510  -3.919  -4.379  0.00  0.00    +0.088 C 
ATOM      2  C   UNL     1       3.717  -4.430  -3.589  0.00  0.00    +0.025 C 
ATOM      3  C   UNL     1       3.754  -5.959  -3.642  0.00  0.00    +0.021 C 
ATOM      4  C   UNL     1       3.902  -6.412  -5.098  0.00  0.00    +0.108 C 
ATOM      5  N   UNL     1       2.825  -5.806  -5.894  0.00  0.00    -0.299 N 
ATOM      6  C   UNL     1       2.643  -4.349  -5.843  0.00  0.00    +0.130 C 
ATOM      7  C   UNL     1       2.020  -6.572  -6.655  0.00  0.00    +0.230 C 
ATOM      8  O   UNL     1       1.134  -6.060  -7.307  0.00  0.00    -0.274 OA
ENDROOT
BRANCH   7   9
ATOM      9  C   UNL     1       2.219  -8.066  -6.697  0.00  0.00    +0.164 C 
ATOM     10  C   UNL     1       3.571  -8.408  -7.291  0.00  0.00    +0.126 C 
ATOM     11  N   UNL     1       3.325  -9.096  -8.357  0.00  0.00    -0.161 NA
ATOM     12  N   UNL     1       1.963  -9.272  -8.573  0.00  0.00    -0.157 NA
ATOM     13  C   UNL     1       1.239  -8.709  -7.658  0.00  0.00    +0.061 C 
BRANCH  13  14
ATOM     14  C   UNL     1      -0.266  -8.695  -7.565  0.00  0.00    +0.036 C 
ATOM     15  C   UNL     1      -0.707  -9.462  -6.317  0.00  0.00    +0.009 C 
ATOM     16  C   UNL     1      -2.234  -9.447  -6.223  0.00  0.00    +0.001 C 
ATOM     17  C   UNL     1      -2.828 -10.112  -7.467  0.00  0.00    +0.000 C 
ATOM     18  C   UNL     1      -2.386  -9.344  -8.715  0.00  0.00    +0.001 C 
ATOM     19  C   UNL     1      -0.859  -9.359  -8.809  0.00  0.00    +0.009 C 
ENDBRANCH  13  14
ENDBRANCH   7   9
BRANCH   1  20
ATOM     20  N   UNL     1       2.458  -2.457  -4.301  0.00  0.00    -0.339 N 
ATOM     21  H   UNL     1       2.853  -1.920  -5.005  0.00  0.00    +0.146 HD
BRANCH  20  25
ATOM     22  C   UNL     1       0.606  -0.608  -1.056  0.00  0.00    +0.120 A 
ATOM     23  C   UNL     1       1.173   0.162  -2.062  0.00  0.00    +0.047 A 
ATOM     24  C   UNL     1       1.786  -0.451  -3.137  0.00  0.00    +0.026 A 
ATOM     25  C   UNL     1       1.836  -1.836  -3.212  0.00  0.00    +0.028 A 
ATOM     26  C   UNL     1       1.269  -2.605  -2.204  0.00  0.00    +0.026 A 
ATOM     27  C   UNL     1       0.660  -1.992  -1.127  0.00  0.00    +0.047 A 
BRANCH  22  29
ATOM     28  C   UNL     1      -0.017   1.425   0.010  0.00  0.00    +0.277 C 
ATOM     29  O   UNL     1       0.002  -0.004   0.002  0.00  0.00    -0.495 OA
ENDBRANCH  22  29
ENDBRANCH  20  25
ENDBRANCH   1  20
TORSDOF 5
