REMARK  Name = ZINC06181892
REMARK  6 active torsions:
REMARK  status: ('A' for Active; 'I' for Inactive)
REMARK    1  A    between atoms: C_1  and  O_2
REMARK    2  A    between atoms: O_2  and  C_3
REMARK    3  A    between atoms: C_6  and  C_9
REMARK    4  A    between atoms: C_9  and  N_10
REMARK    5  A    between atoms: C_14  and  C_26
REMARK    6  A    between atoms: N_18  and  C_19
REMARK                            x       y       z     vdW  Elec       q    Type
REMARK                         _______ _______ _______ _____ _____    ______ ____
ROOT
ATOM      1  N   UNL     1      -5.423  -2.855  -1.343  0.00  0.00    -0.246 N 
ATOM      2  C   UNL     1      -6.151  -1.913  -1.923  0.00  0.00    +0.223 C 
ATOM      3  O   UNL     1      -6.498  -1.000  -1.204  0.00  0.00    -0.275 OA
ATOM      4  C   UNL     1      -6.601  -1.825  -3.340  0.00  0.00    +0.120 C 
ATOM      5  C   UNL     1      -6.749  -3.201  -3.993  0.00  0.00    +0.148 C 
ATOM      6  S   UNL     1      -5.199  -4.121  -3.720  0.00  0.00    -0.077 S 
ATOM      7  C   UNL     1      -5.049  -4.037  -1.957  0.00  0.00    +0.164 C 
ATOM      8  N   UNL     1      -4.603  -5.056  -1.262  0.00  0.00    -0.226 NA
ENDROOT
BRANCH   8   9
ATOM      9  C   UNL     1      -4.240  -6.213  -1.899  0.00  0.00    +0.067 A 
ATOM     10  C   UNL     1      -5.053  -6.747  -2.901  0.00  0.00    +0.029 A 
ATOM     11  C   UNL     1      -4.681  -7.912  -3.539  0.00  0.00    +0.022 A 
ATOM     12  C   UNL     1      -3.506  -8.553  -3.187  0.00  0.00    +0.041 A 
ATOM     13  C   UNL     1      -2.695  -8.029  -2.194  0.00  0.00    +0.022 A 
ATOM     14  C   UNL     1      -3.052  -6.861  -1.553  0.00  0.00    +0.029 A 
ATOM     15 CL   UNL     1      -3.045 -10.019  -3.994  0.00  0.00    -0.084 Cl
ENDBRANCH   8   9
BRANCH   5  16
ATOM     16  C   UNL     1      -6.994  -3.040  -5.471  0.00  0.00    +0.224 C 
ATOM     17  O   UNL     1      -6.460  -2.136  -6.080  0.00  0.00    -0.275 OA
ATOM     18  N   UNL     1      -7.806  -3.900  -6.118  0.00  0.00    -0.328 N 
ATOM     19  H   UNL     1      -8.232  -4.623  -5.631  0.00  0.00    +0.145 HD
ATOM     20  H   UNL     1      -7.963  -3.796  -7.069  0.00  0.00    +0.145 HD
ENDBRANCH   5  16
BRANCH   1  21
ATOM     21  C   UNL     1      -4.981  -2.629   0.035  0.00  0.00    +0.150 C 
BRANCH  21  25
ATOM     22  C   UNL     1      -1.200  -0.637   0.010  0.00  0.00    +0.120 A 
ATOM     23  C   UNL     1      -2.375   0.101   0.019  0.00  0.00    +0.046 A 
ATOM     24  C   UNL     1      -3.596  -0.545   0.027  0.00  0.00    +0.009 A 
ATOM     25  C   UNL     1      -3.648  -1.927   0.026  0.00  0.00    -0.029 A 
ATOM     26  C   UNL     1      -2.479  -2.665   0.017  0.00  0.00    +0.009 A 
ATOM     27  C   UNL     1      -1.255  -2.024   0.003  0.00  0.00    +0.046 A 
BRANCH  22  29
ATOM     28  C   UNL     1      -0.017   1.425   0.010  0.00  0.00    +0.277 C 
ATOM     29  O   UNL     1       0.002  -0.004   0.002  0.00  0.00    -0.495 OA
ENDBRANCH  22  29
ENDBRANCH  21  25
ENDBRANCH   1  21
TORSDOF 5
