REMARK  Name = ZINC58354425
REMARK  6 active torsions:
REMARK  status: ('A' for Active; 'I' for Inactive)
REMARK    1  A    between atoms: C_1  and  C_2
REMARK    2  A    between atoms: C_11  and  C_14
REMARK    3  A    between atoms: C_14  and  N_15
REMARK    4  A    between atoms: C_16  and  C_18
REMARK    5  A    between atoms: C_19  and  C_20
REMARK    6  A    between atoms: C_25  and  N_26
REMARK                            x       y       z     vdW  Elec       q    Type
REMARK                         _______ _______ _______ _____ _____    ______ ____
ROOT
ATOM      1  C   UNL     1      -3.217  -6.356   4.455  0.00  0.00    +0.141 C 
ENDROOT
BRANCH   1  12
ATOM      2  C   UNL     1       2.510  -1.565  -1.435  0.00  0.00    +0.007 C 
ATOM      3  C   UNL     1       1.370  -1.443  -0.422  0.00  0.00    -0.011 C 
ATOM      4  C   UNL     1       1.824  -2.003   0.928  0.00  0.00    +0.022 C 
ATOM      5  C   UNL     1       0.692  -1.848   1.948  0.00  0.00    +0.107 C 
ATOM      6  N   UNL     1      -0.520  -2.481   1.409  0.00  0.00    -0.317 N 
ATOM      7  C   UNL     1      -0.993  -2.080   0.077  0.00  0.00    +0.107 C 
ATOM      8  C   UNL     1       0.158  -2.233  -0.922  0.00  0.00    +0.022 C 
ATOM      9  C   UNL     1      -1.204  -3.440   2.146  0.00  0.00    +0.099 A 
ATOM     10  C   UNL     1      -2.413  -3.940   1.672  0.00  0.00    +0.042 A 
ATOM     11  C   UNL     1      -3.084  -4.895   2.415  0.00  0.00    +0.010 A 
ATOM     12  C   UNL     1      -2.521  -5.318   3.612  0.00  0.00    -0.014 A 
ATOM     13  C   UNL     1      -1.319  -4.779   4.022  0.00  0.00    +0.089 A 
ATOM     14  N   UNL     1      -0.698  -3.873   3.290  0.00  0.00    -0.349 N 
ATOM     15  H   UNL     1       0.148  -3.514   3.600  0.00  0.00    +0.167 HD
ENDBRANCH   1  12
BRANCH   1  16
ATOM     16  N   UNL     1      -2.766  -7.691   4.056  0.00  0.00    -0.308 N 
ATOM     17  C   UNL     1      -3.257  -8.782   4.678  0.00  0.00    +0.237 C 
ATOM     18  O   UNL     1      -4.075  -8.657   5.570  0.00  0.00    -0.271 OA
ATOM     19  H   UNL     1      -2.114  -7.791   3.345  0.00  0.00    +0.149 HD
BRANCH  17  20
ATOM     20  C   UNL     1      -2.806 -10.117   4.279  0.00  0.00    +0.068 C 
ATOM     21  C   UNL     1      -3.297 -11.208   4.901  0.00  0.00    +0.015 C 
BRANCH  21  22
ATOM     22  C   UNL     1      -2.844 -12.550   4.500  0.00  0.00    +0.005 A 
ATOM     23  C   UNL     1      -2.171 -12.732   3.288  0.00  0.00    +0.010 A 
ATOM     24  C   UNL     1      -1.750 -13.992   2.920  0.00  0.00    +0.001 A 
ATOM     25  C   UNL     1      -1.990 -15.075   3.747  0.00  0.00    +0.002 A 
ATOM     26  C   UNL     1      -2.655 -14.903   4.948  0.00  0.00    +0.033 A 
ATOM     27  C   UNL     1      -3.078 -13.648   5.333  0.00  0.00    +0.133 A 
BRANCH  27  28
ATOM     28  N   UNL     1      -3.784 -13.466   6.621  0.00  0.00    +0.057 N 
ATOM     29  O   UNL     1      -3.578 -12.479   7.289  0.00  0.00    -0.126 OA
ATOM     30  O   UNL     1      -4.566 -14.303   7.006  0.00  0.00    -0.126 OA
ENDBRANCH  27  28
ENDBRANCH  21  22
ENDBRANCH  17  20
ENDBRANCH   1  16
TORSDOF 5
