REMARK  Name = ZINC07735893
REMARK  10 active torsions:
REMARK  status: ('A' for Active; 'I' for Inactive)
REMARK    1  A    between atoms: C_1  and  C_2
REMARK    2  A    between atoms: C_2  and  O_3
REMARK    3  A    between atoms: O_3  and  C_4
REMARK    4  A    between atoms: C_4  and  C_6
REMARK    5  A    between atoms: C_7  and  C_28
REMARK    6  A    between atoms: C_13  and  C_17
REMARK    7  A    between atoms: C_17  and  C_19
REMARK    8  A    between atoms: C_17  and  N_20
REMARK    9  A    between atoms: N_20  and  C_21
REMARK   10  A    between atoms: C_24  and  C_27
REMARK                            x       y       z     vdW  Elec       q    Type
REMARK                         _______ _______ _______ _____ _____    ______ ____
ROOT
ATOM      1  C   UNL     1       1.897   5.377   0.013  0.00  0.00    +0.102 A 
ATOM      2  C   UNL     1       2.161   4.038   0.004  0.00  0.00    -0.015 A 
ATOM      3  C   UNL     1       1.108   3.122   0.008  0.00  0.00    +0.076 A 
ATOM      4  C   UNL     1       1.155   1.641  -0.000  0.00  0.00    +0.260 A 
ATOM      5  O   UNL     1       2.220   1.050  -0.014  0.00  0.00    -0.267 OA
ATOM      6  N   UNL     1      -0.011   0.966   0.007  0.00  0.00    -0.312 N 
ATOM      7  H   UNL     1      -0.009  -0.134   0.006  0.00  0.00    +0.170 HD
ATOM      8  C   UNL     1      -1.202   1.613   0.017  0.00  0.00    +0.097 A 
ATOM      9  N   UNL     1      -1.279   2.917   0.031  0.00  0.00    -0.228 NA
ATOM     10  C   UNL     1      -0.192   3.678   0.024  0.00  0.00    +0.116 A 
ATOM     11  S   UNL     1       0.113   5.426   0.030  0.00  0.00    -0.062 S 
ATOM     12  C   UNL     1       3.587   3.550  -0.012  0.00  0.00    +0.046 C 
ENDROOT
BRANCH   1  13
ATOM     13  C   UNL     1       2.842   6.495   0.010  0.00  0.00    +0.346 C 
ATOM     14  O   UNL     1       4.039   6.280  -0.002  0.00  0.00    -0.244 OA
BRANCH  13  15
ATOM     15  O   UNL     1       2.385   7.765   0.021  0.00  0.00    -0.461 OA
BRANCH  15  17
ATOM     16  C   UNL     1       2.677  10.182   0.030  0.00  0.00    +0.048 C 
ATOM     17  C   UNL     1       3.379   8.823   0.017  0.00  0.00    +0.229 C 
ENDBRANCH  15  17
ENDBRANCH  13  15
ENDBRANCH   1  13
BRANCH   8  18
ATOM     18  C   UNL     1      -2.474   0.805   0.018  0.00  0.00    -0.007 C 
ATOM     19  C   UNL     1      -2.455  -0.173   1.195  0.00  0.00    -0.006 C 
BRANCH  18  20
ATOM     20  N   UNL     1      -3.627   1.707   0.149  0.00  0.00    +0.387 N 
ATOM     21  H   UNL     1      -3.805   1.921   1.214  0.00  0.00    -0.085 HD
ATOM     22  H   UNL     1      -3.420   2.646  -0.384  0.00  0.00    -0.085 HD
BRANCH  20  23
ATOM     23  C   UNL     1      -4.838   1.099  -0.418  0.00  0.00    -0.071 C 
ATOM     24  C   UNL     1      -4.884   1.366  -1.924  0.00  0.00    -0.015 C 
ATOM     25  C   UNL     1      -6.145   0.733  -2.515  0.00  0.00    +0.002 C 
ATOM     26  C   UNL     1      -7.381   1.343  -1.851  0.00  0.00    -0.014 C 
ATOM     27  C   UNL     1      -7.335   1.076  -0.345  0.00  0.00    +0.002 C 
ATOM     28  C   UNL     1      -6.074   1.709   0.246  0.00  0.00    -0.015 C 
ATOM     29  C   UNL     1      -7.402   2.852  -2.102  0.00  0.00    +0.007 C 
ENDBRANCH  20  23
ENDBRANCH  18  20
ENDBRANCH   8  18
TORSDOF 6
