REMARK  Name = ZINC37546149
REMARK  6 active torsions:
REMARK  status: ('A' for Active; 'I' for Inactive)
REMARK    1  A    between atoms: C_1  and  C_2
REMARK    2  A    between atoms: C_2  and  C_3
REMARK    3  A    between atoms: C_2  and  N_4
REMARK    4  A    between atoms: C_9  and  C_21
REMARK    5  A    between atoms: C_13  and  C_15
REMARK    6  A    between atoms: C_29  and  C_31
REMARK                            x       y       z     vdW  Elec       q    Type
REMARK                         _______ _______ _______ _____ _____    ______ ____
ROOT
ATOM      1  N   UNL     1      -1.642  -0.552  -1.127  0.00  0.00    -0.297 N 
ATOM      2  C   UNL     1      -1.706  -1.878  -0.898  0.00  0.00    +0.303 C 
ATOM      3  O   UNL     1      -0.839  -2.612  -1.332  0.00  0.00    -0.253 OA
ATOM      4  N   UNL     1      -2.730  -2.392  -0.189  0.00  0.00    -0.278 N 
ATOM      5  C   UNL     1      -3.850  -1.540   0.232  0.00  0.00    +0.122 C 
ATOM      6  C   UNL     1      -4.036  -1.681   1.746  0.00  0.00    +0.093 C 
ATOM      7  C   UNL     1      -4.205  -3.161   2.099  0.00  0.00    +0.016 C 
ATOM      8  C   UNL     1      -2.946  -3.931   1.692  0.00  0.00    +0.028 C 
ATOM      9  C   UNL     1      -2.751  -3.816   0.173  0.00  0.00    +0.108 C 
ATOM     10  H   UNL     1      -2.375   0.023  -0.855  0.00  0.00    +0.150 HD
ENDROOT
BRANCH   6  11
ATOM     11  C   UNL     1      -5.262  -0.918   2.176  0.00  0.00    +0.220 C 
ATOM     12  O   UNL     1      -6.334  -1.481   2.246  0.00  0.00    -0.275 OA
ATOM     13  N   UNL     1      -5.168   0.391   2.484  0.00  0.00    -0.298 N 
ATOM     14  C   UNL     1      -3.902   1.114   2.294  0.00  0.00    +0.126 C 
ATOM     15  C   UNL     1      -4.165   2.334   1.402  0.00  0.00    +0.126 C 
ATOM     16  N   UNL     1      -5.325   3.063   1.932  0.00  0.00    -0.299 N 
ATOM     17  C   UNL     1      -6.590   2.340   2.122  0.00  0.00    +0.126 C 
ATOM     18  C   UNL     1      -6.329   1.122   3.009  0.00  0.00    +0.126 C 
ATOM     19  C   UNL     1      -5.231   4.372   2.239  0.00  0.00    +0.213 C 
ATOM     20  O   UNL     1      -4.211   4.981   1.993  0.00  0.00    -0.276 OA
ATOM     21  C   UNL     1      -6.392   5.079   2.889  0.00  0.00    +0.109 C 
ENDBRANCH   6  11
BRANCH   9  22
ATOM     22  C   UNL     1      -1.444  -4.456  -0.221  0.00  0.00    -0.027 A 
ATOM     23  C   UNL     1      -0.256  -3.973   0.294  0.00  0.00    +0.005 A 
ATOM     24  C   UNL     1       0.943  -4.561  -0.067  0.00  0.00    +0.000 A 
ATOM     25  C   UNL     1       0.952  -5.631  -0.942  0.00  0.00    +0.000 A 
ATOM     26  C   UNL     1      -0.237  -6.114  -1.455  0.00  0.00    +0.000 A 
ATOM     27  C   UNL     1      -1.436  -5.530  -1.091  0.00  0.00    +0.005 A 
ENDBRANCH   9  22
BRANCH   1  29
ATOM     28  C   UNL     1      -0.857   1.332  -2.475  0.00  0.00    +0.027 C 
ATOM     29  C   UNL     1      -0.467   0.023  -1.786  0.00  0.00    +0.068 C 
ATOM     30  C   UNL     1       0.619   0.299  -0.744  0.00  0.00    +0.027 C 
ENDBRANCH   1  29
TORSDOF 3
