REMARK  Name = ZINC45606525
REMARK  7 active torsions:
REMARK  status: ('A' for Active; 'I' for Inactive)
REMARK    1  A    between atoms: C_3  and  C_6
REMARK    2  A    between atoms: C_6  and  N_7
REMARK    3  A    between atoms: N_10  and  C_13
REMARK    4  A    between atoms: C_13  and  C_14
REMARK    5  A    between atoms: N_16  and  C_17
REMARK    6  A    between atoms: C_17  and  C_18
REMARK    7  A    between atoms: C_21  and  C_23
REMARK                            x       y       z     vdW  Elec       q    Type
REMARK                         _______ _______ _______ _____ _____    ______ ____
ROOT
ATOM      1  C   UNL     1       7.752   1.744   4.781  0.00  0.00    +0.227 C 
ATOM      2  O   UNL     1       8.324   1.763   3.712  0.00  0.00    -0.274 OA
ATOM      3  N   UNL     1       8.463   1.776   5.926  0.00  0.00    -0.307 N 
ATOM      4  H   UNL     1       8.005   1.762   6.781  0.00  0.00    +0.149 HD
ENDROOT
BRANCH   1   5
ATOM      5  C   UNL     1       6.247   1.685   4.830  0.00  0.00    +0.180 C 
BRANCH   5   9
ATOM      6  N   UNL     1       4.102   0.606   1.351  0.00  0.00    +0.386 N 
ATOM      7  C   UNL     1       3.748   1.866   2.018  0.00  0.00    -0.063 C 
ATOM      8  C   UNL     1       4.255   1.840   3.461  0.00  0.00    +0.066 C 
ATOM      9  N   UNL     1       5.714   1.659   3.461  0.00  0.00    -0.298 NA
ATOM     10  C   UNL     1       6.085   0.414   2.775  0.00  0.00    +0.066 C 
ATOM     11  C   UNL     1       5.563   0.452   1.337  0.00  0.00    -0.063 C 
ATOM     12  H   UNL     1       3.687  -0.166   1.849  0.00  0.00    -0.081 HD
BRANCH   6  13
ATOM     13  C   UNL     1       3.599   0.625  -0.029  0.00  0.00    -0.003 C 
BRANCH  13  16
ATOM     14  C   UNL     1      -0.016   1.341   0.009  0.00  0.00    +0.041 A 
ATOM     15  C   UNL     1       1.331   1.769  -0.001  0.00  0.00    +0.042 A 
ATOM     16  C   UNL     1       2.092   0.660  -0.014  0.00  0.00    +0.089 A 
ATOM     17  O   UNL     1       1.282  -0.411  -0.012  0.00  0.00    -0.470 OA
ATOM     18  C   UNL     1       0.002  -0.004   0.002  0.00  0.00    +0.195 A 
ENDBRANCH  13  16
ENDBRANCH   6  13
ENDBRANCH   5   9
ENDBRANCH   1   5
BRANCH   3  19
ATOM     19  C   UNL     1       9.926   1.834   5.878  0.00  0.00    +0.178 C 
BRANCH  19  20
ATOM     20  C   UNL     1      10.473   1.861   7.282  0.00  0.00    +0.123 A 
ATOM     21  C   UNL     1      10.807   0.781   8.016  0.00  0.00    +0.047 A 
ATOM     22  C   UNL     1      11.272   1.255   9.259  0.00  0.00    +0.050 A 
ATOM     23  C   UNL     1      11.196   2.611   9.215  0.00  0.00    +0.135 A 
ATOM     24  O   UNL     1      10.715   2.965   8.008  0.00  0.00    -0.458 OA
BRANCH  23  25
ATOM     25  C   UNL     1      11.580   3.538  10.301  0.00  0.00    +0.017 A 
ATOM     26  C   UNL     1      12.078   3.037  11.505  0.00  0.00    +0.013 A 
ATOM     27  C   UNL     1      12.435   3.907  12.514  0.00  0.00    +0.021 A 
ATOM     28  C   UNL     1      12.300   5.273  12.335  0.00  0.00    +0.041 A 
ATOM     29  C   UNL     1      11.806   5.775  11.143  0.00  0.00    +0.021 A 
ATOM     30  C   UNL     1      11.451   4.916  10.124  0.00  0.00    +0.013 A 
ATOM     31 CL   UNL     1      12.751   6.361  13.611  0.00  0.00    -0.084 Cl
ENDBRANCH  23  25
ENDBRANCH  19  20
ENDBRANCH   3  19
TORSDOF 7
