REMARK  Name = ZINC37690501
REMARK  6 active torsions:
REMARK  status: ('A' for Active; 'I' for Inactive)
REMARK    1  A    between atoms: C_1  and  C_2
REMARK    2  A    between atoms: C_2  and  C_5
REMARK    3  A    between atoms: N_3  and  O_4
REMARK    4  A    between atoms: C_8  and  O_11
REMARK    5  A    between atoms: O_11  and  C_12
REMARK    6  A    between atoms: C_17  and  O_19
REMARK                            x       y       z     vdW  Elec       q    Type
REMARK                         _______ _______ _______ _____ _____    ______ ____
ROOT
ATOM      1  C   UNL     1      -0.021  -0.737  -1.278  0.00  0.00    -0.001 A 
ATOM      2  C   UNL     1      -0.258  -0.054  -2.474  0.00  0.00    +0.013 A 
ATOM      3  C   UNL     1      -0.252  -0.740  -3.669  0.00  0.00    +0.046 A 
ATOM      4  C   UNL     1      -0.011  -2.108  -3.686  0.00  0.00    +0.121 A 
ATOM      5  C   UNL     1       0.226  -2.790  -2.500  0.00  0.00    +0.046 A 
ATOM      6  C   UNL     1       0.227  -2.111  -1.301  0.00  0.00    +0.013 A 
ENDROOT
BRANCH   1   8
ATOM      7  C   UNL     1      -0.294   1.476   0.025  0.00  0.00    +0.069 C 
ATOM      8  C   UNL     1      -0.026  -0.007   0.004  0.00  0.00    +0.084 C 
ATOM      9  N   UNL     1       0.199  -0.640   1.109  0.00  0.00    -0.092 NA
BRANCH   9  10
ATOM     10  O   UNL     1       0.194   0.061   2.340  0.00  0.00    -0.409 OA
ATOM     11  H   UNL     1       0.372  -0.496   3.110  0.00  0.00    +0.328 HD
ENDBRANCH   9  10
ENDBRANCH   1   8
BRANCH   4  12
ATOM     12  O   UNL     1      -0.006  -2.780  -4.867  0.00  0.00    -0.486 OA
BRANCH  12  13
ATOM     13  C   UNL     1      -0.133  -2.000  -6.058  0.00  0.00    +0.202 C 
ATOM     14  C   UNL     1      -1.624  -1.774  -6.384  0.00  0.00    +0.047 C 
ATOM     15  C   UNL     1      -1.689  -1.845  -7.930  0.00  0.00    +0.006 C 
ATOM     16  C   UNL     1      -0.678  -2.971  -8.263  0.00  0.00    +0.035 C 
ATOM     17  C   UNL     1       0.469  -2.761  -7.252  0.00  0.00    +0.155 C 
BRANCH  17  18
ATOM     18  O   UNL     1       0.979  -4.024  -6.821  0.00  0.00    -0.388 OA
ATOM     19  H   UNL     1       1.373  -4.551  -7.529  0.00  0.00    +0.210 HD
ENDBRANCH  17  18
ENDBRANCH  12  13
ENDBRANCH   4  12
TORSDOF 5
