REMARK  Name = ZINC40230155
REMARK  6 active torsions:
REMARK  status: ('A' for Active; 'I' for Inactive)
REMARK    1  A    between atoms: C_1  and  C_2
REMARK    2  A    between atoms: C_5  and  C_11
REMARK    3  A    between atoms: C_7  and  N_8
REMARK    4  A    between atoms: C_11  and  C_13
REMARK    5  A    between atoms: C_11  and  N_14
REMARK    6  A    between atoms: N_14  and  C_15
REMARK                            x       y       z     vdW  Elec       q    Type
REMARK                         _______ _______ _______ _____ _____    ______ ____
ROOT
ATOM      1  C   UNL     1       0.578  -4.220  -0.099  0.00  0.00    +0.098 C 
ATOM      2  C   UNL     1       1.993  -4.445  -0.637  0.00  0.00    +0.033 C 
ENDROOT
BRANCH   1   7
ATOM      3  C   UNL     1      -0.537   1.447   0.088  0.00  0.00    +0.046 C 
ATOM      4  C   UNL     1      -0.246  -0.031   0.039  0.00  0.00    -0.020 A 
ATOM      5  C   UNL     1      -0.347  -0.716  -1.157  0.00  0.00    +0.006 A 
ATOM      6  C   UNL     1      -0.080  -2.071  -1.202  0.00  0.00    +0.006 A 
ATOM      7  C   UNL     1       0.288  -2.742  -0.051  0.00  0.00    -0.025 A 
ATOM      8  C   UNL     1       0.390  -2.057   1.145  0.00  0.00    +0.038 A 
ATOM      9  C   UNL     1       0.127  -0.700   1.190  0.00  0.00    +0.129 A 
BRANCH   9  10
ATOM     10  N   UNL     1       0.241   0.035   2.470  0.00  0.00    +0.057 N 
ATOM     11  O   UNL     1       0.674   1.163   2.482  0.00  0.00    -0.126 OA
ATOM     12  O   UNL     1      -0.099  -0.494   3.502  0.00  0.00    -0.126 OA
ENDBRANCH   9  10
ENDBRANCH   1   7
BRANCH   1  13
ATOM     13  N   UNL     1      -0.390  -4.878  -0.981  0.00  0.00    -0.335 N 
ATOM     14  H   UNL     1      -0.826  -4.374  -1.685  0.00  0.00    +0.147 HD
BRANCH  13  15
ATOM     15  C   UNL     1      -0.683  -6.234  -0.807  0.00  0.00    +0.066 A 
ATOM     16  C   UNL     1      -0.063  -6.957   0.204  0.00  0.00    +0.026 A 
ATOM     17  C   UNL     1      -0.355  -8.296   0.375  0.00  0.00    +0.005 A 
ATOM     18  C   UNL     1      -1.264  -8.920  -0.460  0.00  0.00    +0.041 A 
ATOM     19  C   UNL     1      -1.885  -8.205  -1.470  0.00  0.00    +0.160 A 
ATOM     20  C   UNL     1      -1.601  -6.861  -1.642  0.00  0.00    +0.179 A 
ATOM     21  F   UNL     1      -2.211  -6.160  -2.623  0.00  0.00    -0.201 F 
ATOM     22  F   UNL     1      -2.773  -8.818  -2.284  0.00  0.00    -0.202 F 
ENDBRANCH  13  15
ENDBRANCH   1  13
TORSDOF 4
