REMARK  Name = ZINC49569330
REMARK  2 active torsions:
REMARK  status: ('A' for Active; 'I' for Inactive)
REMARK    1  A    between atoms: C_4  and  C_7
REMARK    2  A    between atoms: N_11  and  C_12
REMARK                            x       y       z     vdW  Elec       q    Type
REMARK                         _______ _______ _______ _____ _____    ______ ____
ROOT
ATOM      1  C   UNL     1       3.742  -0.862  -0.558  0.00  0.00    +0.165 A 
ATOM      2  N   UNL     1       4.942  -0.341  -0.664  0.00  0.00    -0.128 NA
ATOM      3  N   UNL     1       5.778  -1.017   0.039  0.00  0.00    -0.121 NA
ATOM      4  C   UNL     1       5.163  -2.013   0.638  0.00  0.00    +0.203 A 
ATOM      5  N   UNL     1       3.846  -1.946   0.283  0.00  0.00    -0.300 N 
ATOM      6  S   UNL     1       5.899  -3.207   1.704  0.00  0.00    -0.009 SA
ENDROOT
BRANCH   5   7
ATOM      7  C   UNL     1       2.768  -2.843   0.707  0.00  0.00    +0.076 C 
ATOM      8  C   UNL     1       3.016  -3.342   2.146  0.00  0.00    +0.005 C 
ATOM      9  C   UNL     1       2.474  -4.781   2.154  0.00  0.00    -0.076 C 
ATOM     10  N   UNL     1       2.372  -5.230   0.760  0.00  0.00    +0.383 N 
ATOM     11  C   UNL     1       2.769  -4.127  -0.143  0.00  0.00    -0.045 C 
ATOM     12  C   UNL     1       4.229  -4.444  -0.550  0.00  0.00    -0.015 C 
ATOM     13  C   UNL     1       4.217  -5.993  -0.621  0.00  0.00    -0.020 C 
ATOM     14  C   UNL     1       3.256  -6.384   0.526  0.00  0.00    -0.078 C 
ATOM     15  H   UNL     1       1.418  -5.488   0.557  0.00  0.00    -0.081 HD
ENDBRANCH   5   7
BRANCH   1  19
ATOM     16  C   UNL     1       0.204   0.541  -2.444  0.00  0.00    +0.000 A 
ATOM     17  C   UNL     1       1.291   1.385  -2.304  0.00  0.00    +0.001 A 
ATOM     18  C   UNL     1       2.443   0.936  -1.692  0.00  0.00    +0.011 A 
ATOM     19  C   UNL     1       2.511  -0.374  -1.214  0.00  0.00    +0.019 A 
ATOM     20  C   UNL     1       1.410  -1.220  -1.359  0.00  0.00    +0.011 A 
ATOM     21  C   UNL     1       0.264  -0.758  -1.972  0.00  0.00    +0.001 A 
ENDBRANCH   1  19
TORSDOF 2
