REMARK  Name = ZINC52607946
REMARK  11 active torsions:
REMARK  status: ('A' for Active; 'I' for Inactive)
REMARK    1  A    between atoms: C_1  and  N_2
REMARK    2  A    between atoms: N_2  and  C_3
REMARK    3  A    between atoms: C_3  and  C_5
REMARK    4  A    between atoms: C_3  and  C_15
REMARK    5  A    between atoms: C_5  and  C_6
REMARK    6  A    between atoms: N_17  and  C_18
REMARK    7  A    between atoms: C_18  and  C_19
REMARK    8  A    between atoms: C_19  and  C_20
REMARK    9  A    between atoms: C_20  and  C_21
REMARK   10  A    between atoms: C_21  and  C_22
REMARK   11  A    between atoms: C_22  and  N_23
REMARK                            x       y       z     vdW  Elec       q    Type
REMARK                         _______ _______ _______ _____ _____    ______ ____
ROOT
ATOM      1  C   UNL     1       0.015  -0.688   1.270  0.00  0.00    +0.167 C 
ENDROOT
BRANCH   1   3
ATOM      2  C   UNL     1      -0.736   1.374  -0.004  0.00  0.00    +0.134 C 
ATOM      3  N   UNL     1      -0.269  -0.015   0.001  0.00  0.00    -0.277 N 
ATOM      4  C   UNL     1      -0.102  -0.673  -1.163  0.00  0.00    +0.305 C 
ATOM      5  O   UNL     1       0.068  -1.877  -1.162  0.00  0.00    -0.252 OA
ATOM      6  N   UNL     1      -0.122   0.003  -2.329  0.00  0.00    -0.285 N 
ATOM      7  C   UNL     1      -0.350  -0.701  -3.598  0.00  0.00    +0.110 C 
ATOM      8  C   UNL     1       0.795  -0.365  -4.560  0.00  0.00    +0.030 C 
ATOM      9  C   UNL     1       0.924   1.151  -4.684  0.00  0.00    -0.001 C 
ATOM     10  C   UNL     1      -0.375   1.744  -5.260  0.00  0.00    +0.016 C 
ATOM     11  C   UNL     1      -0.077   1.779  -6.775  0.00  0.00    +0.036 C 
ATOM     12  C   UNL     1       1.431   1.867  -6.881  0.00  0.00    -0.044 A 
ATOM     13  C   UNL     1       2.006   1.505  -5.676  0.00  0.00    -0.038 A 
ATOM     14  C   UNL     1       3.384   1.512  -5.542  0.00  0.00    +0.004 A 
ATOM     15  C   UNL     1       4.185   1.879  -6.606  0.00  0.00    +0.000 A 
ATOM     16  C   UNL     1       3.610   2.240  -7.810  0.00  0.00    +0.000 A 
ATOM     17  C   UNL     1       2.236   2.234  -7.946  0.00  0.00    +0.004 A 
ATOM     18  C   UNL     1       1.224   1.778  -3.325  0.00  0.00    +0.030 C 
ATOM     19  C   UNL     1       0.077   1.459  -2.353  0.00  0.00    +0.110 C 
ENDBRANCH   1   3
BRANCH   1  20
ATOM     20  C   UNL     1       1.096   0.061   2.006  0.00  0.00    +0.234 C 
ATOM     21  O   UNL     1       1.581   1.060   1.517  0.00  0.00    -0.274 OA
ATOM     22  N   UNL     1       1.523  -0.378   3.206  0.00  0.00    -0.314 N 
ATOM     23  H   UNL     1       1.135  -1.176   3.597  0.00  0.00    +0.149 HD
BRANCH  22  24
ATOM     24  C   UNL     1       2.574   0.351   3.921  0.00  0.00    +0.104 C 
BRANCH  24  25
ATOM     25  C   UNL     1       2.871  -0.352   5.247  0.00  0.00    +0.019 C 
BRANCH  25  26
ATOM     26  C   UNL     1       3.969   0.409   5.993  0.00  0.00    -0.000 C 
BRANCH  26  27
ATOM     27  C   UNL     1       4.265  -0.294   7.319  0.00  0.00    -0.019 C 
BRANCH  27  28
ATOM     28  C   UNL     1       5.363   0.467   8.065  0.00  0.00    -0.086 C 
BRANCH  28  29
ATOM     29  N   UNL     1       5.648  -0.208   9.339  0.00  0.00    +0.378 N 
ATOM     30  H   UNL     1       6.372   0.293   9.831  0.00  0.00    -0.090 HD
ATOM     31  H   UNL     1       4.811  -0.230   9.902  0.00  0.00    -0.090 HD
ATOM     32  H   UNL     1       5.956  -1.152   9.158  0.00  0.00    -0.090 HD
ENDBRANCH  28  29
ENDBRANCH  27  28
ENDBRANCH  26  27
ENDBRANCH  25  26
ENDBRANCH  24  25
ENDBRANCH  22  24
ENDBRANCH   1  20
BRANCH   1  33
ATOM     33  C   UNL     1      -1.254  -0.721   2.125  0.00  0.00    +0.065 C 
BRANCH  33  34
ATOM     34  C   UNL     1      -2.295  -1.574   1.446  0.00  0.00    -0.039 C 
ATOM     35  C   UNL     1      -2.548  -2.883   1.673  0.00  0.00    -0.001 A 
ATOM     36  C   UNL     1      -1.952  -3.868   2.583  0.00  0.00    +0.010 A 
ATOM     37  C   UNL     1      -2.428  -5.133   2.583  0.00  0.00    +0.001 A 
ATOM     38  C   UNL     1      -3.474  -5.528   1.737  0.00  0.00    +0.002 A 
ATOM     39  C   UNL     1      -4.072  -4.680   0.873  0.00  0.00    +0.026 A 
ATOM     40  C   UNL     1      -3.651  -3.324   0.789  0.00  0.00    +0.043 A 
ATOM     41  N   UNL     1      -4.064  -2.327   0.045  0.00  0.00    -0.380 N 
ATOM     42  C   UNL     1      -3.272  -1.137   0.378  0.00  0.00    +0.144 C 
ATOM     43  H   UNL     1      -4.776  -2.367  -0.612  0.00  0.00    +0.160 HD
ENDBRANCH  33  34
ENDBRANCH   1  33
TORSDOF 10
