REMARK  Name = ZINC05537770
REMARK  5 active torsions:
REMARK  status: ('A' for Active; 'I' for Inactive)
REMARK    1  A    between atoms: C_1  and  C_2
REMARK    2  A    between atoms: N_8  and  C_13
REMARK    3  A    between atoms: C_13  and  C_14
REMARK    4  A    between atoms: C_21  and  C_24
REMARK    5  A    between atoms: C_21  and  C_25
REMARK                            x       y       z     vdW  Elec       q    Type
REMARK                         _______ _______ _______ _____ _____    ______ ____
ROOT
ATOM      1  C   UNL     1      -4.760  -0.152   1.516  0.00  0.00    +0.066 C 
ATOM      2  C   UNL     1      -3.457  -0.501   2.190  0.00  0.00    +0.046 A 
ATOM      3  C   UNL     1      -3.476  -0.967   3.499  0.00  0.00    +0.003 A 
ATOM      4  C   UNL     1      -2.287  -1.290   4.116  0.00  0.00    -0.022 A 
ATOM      5  C   UNL     1      -1.105  -1.127   3.392  0.00  0.00    +0.087 A 
ATOM      6  C   UNL     1      -1.162  -0.643   2.071  0.00  0.00    +0.148 A 
ATOM      7  N   UNL     1      -2.331  -0.356   1.523  0.00  0.00    -0.234 NA
ATOM      8  N   UNL     1       0.022  -0.500   1.381  0.00  0.00    -0.312 N 
ATOM      9  C   UNL     1       1.196  -0.805   1.962  0.00  0.00    +0.205 A 
ATOM     10  N   UNL     1       1.300  -1.251   3.183  0.00  0.00    -0.199 NA
ATOM     11  C   UNL     1       0.216  -1.440   3.961  0.00  0.00    +0.283 A 
ATOM     12  O   UNL     1       0.327  -1.857   5.101  0.00  0.00    -0.265 OA
ATOM     13  C   UNL     1      -2.245  -1.812   5.526  0.00  0.00    +0.071 C 
ATOM     14  C   UNL     1      -3.572  -1.512   6.226  0.00  0.00    +0.068 C 
ATOM     15  O   UNL     1      -4.643  -1.928   5.370  0.00  0.00    -0.369 OA
ATOM     16  C   UNL     1      -4.793  -1.104   4.215  0.00  0.00    +0.197 C 
ATOM     17  C   UNL     1      -3.684  -0.011   6.496  0.00  0.00    +0.041 C 
ATOM     18  C   UNL     1      -3.644  -2.279   7.549  0.00  0.00    +0.041 C 
ENDROOT
BRANCH   8  19
ATOM     19  C   UNL     1       0.002  -0.004   0.002  0.00  0.00    +0.159 C 
BRANCH  19  20
ATOM     20  C   UNL     1      -0.018   1.503   0.010  0.00  0.00    -0.028 A 
ATOM     21  C   UNL     1      -1.225   2.178   0.020  0.00  0.00    +0.005 A 
ATOM     22  C   UNL     1      -1.244   3.560   0.032  0.00  0.00    +0.000 A 
ATOM     23  C   UNL     1      -0.056   4.267   0.025  0.00  0.00    +0.000 A 
ATOM     24  C   UNL     1       1.151   3.592   0.010  0.00  0.00    +0.000 A 
ATOM     25  C   UNL     1       1.169   2.210   0.003  0.00  0.00    +0.005 A 
ENDBRANCH  19  20
ENDBRANCH   8  19
TORSDOF 2
