REMARK  Name = ZINC39325471
REMARK  9 active torsions:
REMARK  status: ('A' for Active; 'I' for Inactive)
REMARK    1  A    between atoms: C_1  and  C_2
REMARK    2  A    between atoms: C_2  and  O_3
REMARK    3  A    between atoms: O_3  and  C_4
REMARK    4  A    between atoms: C_11  and  C_16
REMARK    5  A    between atoms: C_16  and  N_17
REMARK    6  A    between atoms: N_17  and  C_18
REMARK    7  A    between atoms: N_17  and  S_23
REMARK    8  A    between atoms: S_23  and  C_26
REMARK    9  A    between atoms: C_29  and  C_32
REMARK                            x       y       z     vdW  Elec       q    Type
REMARK                         _______ _______ _______ _____ _____    ______ ____
ROOT
ATOM      1  C   UNL     1       4.234  -6.274  -3.865  0.00  0.00    +0.126 C 
ENDROOT
BRANCH   1   9
ATOM      2  C   UNL     1       8.604  -2.462  -3.187  0.00  0.00    +0.121 A 
ATOM      3  C   UNL     1       9.357  -3.076  -4.195  0.00  0.00    +0.047 A 
ATOM      4  C   UNL     1       9.035  -4.289  -4.713  0.00  0.00    +0.027 A 
ATOM      5  C   UNL     1       7.907  -4.990  -4.246  0.00  0.00    +0.041 A 
ATOM      6  N   UNL     1       7.602  -6.180  -4.764  0.00  0.00    -0.284 N 
ATOM      7  C   UNL     1       6.559  -6.892  -4.373  0.00  0.00    +0.225 C 
ATOM      8  O   UNL     1       6.332  -7.973  -4.883  0.00  0.00    -0.275 OA
ATOM      9  C   UNL     1       5.649  -6.358  -3.290  0.00  0.00    +0.114 C 
ATOM     10  C   UNL     1       5.991  -5.005  -2.698  0.00  0.00    -0.003 C 
ATOM     11  C   UNL     1       7.094  -4.370  -3.186  0.00  0.00    -0.004 A 
ATOM     12  C   UNL     1       7.498  -3.063  -2.665  0.00  0.00    +0.055 A 
ATOM     13  H   UNL     1       8.173  -6.541  -5.460  0.00  0.00    +0.155 HD
BRANCH   2  14
ATOM     14  O   UNL     1       8.986  -1.246  -2.716  0.00  0.00    -0.492 OA
BRANCH  14  16
ATOM     15  C   UNL     1      10.425   0.694  -2.646  0.00  0.00    +0.048 C 
ATOM     16  C   UNL     1      10.153  -0.662  -3.299  0.00  0.00    +0.225 C 
ENDBRANCH  14  16
ENDBRANCH   2  14
ENDBRANCH   1   9
BRANCH   1  17
ATOM     17  N   UNL     1       3.830  -7.591  -4.364  0.00  0.00    -0.173 NA
BRANCH  17  18
ATOM     18  C   UNL     1       3.593  -7.791  -5.795  0.00  0.00    +0.080 C 
ATOM     19  C   UNL     1       4.784  -7.246  -6.610  0.00  0.00    +0.020 C 
ATOM     20  C   UNL     1       4.131  -6.630  -7.872  0.00  0.00    +0.002 C 
ATOM     21  C   UNL     1       2.837  -5.991  -7.310  0.00  0.00    +0.002 C 
ATOM     22  C   UNL     1       2.354  -6.993  -6.241  0.00  0.00    +0.020 C 
ENDBRANCH  17  18
BRANCH  17  23
ATOM     23  S   UNL     1       3.642  -8.854  -3.309  0.00  0.00    +0.061 S 
ATOM     24  O   UNL     1       4.007 -10.031  -4.016  0.00  0.00    -0.153 OA
ATOM     25  O   UNL     1       4.274  -8.467  -2.096  0.00  0.00    -0.153 OA
BRANCH  23  26
ATOM     26  C   UNL     1       1.921  -8.989  -2.960  0.00  0.00    +0.106 A 
ATOM     27  C   UNL     1       1.356  -8.222  -1.958  0.00  0.00    +0.029 A 
ATOM     28  C   UNL     1       0.006  -8.329  -1.683  0.00  0.00    +0.005 A 
ATOM     29  C   UNL     1      -0.781  -9.202  -2.412  0.00  0.00    -0.050 A 
ATOM     30  C   UNL     1      -0.216  -9.968  -3.414  0.00  0.00    +0.005 A 
ATOM     31  C   UNL     1       1.133  -9.859  -3.691  0.00  0.00    +0.029 A 
ATOM     32  C   UNL     1      -2.253  -9.318  -2.112  0.00  0.00    +0.044 C 
ENDBRANCH  23  26
ENDBRANCH  17  23
ENDBRANCH   1  17
TORSDOF 7
