REMARK  Name = ZINC62413835
REMARK  7 active torsions:
REMARK  status: ('A' for Active; 'I' for Inactive)
REMARK    1  A    between atoms: C_1  and  C_2
REMARK    2  A    between atoms: C_4  and  C_5
REMARK    3  A    between atoms: C_8  and  C_10
REMARK    4  A    between atoms: C_10  and  N_11
REMARK    5  A    between atoms: N_11  and  C_12
REMARK    6  A    between atoms: N_17  and  C_18
REMARK    7  A    between atoms: C_21  and  N_25
REMARK                            x       y       z     vdW  Elec       q    Type
REMARK                         _______ _______ _______ _____ _____    ______ ____
ROOT
ATOM      1  N   UNL     1       4.845   1.722   3.585  0.00  0.00    -0.275 N 
ATOM      2  C   UNL     1       4.929   1.407   4.892  0.00  0.00    +0.307 C 
ATOM      3  O   UNL     1       3.924   1.381   5.577  0.00  0.00    -0.252 OA
ATOM      4  N   UNL     1       6.126   1.121   5.441  0.00  0.00    -0.269 N 
ATOM      5  H   UNL     1       6.938   1.248   4.927  0.00  0.00    +0.156 HD
ENDROOT
BRANCH   4   6
ATOM      6  C   UNL     1       6.197   0.641   6.755  0.00  0.00    +0.038 A 
ATOM      7  C   UNL     1       5.162   0.899   7.645  0.00  0.00    +0.025 A 
ATOM      8  C   UNL     1       5.231   0.426   8.940  0.00  0.00    +0.032 A 
ATOM      9  C   UNL     1       6.334  -0.309   9.354  0.00  0.00    +0.102 A 
ATOM     10  C   UNL     1       7.370  -0.568   8.463  0.00  0.00    +0.150 A 
ATOM     11  C   UNL     1       7.298  -0.098   7.165  0.00  0.00    +0.063 A 
ATOM     12  F   UNL     1       8.444  -1.283   8.865  0.00  0.00    -0.203 F 
BRANCH   9  13
ATOM     13  N   UNL     1       6.404  -0.789  10.671  0.00  0.00    -0.218 N 
ATOM     14  C   UNL     1       7.404  -1.506  11.217  0.00  0.00    +0.225 A 
ATOM     15  N   UNL     1       7.090  -1.757  12.462  0.00  0.00    -0.222 NA
ATOM     16  C   UNL     1       5.905  -1.220  12.747  0.00  0.00    +0.245 A 
ATOM     17  N   UNL     1       5.447  -0.612  11.683  0.00  0.00    -0.153 NA
ENDBRANCH   9  13
ENDBRANCH   4   6
BRANCH   1  18
ATOM     18  C   UNL     1       6.037   1.649   2.736  0.00  0.00    +0.078 C 
ATOM     19  C   UNL     1       5.859   1.929   1.242  0.00  0.00    +0.024 C 
ATOM     20  C   UNL     1       6.118   0.501   1.728  0.00  0.00    +0.024 C 
ENDBRANCH   1  18
BRANCH   1  21
ATOM     21  C   UNL     1       3.562   2.136   3.011  0.00  0.00    +0.183 C 
BRANCH  21  25
ATOM     22  C   UNL     1       2.111  -0.668   1.178  0.00  0.00    +0.109 A 
ATOM     23  C   UNL     1       1.503  -0.851   2.364  0.00  0.00    +0.045 A 
ATOM     24  C   UNL     1       1.961   0.175   3.221  0.00  0.00    +0.046 A 
ATOM     25  C   UNL     1       2.822   0.924   2.508  0.00  0.00    +0.123 A 
ATOM     26  O   UNL     1       2.913   0.405   1.273  0.00  0.00    -0.463 OA
BRANCH  22  30
ATOM     27  C   UNL     1       1.096   0.650  -1.236  0.00  0.00    +0.008 C 
ATOM     28  C   UNL     1       1.399  -0.848  -1.312  0.00  0.00    -0.003 C 
ATOM     29  C   UNL     1       2.865  -1.277  -1.231  0.00  0.00    +0.015 C 
ATOM     30  C   UNL     1       1.928  -1.526  -0.047  0.00  0.00    +0.058 C 
ENDBRANCH  22  30
ENDBRANCH  21  25
ENDBRANCH   1  21
TORSDOF 6
