REMARK  Name = ZINC47439321
REMARK  3 active torsions:
REMARK  status: ('A' for Active; 'I' for Inactive)
REMARK    1  A    between atoms: C_1  and  C_2
REMARK    2  A    between atoms: C_12  and  C_14
REMARK    3  A    between atoms: N_19  and  C_21
REMARK                            x       y       z     vdW  Elec       q    Type
REMARK                         _______ _______ _______ _____ _____    ______ ____
ROOT
ATOM      1  C   UNL     1       1.623  -1.083   3.261  0.00  0.00    +0.147 A 
ATOM      2  C   UNL     1       2.243  -0.215   4.192  0.00  0.00    +0.040 A 
ATOM      3  C   UNL     1       2.553  -0.708   5.426  0.00  0.00    +0.074 A 
ATOM      4  C   UNL     1       2.235  -2.055   5.699  0.00  0.00    +0.272 A 
ATOM      5  O   UNL     1       2.494  -2.538   6.789  0.00  0.00    -0.266 OA
ATOM      6  N   UNL     1       1.645  -2.805   4.749  0.00  0.00    -0.196 N 
ATOM      7  N   UNL     1       1.354  -2.327   3.594  0.00  0.00    -0.159 NA
ENDROOT
BRANCH   1  18
ATOM      8  C   UNL     1       1.611   1.061  -0.651  0.00  0.00    +0.029 C 
ATOM      9  C   UNL     1       1.826  -0.448  -0.516  0.00  0.00    +0.083 C 
ATOM     10  C   UNL     1       3.073  -0.881  -1.304  0.00  0.00    +0.059 C 
ATOM     11  C   UNL     1       4.000  -1.463  -0.260  0.00  0.00    -0.024 A 
ATOM     12  C   UNL     1       5.263  -2.012  -0.374  0.00  0.00    +0.005 A 
ATOM     13  C   UNL     1       5.918  -2.485   0.748  0.00  0.00    +0.000 A 
ATOM     14  C   UNL     1       5.306  -2.408   1.986  0.00  0.00    +0.002 A 
ATOM     15  C   UNL     1       4.046  -1.861   2.104  0.00  0.00    +0.024 A 
ATOM     16  C   UNL     1       3.378  -1.381   0.976  0.00  0.00    +0.040 A 
ATOM     17  N   UNL     1       2.110  -0.798   0.878  0.00  0.00    -0.263 N 
ATOM     18  C   UNL     1       1.272  -0.588   1.913  0.00  0.00    +0.271 C 
ATOM     19  O   UNL     1       0.227   0.008   1.738  0.00  0.00    -0.268 OA
ENDBRANCH   1  18
BRANCH   6  20
ATOM     20  C   UNL     1       1.334  -4.139   5.031  0.00  0.00    +0.069 A 
ATOM     21  C   UNL     1       0.071  -4.637   4.735  0.00  0.00    +0.031 A 
ATOM     22  C   UNL     1      -0.233  -5.955   5.014  0.00  0.00    +0.040 A 
ATOM     23  C   UNL     1       0.720  -6.780   5.588  0.00  0.00    +0.124 A 
ATOM     24  C   UNL     1       1.980  -6.286   5.884  0.00  0.00    +0.040 A 
ATOM     25  C   UNL     1       2.290  -4.970   5.602  0.00  0.00    +0.031 A 
ATOM     26  F   UNL     1       0.420  -8.069   5.860  0.00  0.00    -0.205 F 
ENDBRANCH   6  20
TORSDOF 2
