REMARK  Name = ZINC62005121
REMARK  7 active torsions:
REMARK  status: ('A' for Active; 'I' for Inactive)
REMARK    1  A    between atoms: C_1  and  C_2
REMARK    2  A    between atoms: C_3  and  C_14
REMARK    3  A    between atoms: N_6  and  C_7
REMARK    4  A    between atoms: C_14  and  C_15
REMARK    5  A    between atoms: C_14  and  N_16
REMARK    6  A    between atoms: N_19  and  C_20
REMARK    7  A    between atoms: C_20  and  C_21
REMARK                            x       y       z     vdW  Elec       q    Type
REMARK                         _______ _______ _______ _____ _____    ______ ____
ROOT
ATOM      1  C   UNL     1      -0.006  -0.327  -2.527  0.00  0.00    +0.105 C 
ATOM      2  C   UNL     1       1.425  -0.029  -2.980  0.00  0.00    +0.033 C 
ENDROOT
BRANCH   1   5
ATOM      3  C   UNL     1      -0.018   1.503   0.010  0.00  0.00    +0.066 C 
ATOM      4  C   UNL     1       0.002  -0.004   0.002  0.00  0.00    +0.047 A 
ATOM      5  C   UNL     1       0.008  -0.796  -1.095  0.00  0.00    +0.013 A 
ATOM      6  C   UNL     1       0.028  -2.127  -0.665  0.00  0.00    +0.140 A 
ATOM      7  N   UNL     1       0.035  -2.135   0.643  0.00  0.00    -0.174 NA
ATOM      8  N   UNL     1       0.024  -0.807   1.089  0.00  0.00    -0.237 N 
BRANCH   8   9
ATOM      9  C   UNL     1       0.032  -0.386   2.427  0.00  0.00    +0.066 A 
ATOM     10  C   UNL     1       0.704   0.774   2.786  0.00  0.00    +0.030 A 
ATOM     11  C   UNL     1       0.711   1.188   4.104  0.00  0.00    +0.040 A 
ATOM     12  C   UNL     1       0.048   0.446   5.067  0.00  0.00    +0.124 A 
ATOM     13  C   UNL     1      -0.624  -0.711   4.710  0.00  0.00    +0.040 A 
ATOM     14  C   UNL     1      -0.638  -1.125   3.393  0.00  0.00    +0.030 A 
ATOM     15  F   UNL     1       0.056   0.852   6.355  0.00  0.00    -0.205 F 
ENDBRANCH   8   9
ENDBRANCH   1   5
BRANCH   1  16
ATOM     16  N   UNL     1      -0.579  -1.373  -3.378  0.00  0.00    -0.293 N 
ATOM     17  C   UNL     1      -1.156  -1.046  -4.551  0.00  0.00    +0.300 C 
ATOM     18  O   UNL     1      -1.201   0.117  -4.904  0.00  0.00    -0.253 OA
ATOM     19  N   UNL     1      -1.683  -2.008  -5.334  0.00  0.00    -0.294 N 
ATOM     20  H   UNL     1      -0.543  -2.301  -3.097  0.00  0.00    +0.151 HD
ATOM     21  H   UNL     1      -1.647  -2.936  -5.053  0.00  0.00    +0.151 HD
BRANCH  19  22
ATOM     22  C   UNL     1      -2.310  -1.653  -6.610  0.00  0.00    +0.162 C 
BRANCH  22  23
ATOM     23  C   UNL     1      -2.816  -2.901  -7.286  0.00  0.00    +0.078 A 
ATOM     24  C   UNL     1      -4.068  -3.382  -7.213  0.00  0.00    +0.118 A 
ATOM     25  N   UNL     1      -4.120  -4.545  -7.976  0.00  0.00    -0.300 N 
ATOM     26  C   UNL     1      -5.045  -5.505  -8.327  0.00  0.00    +0.100 A 
ATOM     27  C   UNL     1      -4.706  -6.523  -9.116  0.00  0.00    +0.067 A 
ATOM     28  S   UNL     1      -2.981  -6.186  -9.433  0.00  0.00    -0.058 S 
ATOM     29  C   UNL     1      -2.853  -4.694  -8.475  0.00  0.00    +0.178 A 
ATOM     30  N   UNL     1      -2.093  -3.719  -8.067  0.00  0.00    -0.225 NA
ENDBRANCH  22  23
ENDBRANCH  19  22
ENDBRANCH   1  16
TORSDOF 5
