REMARK  Name = ZINC00803052
REMARK  10 active torsions:
REMARK  status: ('A' for Active; 'I' for Inactive)
REMARK    1  A    between atoms: C_1  and  C_2
REMARK    2  A    between atoms: C_2  and  O_3
REMARK    3  A    between atoms: O_3  and  C_4
REMARK    4  A    between atoms: C_6  and  C_12
REMARK    5  A    between atoms: C_9  and  O_10
REMARK    6  A    between atoms: C_14  and  C_21
REMARK    7  A    between atoms: C_15  and  C_20
REMARK    8  A    between atoms: C_21  and  O_23
REMARK    9  A    between atoms: O_23  and  C_24
REMARK   10  A    between atoms: C_24  and  C_25
REMARK                            x       y       z     vdW  Elec       q    Type
REMARK                         _______ _______ _______ _____ _____    ______ ____
ROOT
ATOM      1  C   UNL     1       1.247  -0.532  -0.666  0.00  0.00    +0.144 C 
ATOM      2  C   UNL     1       2.180   0.624  -0.367  0.00  0.00    +0.078 C 
ATOM      3  C   UNL     1       1.635   1.763   0.112  0.00  0.00    +0.021 C 
ATOM      4  N   UNL     1       0.289   1.868   0.319  0.00  0.00    -0.273 N 
ATOM      5  C   UNL     1      -0.579   0.879   0.072  0.00  0.00    +0.304 C 
ATOM      6  O   UNL     1      -1.761   1.069   0.284  0.00  0.00    -0.252 OA
ATOM      7  N   UNL     1      -0.186  -0.317  -0.408  0.00  0.00    -0.288 N 
ATOM      8  C   UNL     1       2.527   2.938   0.423  0.00  0.00    +0.061 C 
ATOM      9  H   UNL     1      -0.057   2.706   0.664  0.00  0.00    +0.156 HD
ATOM     10  H   UNL     1      -0.833  -1.020  -0.580  0.00  0.00    +0.151 HD
ENDROOT
BRANCH   1  13
ATOM     11  C   UNL     1       1.905  -2.805   2.280  0.00  0.00    +0.163 A 
ATOM     12  C   UNL     1       1.500  -1.717   1.524  0.00  0.00    +0.055 A 
ATOM     13  C   UNL     1       1.695  -1.714   0.155  0.00  0.00    -0.017 A 
ATOM     14  C   UNL     1       2.304  -2.791  -0.462  0.00  0.00    +0.029 A 
ATOM     15  C   UNL     1       2.717  -3.878   0.288  0.00  0.00    +0.086 A 
ATOM     16  C   UNL     1       2.519  -3.889   1.660  0.00  0.00    +0.177 A 
ATOM     17 CL   UNL     1       3.482  -5.229  -0.490  0.00  0.00    -0.080 Cl
BRANCH  16  18
ATOM     18  O   UNL     1       2.923  -4.957   2.399  0.00  0.00    -0.502 OA
ATOM     19  H   UNL     1       3.829  -4.887   2.729  0.00  0.00    +0.292 HD
ENDBRANCH  16  18
BRANCH  11  20
ATOM     20  O   UNL     1       1.709  -2.811   3.625  0.00  0.00    -0.489 OA
BRANCH  20  22
ATOM     21  C   UNL     1       0.919  -1.860   5.701  0.00  0.00    +0.048 C 
ATOM     22  C   UNL     1       0.984  -1.712   4.180  0.00  0.00    +0.226 C 
ENDBRANCH  20  22
ENDBRANCH  11  20
ENDBRANCH   1  13
BRANCH   2  23
ATOM     23  C   UNL     1       3.574   0.514  -0.581  0.00  0.00    +0.339 C 
ATOM     24  O   UNL     1       4.290   1.487  -0.440  0.00  0.00    -0.245 OA
BRANCH  23  25
ATOM     25  O   UNL     1       4.109  -0.671  -0.943  0.00  0.00    -0.462 OA
BRANCH  25  26
ATOM     26  C   UNL     1       5.503  -0.683  -1.259  0.00  0.00    +0.229 C 
ATOM     27  C   UNL     1       5.899  -2.072  -1.764  0.00  0.00    +0.048 C 
ENDBRANCH  25  26
ENDBRANCH  23  25
ENDBRANCH   2  23
TORSDOF 7
