REMARK  Name = ZINC53090681
REMARK  8 active torsions:
REMARK  status: ('A' for Active; 'I' for Inactive)
REMARK    1  A    between atoms: C_1  and  C_2
REMARK    2  A    between atoms: C_8  and  C_12
REMARK    3  A    between atoms: C_12  and  N_13
REMARK    4  A    between atoms: C_17  and  C_19
REMARK    5  A    between atoms: C_22  and  C_25
REMARK    6  A    between atoms: C_25  and  C_26
REMARK    7  A    between atoms: C_25  and  C_27
REMARK    8  A    between atoms: C_25  and  C_28
REMARK                            x       y       z     vdW  Elec       q    Type
REMARK                         _______ _______ _______ _____ _____    ______ ____
ROOT
ATOM      1  N   UNL     1       1.060  -6.615  -1.296  0.00  0.00    -0.290 NA
ATOM      2  C   UNL     1       2.371  -5.934  -1.354  0.00  0.00    +0.085 C 
ATOM      3  C   UNL     1       3.397  -7.014  -0.930  0.00  0.00    +0.017 C 
ATOM      4  C   UNL     1       2.798  -8.288  -1.583  0.00  0.00    +0.025 C 
ATOM      5  C   UNL     1       1.277  -8.065  -1.449  0.00  0.00    +0.087 C 
ENDROOT
BRANCH   5   6
ATOM      6  C   UNL     1       0.575  -8.561  -2.686  0.00  0.00    -0.030 A 
ATOM      7  C   UNL     1       0.593  -7.803  -3.842  0.00  0.00    +0.005 A 
ATOM      8  C   UNL     1      -0.051  -8.259  -4.978  0.00  0.00    +0.004 A 
ATOM      9  C   UNL     1      -0.713  -9.472  -4.957  0.00  0.00    -0.042 A 
ATOM     10  C   UNL     1      -0.730 -10.231  -3.802  0.00  0.00    +0.004 A 
ATOM     11  C   UNL     1      -0.083  -9.777  -2.668  0.00  0.00    +0.005 A 
BRANCH   9  12
ATOM     12  C   UNL     1      -1.415  -9.968  -6.195  0.00  0.00    -0.013 C 
ATOM     13  C   UNL     1      -0.402 -10.118  -7.331  0.00  0.00    +0.015 C 
ATOM     14  C   UNL     1      -2.062 -11.324  -5.905  0.00  0.00    +0.015 C 
ATOM     15  C   UNL     1      -2.495  -8.965  -6.604  0.00  0.00    +0.015 C 
ENDBRANCH   9  12
ENDBRANCH   5   6
BRANCH   1  16
ATOM     16  C   UNL     1       0.366  -6.315  -0.036  0.00  0.00    +0.140 C 
BRANCH  16  24
ATOM     17  C   UNL     1      -0.018   1.503   0.010  0.00  0.00    +0.075 C 
ATOM     18  C   UNL     1       0.002  -0.004   0.002  0.00  0.00    +0.099 A 
ATOM     19  N   UNL     1      -0.997  -0.834   0.002  0.00  0.00    -0.159 NA
ATOM     20  N   UNL     1      -0.801  -2.212  -0.007  0.00  0.00    -0.171 N 
ATOM     21  C   UNL     1      -1.762  -3.182  -0.009  0.00  0.00    +0.275 A 
ATOM     22  O   UNL     1      -2.943  -2.873  -0.002  0.00  0.00    -0.266 OA
ATOM     23  C   UNL     1      -1.391  -4.527  -0.018  0.00  0.00    +0.096 A 
ATOM     24  C   UNL     1      -0.055  -4.869  -0.026  0.00  0.00    +0.063 A 
ATOM     25  N   UNL     1       0.855  -3.898  -0.024  0.00  0.00    -0.225 NA
ATOM     26  C   UNL     1       0.499  -2.639  -0.015  0.00  0.00    +0.199 A 
ATOM     27  S   UNL     1       1.406  -1.108  -0.018  0.00  0.00    -0.033 S 
ENDBRANCH  16  24
ENDBRANCH   1  16
TORSDOF 4
