REMARK  Name = ZINC00070936
REMARK  6 active torsions:
REMARK  status: ('A' for Active; 'I' for Inactive)
REMARK    1  A    between atoms: C_1  and  C_2
REMARK    2  A    between atoms: C_5  and  C_8
REMARK    3  A    between atoms: C_17  and  C_25
REMARK    4  A    between atoms: C_18  and  N_24
REMARK    5  A    between atoms: C_19  and  C_20
REMARK    6  A    between atoms: C_19  and  C_22
REMARK                            x       y       z     vdW  Elec       q    Type
REMARK                         _______ _______ _______ _____ _____    ______ ____
ROOT
ATOM      1  C   UNL     1       2.293   2.575   2.301  0.00  0.00    +0.066 C 
ATOM      2  C   UNL     1       2.199   1.547   1.172  0.00  0.00    +0.030 C 
ATOM      3  C   UNL     1       1.425   2.078  -0.012  0.00  0.00    +0.009 C 
ATOM      4  C   UNL     1      -0.022   1.589  -0.012  0.00  0.00    +0.005 C 
ATOM      5  C   UNL     1      -0.014   0.055  -0.047  0.00  0.00    +0.027 C 
ATOM      6  C   UNL     1       0.686  -0.430   1.196  0.00  0.00    -0.022 C 
ATOM      7  C   UNL     1       1.662   0.268   1.743  0.00  0.00    -0.029 C 
ATOM      8  C   UNL     1       2.250  -0.193   3.029  0.00  0.00    +0.074 C 
ATOM      9  C   UNL     1       2.997   0.667   3.765  0.00  0.00    +0.054 C 
ATOM     10  C   UNL     1       3.293   2.075   3.344  0.00  0.00    +0.188 C 
ENDROOT
BRANCH   1  15
ATOM     11  C   UNL     1      -2.896   3.234   4.756  0.00  0.00    +0.044 C 
ATOM     12  C   UNL     1      -1.543   3.063   4.117  0.00  0.00    -0.050 A 
ATOM     13  C   UNL     1      -0.698   2.056   4.545  0.00  0.00    +0.003 A 
ATOM     14  C   UNL     1       0.543   1.898   3.958  0.00  0.00    +0.004 A 
ATOM     15  C   UNL     1       0.940   2.747   2.941  0.00  0.00    -0.041 A 
ATOM     16  C   UNL     1       0.097   3.757   2.516  0.00  0.00    +0.004 A 
ATOM     17  C   UNL     1      -1.146   3.912   3.101  0.00  0.00    +0.003 A 
ENDBRANCH   1  15
BRANCH   9  18
ATOM     18  N   UNL     1       3.507   0.227   4.954  0.00  0.00    -0.358 N 
ATOM     19  H   UNL     1       4.117   0.901   5.573  0.00  0.00    +0.142 HD
ATOM     20  H   UNL     1       3.308  -0.801   5.291  0.00  0.00    +0.142 HD
ENDBRANCH   9  18
BRANCH  10  21
ATOM     21  C   UNL     1       4.649   2.131   2.774  0.00  0.00    +0.091 C 
ATOM     22  N   UNL     1       5.696   2.174   2.334  0.00  0.00    -0.194 NA
ENDBRANCH  10  21
BRANCH  10  23
ATOM     23  C   UNL     1       3.233   2.951   4.526  0.00  0.00    +0.091 C 
ATOM     24  N   UNL     1       3.186   3.627   5.437  0.00  0.00    -0.194 NA
ENDBRANCH  10  23
BRANCH   8  25
ATOM     25  C   UNL     1       2.028  -1.532   3.486  0.00  0.00    +0.101 C 
ATOM     26  N   UNL     1       1.853  -2.594   3.849  0.00  0.00    -0.191 NA
ENDBRANCH   8  25
TORSDOF 5
