REMARK  Name = ZINC05637528
REMARK  8 active torsions:
REMARK  status: ('A' for Active; 'I' for Inactive)
REMARK    1  A    between atoms: C_1  and  N_2
REMARK    2  A    between atoms: N_2  and  C_3
REMARK    3  A    between atoms: N_2  and  C_17
REMARK    4  A    between atoms: C_3  and  C_4
REMARK    5  A    between atoms: N_6  and  C_7
REMARK    6  A    between atoms: C_12  and  C_13
REMARK    7  A    between atoms: C_20  and  N_25
REMARK    8  A    between atoms: C_22  and  C_23
REMARK                            x       y       z     vdW  Elec       q    Type
REMARK                         _______ _______ _______ _____ _____    ______ ____
ROOT
ATOM      1  C   UNL     1      -4.878   0.016  -0.166  0.00  0.00    +0.200 C 
ENDROOT
BRANCH   1   2
ATOM      2  C   UNL     1      -3.568  -0.722  -0.069  0.00  0.00    +0.235 C 
ATOM      3  O   UNL     1      -3.554  -1.935  -0.076  0.00  0.00    -0.274 OA
ATOM      4  N   UNL     1      -2.413  -0.035   0.025  0.00  0.00    -0.284 N 
ATOM      5  H   UNL     1      -2.428   0.933   0.097  0.00  0.00    +0.155 HD
BRANCH   4   6
ATOM      6  C   UNL     1      -1.191  -0.716   0.020  0.00  0.00    +0.045 A 
ATOM      7  C   UNL     1      -1.088  -1.966   0.618  0.00  0.00    +0.024 A 
ATOM      8  C   UNL     1       0.119  -2.636   0.611  0.00  0.00    +0.002 A 
ATOM      9  C   UNL     1       1.226  -2.064   0.010  0.00  0.00    +0.001 A 
ATOM     10  C   UNL     1       1.126  -0.822  -0.591  0.00  0.00    +0.014 A 
ATOM     11  C   UNL     1      -0.078  -0.145  -0.582  0.00  0.00    +0.076 A 
BRANCH  11  12
ATOM     12  C   UNL     1      -0.185   1.211  -1.232  0.00  0.00    +0.419 C 
ATOM     13  F   UNL     1       1.057   1.572  -1.765  0.00  0.00    -0.166 F 
ATOM     14  F   UNL     1      -1.136   1.163  -2.257  0.00  0.00    -0.166 F 
ATOM     15  F   UNL     1      -0.574   2.156  -0.277  0.00  0.00    -0.166 F 
ENDBRANCH  11  12
ENDBRANCH   4   6
ENDBRANCH   1   2
BRANCH   1  17
ATOM     16  C   UNL     1      -5.912  -1.708  -1.515  0.00  0.00    +0.130 C 
ATOM     17  N   UNL     1      -5.980  -0.951  -0.258  0.00  0.00    -0.323 N 
BRANCH  17  18
ATOM     18  C   UNL     1      -7.211  -0.319  -0.123  0.00  0.00    +0.048 A 
ATOM     19  C   UNL     1      -7.590   0.669  -1.022  0.00  0.00    +0.026 A 
ATOM     20  C   UNL     1      -8.813   1.295  -0.886  0.00  0.00    +0.034 A 
ATOM     21  C   UNL     1      -9.671   0.944   0.144  0.00  0.00    +0.128 A 
ATOM     22  C   UNL     1      -9.312  -0.034   1.046  0.00  0.00    +0.053 A 
ATOM     23  C   UNL     1      -8.079  -0.681   0.919  0.00  0.00    +0.075 A 
BRANCH  21  24
ATOM     24  N   UNL     1     -10.979   1.623   0.276  0.00  0.00    +0.056 N 
ATOM     25  O   UNL     1     -11.300   2.487  -0.520  0.00  0.00    -0.126 OA
ATOM     26  O   UNL     1     -11.736   1.316   1.180  0.00  0.00    -0.126 OA
ENDBRANCH  21  24
BRANCH  23  27
ATOM     27  C   UNL     1      -7.702  -1.702   1.849  0.00  0.00    +0.101 C 
ATOM     28  N   UNL     1      -7.404  -2.513   2.587  0.00  0.00    -0.191 NA
ENDBRANCH  23  27
ENDBRANCH  17  18
ENDBRANCH   1  17
TORSDOF 7
