REMARK  Name = ZINC64926143
REMARK  7 active torsions:
REMARK  status: ('A' for Active; 'I' for Inactive)
REMARK    1  A    between atoms: C_1  and  C_2
REMARK    2  A    between atoms: C_2  and  C_3
REMARK    3  A    between atoms: C_2  and  C_4
REMARK    4  A    between atoms: C_4  and  C_5
REMARK    5  A    between atoms: C_5  and  N_6
REMARK    6  A    between atoms: N_18  and  C_26
REMARK    7  A    between atoms: C_26  and  C_27
REMARK                            x       y       z     vdW  Elec       q    Type
REMARK                         _______ _______ _______ _____ _____    ______ ____
ROOT
ATOM      1  N   UNL     1       0.590  -0.637   3.713  0.00  0.00    -0.299 N 
ATOM      2  C   UNL     1       0.118  -0.361   4.945  0.00  0.00    +0.302 C 
ATOM      3  O   UNL     1      -0.847   0.367   5.078  0.00  0.00    -0.253 OA
ATOM      4  N   UNL     1       0.715  -0.893   6.030  0.00  0.00    -0.283 N 
ATOM      5  C   UNL     1       1.951  -1.676   5.895  0.00  0.00    +0.128 C 
ATOM      6  C   UNL     1       3.023  -1.060   6.803  0.00  0.00    +0.125 C 
ATOM      7  N   UNL     1       2.449  -0.867   8.142  0.00  0.00    -0.308 N 
ATOM      8  C   UNL     1       1.213  -0.084   8.277  0.00  0.00    +0.125 C 
ATOM      9  C   UNL     1       0.144  -0.695   7.370  0.00  0.00    +0.128 C 
ATOM     10  C   UNL     1       3.062  -1.413   9.256  0.00  0.00    +0.188 A 
ATOM     11  C   UNL     1       4.390  -2.044   9.131  0.00  0.00    +0.292 A 
ATOM     12  O   UNL     1       4.953  -2.088   8.053  0.00  0.00    -0.264 OA
ATOM     13  N   UNL     1       4.972  -2.572  10.230  0.00  0.00    -0.300 N 
ATOM     14  C   UNL     1       4.306  -2.505  11.441  0.00  0.00    +0.071 A 
ATOM     15  C   UNL     1       4.884  -3.041  12.588  0.00  0.00    +0.028 A 
ATOM     16  C   UNL     1       4.214  -2.970  13.790  0.00  0.00    +0.002 A 
ATOM     17  C   UNL     1       2.966  -2.368  13.867  0.00  0.00    +0.002 A 
ATOM     18  C   UNL     1       2.381  -1.837  12.754  0.00  0.00    +0.030 A 
ATOM     19  C   UNL     1       3.042  -1.896  11.518  0.00  0.00    +0.090 A 
ATOM     20  N   UNL     1       2.466  -1.365  10.419  0.00  0.00    -0.225 NA
ATOM     21  H   UNL     1       1.401  -1.158   3.610  0.00  0.00    +0.150 HD
ENDROOT
BRANCH   1  22
ATOM     22  C   UNL     1      -0.123  -0.149   2.530  0.00  0.00    +0.106 C 
BRANCH  22  23
ATOM     23  C   UNL     1       0.618  -0.597   1.268  0.00  0.00    +0.022 C 
BRANCH  23  25
ATOM     24  C   UNL     1      -0.083   1.442   0.005  0.00  0.00    +0.007 C 
ATOM     25  C   UNL     1      -0.126  -0.087   0.032  0.00  0.00    -0.016 C 
ATOM     26  C   UNL     1       0.542  -0.638  -1.229  0.00  0.00    +0.007 C 
ENDBRANCH  23  25
ENDBRANCH  22  23
ENDBRANCH   1  22
BRANCH  13  27
ATOM     27  C   UNL     1       6.290  -3.206  10.141  0.00  0.00    +0.160 C 
BRANCH  27  28
ATOM     28  C   UNL     1       7.361  -2.174  10.382  0.00  0.00    -0.028 A 
ATOM     29  C   UNL     1       7.883  -1.458   9.320  0.00  0.00    +0.005 A 
ATOM     30  C   UNL     1       8.866  -0.512   9.542  0.00  0.00    +0.000 A 
ATOM     31  C   UNL     1       9.326  -0.280  10.824  0.00  0.00    +0.000 A 
ATOM     32  C   UNL     1       8.803  -0.994  11.886  0.00  0.00    +0.000 A 
ATOM     33  C   UNL     1       7.817  -1.938  11.665  0.00  0.00    +0.005 A 
ENDBRANCH  27  28
ENDBRANCH  13  27
TORSDOF 5
