REMARK  Name = ZINC14805517
REMARK  10 active torsions:
REMARK  status: ('A' for Active; 'I' for Inactive)
REMARK    1  A    between atoms: C_1  and  C_2
REMARK    2  A    between atoms: C_5  and  O_8
REMARK    3  A    between atoms: O_8  and  C_9
REMARK    4  A    between atoms: C_9  and  C_11
REMARK    5  A    between atoms: C_9  and  C_12
REMARK    6  A    between atoms: N_14  and  N_15
REMARK    7  A    between atoms: C_16  and  C_18
REMARK    8  A    between atoms: C_23  and  N_24
REMARK    9  A    between atoms: N_24  and  S_25
REMARK   10  A    between atoms: S_25  and  C_28
REMARK                            x       y       z     vdW  Elec       q    Type
REMARK                         _______ _______ _______ _____ _____    ______ ____
ROOT
ATOM      1  N   UNL     1      -3.836  -0.876  -0.732  0.00  0.00    -0.230 N 
ATOM      2  C   UNL     1      -4.721  -0.497  -1.676  0.00  0.00    +0.262 C 
ATOM      3  O   UNL     1      -4.330   0.030  -2.700  0.00  0.00    -0.269 OA
ATOM      4  H   UNL     1      -4.148  -1.297   0.084  0.00  0.00    +0.173 HD
ENDROOT
BRANCH   2   5
ATOM      5  C   UNL     1      -6.162  -0.723  -1.467  0.00  0.00    +0.060 A 
ATOM      6  C   UNL     1      -6.617  -1.329  -0.293  0.00  0.00    +0.015 A 
ATOM      7  C   UNL     1      -7.965  -1.537  -0.104  0.00  0.00    +0.001 A 
ATOM      8  C   UNL     1      -8.876  -1.148  -1.074  0.00  0.00    +0.002 A 
ATOM      9  C   UNL     1      -8.444  -0.549  -2.239  0.00  0.00    +0.025 A 
ATOM     10  C   UNL     1      -7.088  -0.325  -2.445  0.00  0.00    +0.060 A 
BRANCH  10  11
ATOM     11  N   UNL     1      -6.651   0.283  -3.614  0.00  0.00    -0.215 N 
ATOM     12  H   UNL     1      -5.813   0.009  -4.019  0.00  0.00    +0.174 HD
BRANCH  11  13
ATOM     13  S   UNL     1      -7.559   1.476  -4.317  0.00  0.00    +0.079 S 
ATOM     14  O   UNL     1      -6.793   1.985  -5.400  0.00  0.00    -0.149 OA
ATOM     15  O   UNL     1      -8.865   0.942  -4.491  0.00  0.00    -0.149 OA
BRANCH  13  16
ATOM     16  C   UNL     1      -7.702   2.782  -3.143  0.00  0.00    +0.146 A 
ATOM     17  C   UNL     1      -6.896   3.856  -2.958  0.00  0.00    +0.036 A 
ATOM     18  C   UNL     1      -7.206   4.764  -1.964  0.00  0.00    +0.010 A 
ATOM     19  C   UNL     1      -8.308   4.555  -1.203  0.00  0.00    +0.047 A 
ATOM     20  S   UNL     1      -8.951   3.039  -1.893  0.00  0.00    -0.077 S 
ENDBRANCH  13  16
ENDBRANCH  11  13
ENDBRANCH  10  11
ENDBRANCH   2   5
BRANCH   1  23
ATOM     21  C   UNL     1      -1.581  -1.040   0.013  0.00  0.00    +0.270 C 
ATOM     22  O   UNL     1      -1.971  -1.566   1.034  0.00  0.00    -0.270 OA
ATOM     23  N   UNL     1      -2.466  -0.662  -0.931  0.00  0.00    -0.231 N 
ATOM     24  H   UNL     1      -2.154  -0.241  -1.747  0.00  0.00    +0.173 HD
BRANCH  21  25
ATOM     25  C   UNL     1      -0.107  -0.810  -0.200  0.00  0.00    +0.257 C 
ATOM     26  C   UNL     1       0.172   0.694  -0.249  0.00  0.00    +0.062 C 
BRANCH  25  27
ATOM     27  O   UNL     1       0.628  -1.396   0.876  0.00  0.00    -0.480 OA
BRANCH  27  32
ATOM     28  C   UNL     1       5.966  -2.856  -0.168  0.00  0.00    +0.044 C 
ATOM     29  C   UNL     1       4.538  -2.465   0.112  0.00  0.00    -0.050 A 
ATOM     30  C   UNL     1       3.962  -2.779   1.329  0.00  0.00    +0.007 A 
ATOM     31  C   UNL     1       2.653  -2.422   1.587  0.00  0.00    +0.046 A 
ATOM     32  C   UNL     1       1.916  -1.748   0.624  0.00  0.00    +0.122 A 
ATOM     33  C   UNL     1       2.494  -1.439  -0.598  0.00  0.00    +0.046 A 
ATOM     34  C   UNL     1       3.806  -1.793  -0.850  0.00  0.00    +0.007 A 
ENDBRANCH  27  32
ENDBRANCH  25  27
ENDBRANCH  21  25
ENDBRANCH   1  23
TORSDOF 8
