REMARK  Name = ZINC49302925
REMARK  8 active torsions:
REMARK  status: ('A' for Active; 'I' for Inactive)
REMARK    1  A    between atoms: C_1  and  C_2
REMARK    2  A    between atoms: C_7  and  N_8
REMARK    3  A    between atoms: C_9  and  C_11
REMARK    4  A    between atoms: N_13  and  C_14
REMARK    5  A    between atoms: C_14  and  C_16
REMARK    6  A    between atoms: C_14  and  C_17
REMARK    7  A    between atoms: C_21  and  S_23
REMARK    8  A    between atoms: S_23  and  N_26
REMARK                            x       y       z     vdW  Elec       q    Type
REMARK                         _______ _______ _______ _____ _____    ______ ____
ROOT
ATOM      1  C   UNL     1      -0.168   0.045   4.869  0.00  0.00    +0.300 C 
ATOM      2  O   UNL     1      -0.184   1.259   4.874  0.00  0.00    -0.265 OA
ATOM      3  N   UNL     1      -0.249  -0.634   6.030  0.00  0.00    -0.301 N 
ATOM      4  H   UNL     1      -0.236  -1.604   6.027  0.00  0.00    +0.150 HD
ENDROOT
BRANCH   1   6
ATOM      5  N   UNL     1       0.025  -0.015   2.416  0.00  0.00    -0.278 N 
ATOM      6  C   UNL     1      -0.057  -0.695   3.577  0.00  0.00    +0.303 C 
ATOM      7  O   UNL     1      -0.040  -1.909   3.572  0.00  0.00    -0.265 OA
ATOM      8  H   UNL     1       0.077   0.953   2.424  0.00  0.00    +0.155 HD
BRANCH   5  15
ATOM      9  C   UNL     1      -1.267   1.182   0.182  0.00  0.00    +0.046 C 
ATOM     10  C   UNL     1      -0.586  -0.159   0.085  0.00  0.00    -0.028 A 
ATOM     11  C   UNL     1      -0.571  -0.841  -1.116  0.00  0.00    +0.025 A 
ATOM     12  C   UNL     1       0.055  -2.072  -1.206  0.00  0.00    +0.041 A 
ATOM     13  C   UNL     1       0.667  -2.623  -0.094  0.00  0.00    +0.022 A 
ATOM     14  C   UNL     1       0.656  -1.945   1.109  0.00  0.00    +0.025 A 
ATOM     15  C   UNL     1       0.033  -0.706   1.201  0.00  0.00    +0.037 A 
ATOM     16 CL   UNL     1       0.071  -2.927  -2.716  0.00  0.00    -0.084 Cl
ENDBRANCH   5  15
ENDBRANCH   1   6
BRANCH   3  17
ATOM     17  C   UNL     1      -0.358   0.092   7.298  0.00  0.00    +0.101 C 
ATOM     18  C   UNL     1      -1.825   0.435   7.565  0.00  0.00    +0.033 C 
BRANCH  17  19
ATOM     19  C   UNL     1       0.169  -0.769   8.417  0.00  0.00    -0.026 A 
ATOM     20  C   UNL     1      -0.104  -2.125   8.433  0.00  0.00    +0.005 A 
ATOM     21  C   UNL     1       0.379  -2.914   9.459  0.00  0.00    +0.002 A 
ATOM     22  C   UNL     1       1.135  -2.349  10.470  0.00  0.00    +0.028 A 
ATOM     23  C   UNL     1       1.408  -0.994  10.453  0.00  0.00    +0.105 A 
ATOM     24  C   UNL     1       0.928  -0.205   9.424  0.00  0.00    +0.034 A 
BRANCH  23  25
ATOM     25  S   UNL     1       2.371  -0.274  11.741  0.00  0.00    +0.056 S 
ATOM     26  O   UNL     1       2.025   1.104  11.785  0.00  0.00    -0.153 OA
ATOM     27  O   UNL     1       2.243  -1.127  12.870  0.00  0.00    -0.153 OA
BRANCH  25  28
ATOM     28  N   UNL     1       3.956  -0.349  11.268  0.00  0.00    -0.204 NA
ATOM     29  H   UNL     1       4.584   0.327  11.568  0.00  0.00    +0.144 HD
ATOM     30  H   UNL     1       4.256  -1.069  10.692  0.00  0.00    +0.144 HD
ENDBRANCH  25  28
ENDBRANCH  23  25
ENDBRANCH  17  19
ENDBRANCH   3  17
TORSDOF 6
