REMARK  Name = ZINC66361100
REMARK  5 active torsions:
REMARK  status: ('A' for Active; 'I' for Inactive)
REMARK    1  A    between atoms: C_1  and  C_2
REMARK    2  A    between atoms: C_2  and  C_3
REMARK    3  A    between atoms: N_12  and  C_13
REMARK    4  A    between atoms: C_19  and  O_21
REMARK    5  A    between atoms: O_21  and  C_22
REMARK                            x       y       z     vdW  Elec       q    Type
REMARK                         _______ _______ _______ _____ _____    ______ ____
ROOT
ATOM      1  C   UNL     1       0.763  -0.392  -1.266  0.00  0.00    +0.077 C 
ATOM      2  C   UNL     1       0.884  -1.916  -1.362  0.00  0.00    +0.022 C 
ATOM      3  C   UNL     1       1.532  -2.289  -2.697  0.00  0.00    +0.003 C 
ATOM      4  C   UNL     1       0.649  -1.801  -3.848  0.00  0.00    +0.019 C 
ATOM      5  C   UNL     1       0.525  -0.275  -3.781  0.00  0.00    +0.109 C 
ATOM      6  N   UNL     1       0.041   0.104  -2.446  0.00  0.00    -0.283 N 
ATOM      7  C   UNL     1      -1.047   0.887  -2.307  0.00  0.00    +0.303 C 
ATOM      8  O   UNL     1      -1.382   1.272  -1.203  0.00  0.00    -0.253 OA
ATOM      9  N   UNL     1      -1.763   1.245  -3.391  0.00  0.00    -0.296 N 
ATOM     10  H   UNL     1      -1.455   1.001  -4.278  0.00  0.00    +0.151 HD
ENDROOT
BRANCH   9  11
ATOM     11  C   UNL     1      -3.006   2.003  -3.230  0.00  0.00    +0.077 C 
ATOM     12  C   UNL     1      -4.162   1.036  -2.965  0.00  0.00    +0.041 C 
ATOM     13  C   UNL     1      -5.454   1.833  -2.763  0.00  0.00    +0.113 C 
ATOM     14  N   UNL     1      -5.655   2.710  -3.925  0.00  0.00    -0.267 N 
ATOM     15  C   UNL     1      -4.569   3.617  -4.322  0.00  0.00    +0.113 C 
ATOM     16  C   UNL     1      -3.287   2.799  -4.507  0.00  0.00    +0.041 C 
ATOM     17  C   UNL     1      -6.814   2.683  -4.614  0.00  0.00    +0.403 C 
ATOM     18  O   UNL     1      -7.704   1.929  -4.276  0.00  0.00    -0.226 OA
BRANCH  17  19
ATOM     19  O   UNL     1      -6.984   3.492  -5.676  0.00  0.00    -0.454 OA
ATOM     20  C   UNL     1      -8.236   3.411  -6.359  0.00  0.00    +0.282 C 
ENDBRANCH  17  19
ENDBRANCH   9  11
BRANCH   1  22
ATOM     21  C   UNL     1       0.724  -0.571   1.226  0.00  0.00    +0.006 C 
ATOM     22  C   UNL     1      -0.008  -0.017   0.002  0.00  0.00    +0.019 C 
ENDBRANCH   1  22
TORSDOF 3
