REMARK  Name = ZINC40797987
REMARK  10 active torsions:
REMARK  status: ('A' for Active; 'I' for Inactive)
REMARK    1  A    between atoms: C_1  and  C_2
REMARK    2  A    between atoms: N_8  and  C_30
REMARK    3  A    between atoms: C_11  and  C_13
REMARK    4  A    between atoms: C_11  and  C_14
REMARK    5  A    between atoms: N_16  and  C_17
REMARK    6  A    between atoms: C_17  and  C_19
REMARK    7  A    between atoms: C_17  and  C_26
REMARK    8  A    between atoms: C_19  and  C_20
REMARK    9  A    between atoms: C_26  and  O_28
REMARK   10  A    between atoms: O_28  and  C_29
REMARK                            x       y       z     vdW  Elec       q    Type
REMARK                         _______ _______ _______ _____ _____    ______ ____
ROOT
ATOM      1  C   UNL     1       0.304  -6.238   1.087  0.00  0.00    +0.267 C 
ATOM      2  O   UNL     1       0.207  -6.812   2.151  0.00  0.00    -0.271 OA
ATOM      3  N   UNL     1       0.052  -6.899  -0.060  0.00  0.00    -0.298 N 
ATOM      4  H   UNL     1       0.129  -6.440  -0.911  0.00  0.00    +0.150 HD
ENDROOT
BRANCH   1  15
ATOM      5  C   UNL     1      -0.018   1.503   0.010  0.00  0.00    +0.044 C 
ATOM      6  C   UNL     1       0.002  -0.004   0.002  0.00  0.00    -0.048 A 
ATOM      7  C   UNL     1       0.006  -0.687  -1.200  0.00  0.00    +0.007 A 
ATOM      8  C   UNL     1       0.019  -2.070  -1.216  0.00  0.00    +0.048 A 
ATOM      9  C   UNL     1       0.031  -2.773  -0.024  0.00  0.00    +0.144 A 
ATOM     10  C   UNL     1       0.038  -2.085   1.188  0.00  0.00    +0.078 A 
ATOM     11  C   UNL     1       0.023  -0.700   1.197  0.00  0.00    +0.030 A 
ATOM     12  N   UNL     1       0.086  -2.805   2.389  0.00  0.00    -0.268 N 
ATOM     13  C   UNL     1       0.342  -4.129   2.355  0.00  0.00    +0.273 C 
ATOM     14  O   UNL     1       0.279  -4.788   3.371  0.00  0.00    -0.270 OA
ATOM     15  C   UNL     1       0.706  -4.787   1.048  0.00  0.00    +0.258 C 
ATOM     16  O   UNL     1       0.025  -4.133  -0.026  0.00  0.00    -0.465 OA
ATOM     17  C   UNL     1       2.217  -4.684   0.830  0.00  0.00    +0.076 C 
ATOM     18  C   UNL     1      -0.140  -2.127   3.668  0.00  0.00    +0.138 C 
ENDBRANCH   1  15
BRANCH   3  19
ATOM     19  C   UNL     1      -0.339  -8.310  -0.022  0.00  0.00    +0.186 C 
BRANCH  19  20
ATOM     20  C   UNL     1      -1.827  -8.414   0.195  0.00  0.00    +0.328 C 
ATOM     21  O   UNL     1      -2.492  -7.411   0.307  0.00  0.00    -0.249 OA
BRANCH  20  22
ATOM     22  O   UNL     1      -2.413  -9.619   0.265  0.00  0.00    -0.467 OA
ATOM     23  C   UNL     1      -3.827  -9.642   0.472  0.00  0.00    +0.280 C 
ENDBRANCH  20  22
ENDBRANCH  19  20
BRANCH  19  24
ATOM     24  C   UNL     1       0.030  -8.978  -1.348  0.00  0.00    +0.069 C 
BRANCH  24  25
ATOM     25  C   UNL     1       1.528  -8.984  -1.507  0.00  0.00    -0.045 A 
ATOM     26  C   UNL     1       2.162  -7.922  -2.125  0.00  0.00    +0.004 A 
ATOM     27  C   UNL     1       3.537  -7.928  -2.271  0.00  0.00    +0.000 A 
ATOM     28  C   UNL     1       4.278  -8.995  -1.799  0.00  0.00    +0.000 A 
ATOM     29  C   UNL     1       3.644 -10.056  -1.180  0.00  0.00    +0.000 A 
ATOM     30  C   UNL     1       2.270 -10.049  -1.030  0.00  0.00    +0.004 A 
ENDBRANCH  24  25
ENDBRANCH  19  24
ENDBRANCH   3  19
TORSDOF 6
