REMARK  Name = ZINC03610252
REMARK  3 active torsions:
REMARK  status: ('A' for Active; 'I' for Inactive)
REMARK    1  A    between atoms: C_1  and  C_2
REMARK    2  A    between atoms: N_10  and  C_14
REMARK    3  A    between atoms: C_14  and  C_15
REMARK                            x       y       z     vdW  Elec       q    Type
REMARK                         _______ _______ _______ _____ _____    ______ ____
ROOT
ATOM      1  C   UNL     1      -5.201  -0.970  -4.286  0.00  0.00    +0.007 C 
ATOM      2  C   UNL     1      -4.290   0.257  -4.211  0.00  0.00    -0.014 C 
ATOM      3  C   UNL     1      -4.498   0.965  -2.871  0.00  0.00    +0.006 C 
ATOM      4  C   UNL     1      -3.595   2.200  -2.802  0.00  0.00    +0.035 C 
ATOM      5  C   UNL     1      -2.138   1.776  -2.952  0.00  0.00    +0.113 C 
ATOM      6  C   UNL     1      -1.921   1.047  -4.273  0.00  0.00    +0.035 C 
ATOM      7  C   UNL     1      -2.830  -0.183  -4.336  0.00  0.00    +0.006 C 
ATOM      8  C   UNL     1      -1.716   0.900  -1.795  0.00  0.00    +0.247 C 
ATOM      9  O   UNL     1      -2.177  -0.178  -1.485  0.00  0.00    -0.273 OA
ATOM     10  N   UNL     1      -0.721   1.571  -1.179  0.00  0.00    -0.220 N 
ATOM     11  C   UNL     1      -0.458   2.733  -1.790  0.00  0.00    +0.310 C 
ATOM     12  O   UNL     1       0.401   3.510  -1.422  0.00  0.00    -0.252 OA
ATOM     13  N   UNL     1      -1.251   2.943  -2.857  0.00  0.00    -0.285 N 
ATOM     14  H   UNL     1      -1.239   3.713  -3.447  0.00  0.00    +0.151 HD
ENDROOT
BRANCH  10  15
ATOM     15  C   UNL     1      -0.013   1.086   0.008  0.00  0.00    +0.156 C 
BRANCH  15  16
ATOM     16  C   UNL     1      -0.718   1.572   1.248  0.00  0.00    +0.006 A 
ATOM     17  C   UNL     1      -1.486   0.698   1.994  0.00  0.00    +0.008 A 
ATOM     18  C   UNL     1      -2.133   1.143   3.131  0.00  0.00    +0.000 A 
ATOM     19  C   UNL     1      -2.012   2.463   3.525  0.00  0.00    +0.003 A 
ATOM     20  C   UNL     1      -1.244   3.339   2.781  0.00  0.00    +0.038 A 
ATOM     21  C   UNL     1      -0.593   2.893   1.643  0.00  0.00    +0.128 A 
ATOM     22  F   UNL     1       0.163   3.747   0.918  0.00  0.00    -0.205 F 
ENDBRANCH  15  16
ENDBRANCH  10  15
TORSDOF 2
