REMARK  Name = ZINC31625239
REMARK  6 active torsions:
REMARK  status: ('A' for Active; 'I' for Inactive)
REMARK    1  A    between atoms: C_3  and  N_14
REMARK    2  A    between atoms: C_4  and  C_10
REMARK    3  A    between atoms: C_6  and  N_7
REMARK    4  A    between atoms: C_15  and  C_17
REMARK    5  A    between atoms: C_17  and  N_18
REMARK    6  A    between atoms: C_20  and  C_25
REMARK                            x       y       z     vdW  Elec       q    Type
REMARK                         _______ _______ _______ _____ _____    ______ ____
ROOT
ATOM      1  N   UNL     1       5.251  -1.556  -1.724  0.00  0.00    -0.284 N 
ATOM      2  C   UNL     1       4.092  -0.920  -1.463  0.00  0.00    +0.237 C 
ATOM      3  O   UNL     1       3.397  -0.528  -2.376  0.00  0.00    -0.274 OA
ATOM      4  H   UNL     1       5.925  -1.831  -0.899  0.00  0.00    +0.155 HD
ENDROOT
BRANCH   1   7
ATOM      5  C   UNL     1       4.950  -2.320  -5.308  0.00  0.00    +0.034 A 
ATOM      6  C   UNL     1       4.606  -2.013  -4.006  0.00  0.00    +0.026 A 
ATOM      7  C   UNL     1       5.596  -1.868  -3.043  0.00  0.00    +0.045 A 
ATOM      8  C   UNL     1       6.931  -2.027  -3.395  0.00  0.00    +0.078 A 
ATOM      9  C   UNL     1       7.268  -2.338  -4.697  0.00  0.00    +0.047 A 
ATOM     10  C   UNL     1       6.279  -2.482  -5.653  0.00  0.00    +0.127 A 
BRANCH   8  11
ATOM     11  C   UNL     1       8.009  -1.865  -2.354  0.00  0.00    +0.419 C 
ATOM     12  F   UNL     1       9.261  -2.071  -2.944  0.00  0.00    -0.166 F 
ATOM     13  F   UNL     1       7.952  -0.572  -1.822  0.00  0.00    -0.166 F 
ATOM     14  F   UNL     1       7.815  -2.800  -1.332  0.00  0.00    -0.166 F 
ENDBRANCH   8  11
BRANCH  10  15
ATOM     15  N   UNL     1       6.644  -2.810  -7.050  0.00  0.00    +0.056 N 
ATOM     16  O   UNL     1       5.775  -2.936  -7.893  0.00  0.00    -0.126 OA
ATOM     17  O   UNL     1       7.815  -2.954  -7.355  0.00  0.00    -0.126 OA
ENDBRANCH  10  15
ENDBRANCH   1   7
BRANCH   2  18
ATOM     18  C   UNL     1       3.661  -0.695  -0.036  0.00  0.00    +0.220 C 
BRANCH  18  19
ATOM     19  N   UNL     1       2.378   0.012  -0.020  0.00  0.00    -0.306 N 
ATOM     20  C   UNL     1       2.360   1.370  -0.003  0.00  0.00    +0.102 A 
ATOM     21  C   UNL     1       1.187   2.046   0.013  0.00  0.00    +0.071 A 
ATOM     22  C   UNL     1      -0.026   1.342   0.011  0.00  0.00    +0.019 A 
ATOM     23  C   UNL     1      -0.006  -0.021  -0.006  0.00  0.00    +0.071 A 
ATOM     24  C   UNL     1       1.230  -0.691  -0.022  0.00  0.00    +0.252 A 
ATOM     25  O   UNL     1       1.262  -1.911  -0.038  0.00  0.00    -0.268 OA
BRANCH  21  26
ATOM     26  C   UNL     1       1.185   3.552   0.031  0.00  0.00    +0.419 C 
ATOM     27  F   UNL     1       1.062   4.035  -1.276  0.00  0.00    -0.166 F 
ATOM     28  F   UNL     1       0.109   4.008   0.800  0.00  0.00    -0.166 F 
ATOM     29  F   UNL     1       2.383   4.013   0.588  0.00  0.00    -0.166 F 
ENDBRANCH  21  26
ENDBRANCH  18  19
ENDBRANCH   2  18
TORSDOF 6
