REMARK  Name = ZINC36396805
REMARK  4 active torsions:
REMARK  status: ('A' for Active; 'I' for Inactive)
REMARK    1  A    between atoms: C_8  and  C_10
REMARK    2  A    between atoms: C_16  and  C_18
REMARK    3  A    between atoms: N_20  and  C_21
REMARK    4  A    between atoms: C_21  and  C_22
REMARK                            x       y       z     vdW  Elec       q    Type
REMARK                         _______ _______ _______ _____ _____    ______ ____
ROOT
ATOM      1  C   UNL     1       3.078  -3.972  -0.050  0.00  0.00    +0.060 C 
ATOM      2  C   UNL     1       3.908  -4.262  -1.302  0.00  0.00    +0.038 C 
ATOM      3  C   UNL     1       4.541  -5.619  -1.200  0.00  0.00    -0.030 C 
ATOM      4  C   UNL     1       4.667  -6.279  -0.093  0.00  0.00    -0.030 C 
ATOM      5  C   UNL     1       4.190  -5.783   1.240  0.00  0.00    +0.040 C 
ATOM      6  C   UNL     1       3.934  -4.276   1.186  0.00  0.00    +0.088 C 
ENDROOT
BRANCH   1  14
ATOM      7  C   UNL     1      -0.016   1.357   0.009  0.00  0.00    +0.002 A 
ATOM      8  C   UNL     1       1.156   2.100   0.002  0.00  0.00    +0.001 A 
ATOM      9  C   UNL     1       2.375   1.449  -0.013  0.00  0.00    +0.017 A 
ATOM     10  C   UNL     1       2.404   0.076  -0.021  0.00  0.00    +0.039 A 
ATOM     11  C   UNL     1       1.226  -0.705  -0.013  0.00  0.00    +0.078 A 
ATOM     12  C   UNL     1       0.002  -0.004   0.002  0.00  0.00    +0.029 A 
ATOM     13  N   UNL     1       1.464  -2.033  -0.023  0.00  0.00    -0.244 NA
ATOM     14  C   UNL     1       2.669  -2.521  -0.038  0.00  0.00    +0.084 A 
ATOM     15  S   UNL     1       3.669  -1.167  -0.040  0.00  0.00    -0.072 S 
ENDBRANCH   1  14
BRANCH   6  16
ATOM     16  C   UNL     1       3.204  -3.837   2.429  0.00  0.00    +0.217 C 
ATOM     17  O   UNL     1       2.106  -3.330   2.340  0.00  0.00    -0.275 OA
ATOM     18  N   UNL     1       3.771  -4.008   3.640  0.00  0.00    -0.308 N 
ATOM     19  H   UNL     1       4.649  -4.414   3.711  0.00  0.00    +0.149 HD
BRANCH  18  20
ATOM     20  C   UNL     1       3.061  -3.581   4.848  0.00  0.00    +0.181 C 
BRANCH  20  21
ATOM     21  C   UNL     1       3.906  -3.882   6.059  0.00  0.00    +0.155 A 
ATOM     22  N   UNL     1       3.897  -4.991   6.752  0.00  0.00    -0.132 NA
ATOM     23  N   UNL     1       4.739  -4.918   7.723  0.00  0.00    -0.129 NA
ATOM     24  C   UNL     1       5.338  -3.739   7.699  0.00  0.00    +0.161 A 
ATOM     25  N   UNL     1       4.821  -3.051   6.629  0.00  0.00    -0.285 N 
ATOM     26  C   UNL     1       5.255  -1.790   6.342  0.00  0.00    +0.094 A 
ATOM     27  C   UNL     1       6.200  -1.201   7.104  0.00  0.00    +0.018 A 
ATOM     28  C   UNL     1       6.751  -1.881   8.204  0.00  0.00    +0.005 A 
ATOM     29  C   UNL     1       6.322  -3.136   8.506  0.00  0.00    +0.048 A 
ENDBRANCH  20  21
ENDBRANCH  18  20
ENDBRANCH   6  16
TORSDOF 4
