REMARK  Name = ZINC37846428
REMARK  5 active torsions:
REMARK  status: ('A' for Active; 'I' for Inactive)
REMARK    1  A    between atoms: C_1  and  C_2
REMARK    2  A    between atoms: C_2  and  C_3
REMARK    3  A    between atoms: C_2  and  N_4
REMARK    4  A    between atoms: C_8  and  C_9
REMARK    5  A    between atoms: N_14  and  C_17
REMARK                            x       y       z     vdW  Elec       q    Type
REMARK                         _______ _______ _______ _____ _____    ______ ____
ROOT
ATOM      1  C   UNL     1      -1.224  -1.976  -2.056  0.00  0.00    +0.263 C 
ATOM      2  O   UNL     1      -1.844  -2.652  -2.856  0.00  0.00    -0.268 OA
ATOM      3  N   UNL     1       0.104  -1.803  -2.206  0.00  0.00    -0.300 N 
ATOM      4  C   UNL     1       0.901  -1.127  -1.171  0.00  0.00    +0.089 C 
ATOM      5  C   UNL     1       1.743  -0.036  -1.840  0.00  0.00    -0.059 C 
ATOM      6  N   UNL     1       2.536  -0.628  -2.925  0.00  0.00    +0.384 N 
ATOM      7  C   UNL     1       1.645  -1.139  -3.974  0.00  0.00    -0.059 C 
ATOM      8  C   UNL     1       0.799  -2.290  -3.408  0.00  0.00    +0.089 C 
ATOM      9  H   UNL     1       3.092  -1.386  -2.559  0.00  0.00    -0.081 HD
ENDROOT
BRANCH   1  14
ATOM     10  N   UNL     1      -3.079  -1.802  -0.335  0.00  0.00    -0.339 N 
ATOM     11  C   UNL     1      -3.408  -0.957   0.674  0.00  0.00    +0.102 A 
ATOM     12  C   UNL     1      -2.485   0.033   0.734  0.00  0.00    +0.036 A 
ATOM     13  C   UNL     1      -1.542  -0.197  -0.273  0.00  0.00    +0.047 A 
ATOM     14  C   UNL     1      -1.923  -1.349  -0.929  0.00  0.00    +0.106 A 
ATOM     15 BR   UNL     1      -2.474   1.472   1.961  0.00  0.00    -0.049 Br
BRANCH  10  17
ATOM     16  C   UNL     1      -4.002  -3.909   0.495  0.00  0.00    +0.030 C 
ATOM     17  C   UNL     1      -3.826  -3.001  -0.724  0.00  0.00    +0.081 C 
ATOM     18  C   UNL     1      -5.200  -2.594  -1.259  0.00  0.00    +0.030 C 
ENDBRANCH  10  17
ENDBRANCH   1  14
BRANCH   6  19
ATOM     19  C   UNL     1       3.424   0.395  -3.494  0.00  0.00    -0.069 C 
ATOM     20  C   UNL     1       4.909   0.050  -3.619  0.00  0.00    -0.017 C 
ATOM     21  C   UNL     1       4.442   1.047  -2.557  0.00  0.00    -0.017 C 
ENDBRANCH   6  19
TORSDOF 3
