REMARK  Name = ZINC40096713
REMARK  2 active torsions:
REMARK  status: ('A' for Active; 'I' for Inactive)
REMARK    1  A    between atoms: C_2  and  N_9
REMARK    2  A    between atoms: C_16  and  C_19
REMARK                            x       y       z     vdW  Elec       q    Type
REMARK                         _______ _______ _______ _____ _____    ______ ____
ROOT
ATOM      1  N   UNL     1       1.163   3.491  -0.039  0.00  0.00    -0.269 N 
ATOM      2  C   UNL     1       2.317   4.174   0.104  0.00  0.00    +0.306 C 
ATOM      3  O   UNL     1       3.376   3.578   0.134  0.00  0.00    -0.252 OA
ATOM      4  N   UNL     1       2.295   5.517   0.212  0.00  0.00    -0.285 N 
ATOM      5  C   UNL     1       1.022   6.237   0.345  0.00  0.00    +0.109 C 
ATOM      6  C   UNL     1       0.952   7.319  -0.737  0.00  0.00    +0.020 C 
ATOM      7  C   UNL     1       2.191   8.211  -0.642  0.00  0.00    +0.015 C 
ATOM      8  C   UNL     1       3.447   7.370  -0.880  0.00  0.00    +0.110 C 
ATOM      9  C   UNL     1       3.546   6.288   0.206  0.00  0.00    +0.121 C 
ATOM     10  H   UNL     1       0.334   3.968  -0.199  0.00  0.00    +0.156 HD
ENDROOT
BRANCH   1  12
ATOM     11  C   UNL     1       0.002   1.419   0.397  0.00  0.00    +0.043 A 
ATOM     12  C   UNL     1       1.163   2.094   0.044  0.00  0.00    +0.038 A 
ATOM     13  C   UNL     1       2.323   1.380  -0.226  0.00  0.00    +0.043 A 
ATOM     14  C   UNL     1       2.319   0.001  -0.144  0.00  0.00    +0.044 A 
ATOM     15  C   UNL     1       1.161  -0.670   0.207  0.00  0.00    +0.040 A 
ATOM     16  C   UNL     1       0.003   0.039   0.477  0.00  0.00    +0.044 A 
ATOM     17 CL   UNL     1      -1.448  -0.806   0.919  0.00  0.00    -0.083 Cl
ATOM     18 CL   UNL     1       3.769  -0.892  -0.482  0.00  0.00    -0.083 Cl
ENDBRANCH   1  12
BRANCH   8  19
ATOM     19  C   UNL     1       4.683   8.269  -0.818  0.00  0.00    +0.394 C 
ATOM     20  F   UNL     1       4.759   8.872   0.442  0.00  0.00    -0.170 F 
ATOM     21  F   UNL     1       5.831   7.500  -1.036  0.00  0.00    -0.170 F 
ATOM     22  F   UNL     1       4.591   9.258  -1.804  0.00  0.00    -0.170 F 
ENDBRANCH   8  19
TORSDOF 2
