REMARK  Name = ZINC12794610
REMARK  1 active torsions:
REMARK  status: ('A' for Active; 'I' for Inactive)
REMARK    1  A    between atoms: C_8  and  N_13
REMARK                            x       y       z     vdW  Elec       q    Type
REMARK                         _______ _______ _______ _____ _____    ______ ____
ROOT
ATOM      1  C   UNL     1       1.219   2.539  -0.213  0.00  0.00    +0.021 A 
ATOM      2  C   UNL     1       1.152   3.914  -0.141  0.00  0.00    +0.016 A 
ATOM      3  C   UNL     1      -0.081   4.560  -0.051  0.00  0.00    +0.013 A 
ATOM      4  C   UNL     1      -1.251   3.823  -0.030  0.00  0.00    -0.012 A 
ATOM      5  C   UNL     1      -1.170   2.436  -0.119  0.00  0.00    +0.026 A 
ATOM      6  C   UNL     1       0.050   1.799  -0.203  0.00  0.00    +0.041 A 
ATOM      7 CL   UNL     1       0.120   0.067  -0.302  0.00  0.00    -0.084 Cl
ATOM      8  C   UNL     1      -2.626   4.410   0.090  0.00  0.00    +0.104 C 
ATOM      9  C   UNL     1      -2.719   5.852  -0.374  0.00  0.00    +0.038 C 
ATOM     10  C   UNL     1      -1.795   6.719   0.495  0.00  0.00    +0.076 C 
ATOM     11  S   UNL     1      -0.086   6.324   0.020  0.00  0.00    -0.125 S 
ENDROOT
BRANCH   8  12
ATOM     12  N   UNL     1      -3.548   3.600  -0.711  0.00  0.00    -0.321 N 
ATOM     13  C   UNL     1      -4.878   3.476  -0.325  0.00  0.00    +0.142 A 
ATOM     14  C   UNL     1      -5.359   4.222   0.766  0.00  0.00    +0.049 A 
ATOM     15  C   UNL     1      -6.660   4.112   1.147  0.00  0.00    +0.055 A 
ATOM     16  C   UNL     1      -7.508   3.236   0.446  0.00  0.00    +0.200 A 
ATOM     17  N   UNL     1      -8.786   2.902   0.561  0.00  0.00    -0.107 NA
ATOM     18  N   UNL     1      -9.101   2.040  -0.339  0.00  0.00    -0.021 NA
ATOM     19  N   UNL     1      -8.084   1.759  -1.082  0.00  0.00    -0.021 NA
ATOM     20  N   UNL     1      -7.008   2.520  -0.607  0.00  0.00    -0.108 N 
ATOM     21  N   UNL     1      -5.672   2.658  -0.980  0.00  0.00    -0.131 NA
ATOM     22  H   UNL     1      -3.231   3.151  -1.510  0.00  0.00    +0.148 HD
ENDBRANCH   8  12
TORSDOF 1
