REMARK  Name = ZINC43493211
REMARK  6 active torsions:
REMARK  status: ('A' for Active; 'I' for Inactive)
REMARK    1  A    between atoms: C_1  and  C_2
REMARK    2  A    between atoms: C_4  and  C_18
REMARK    3  A    between atoms: C_5  and  C_17
REMARK    4  A    between atoms: N_6  and  C_7
REMARK    5  A    between atoms: C_9  and  N_14
REMARK    6  A    between atoms: C_18  and  C_20
REMARK                            x       y       z     vdW  Elec       q    Type
REMARK                         _______ _______ _______ _____ _____    ______ ____
ROOT
ATOM      1  C   UNL     1      -0.018   1.503   0.010  0.00  0.00    +0.064 C 
ATOM      2  C   UNL     1       0.002  -0.004   0.002  0.00  0.00    +0.022 A 
ATOM      3  C   UNL     1       0.008  -0.777  -1.097  0.00  0.00    +0.034 A 
ATOM      4  C   UNL     1       0.030  -2.168  -0.626  0.00  0.00    +0.040 A 
ATOM      5  C   UNL     1       0.035  -2.101   0.755  0.00  0.00    +0.031 A 
ATOM      6  N   UNL     1       0.024  -0.802   1.112  0.00  0.00    -0.316 N 
ATOM      7  C   UNL     1       0.055  -3.277   1.697  0.00  0.00    +0.064 C 
ENDROOT
BRANCH   6   8
ATOM      8  C   UNL     1       0.030  -0.335   2.433  0.00  0.00    +0.067 A 
ATOM      9  C   UNL     1      -1.168  -0.126   3.103  0.00  0.00    +0.060 A 
ATOM     10  C   UNL     1      -1.159   0.334   4.405  0.00  0.00    +0.128 A 
ATOM     11  C   UNL     1       0.042   0.587   5.043  0.00  0.00    +0.034 A 
ATOM     12  C   UNL     1       1.237   0.380   4.380  0.00  0.00    +0.024 A 
ATOM     13  C   UNL     1       1.235  -0.087   3.078  0.00  0.00    +0.065 A 
ATOM     14 CL   UNL     1       2.736  -0.354   2.248  0.00  0.00    -0.081 Cl
BRANCH  10  15
ATOM     15  N   UNL     1      -2.437   0.558   5.119  0.00  0.00    +0.056 N 
ATOM     16  O   UNL     1      -3.487   0.338   4.562  0.00  0.00    -0.126 OA
ATOM     17  O   UNL     1      -2.429   0.961   6.259  0.00  0.00    -0.126 OA
ENDBRANCH  10  15
ENDBRANCH   6   8
BRANCH   4  18
ATOM     18  C   UNL     1       0.043  -3.378  -1.450  0.00  0.00    +0.179 C 
ATOM     19  O   UNL     1       0.060  -4.471  -0.923  0.00  0.00    -0.291 OA
BRANCH  18  20
ATOM     20  C   UNL     1       0.035  -3.267  -2.953  0.00  0.00    +0.188 C 
ATOM     21 CL   UNL     1       0.054  -4.917  -3.679  0.00  0.00    -0.117 Cl
ENDBRANCH  18  20
ENDBRANCH   4  18
TORSDOF 4
