REMARK  Name = ZINC39779652
REMARK  7 active torsions:
REMARK  status: ('A' for Active; 'I' for Inactive)
REMARK    1  A    between atoms: C_1  and  C_2
REMARK    2  A    between atoms: C_2  and  C_4
REMARK    3  A    between atoms: C_2  and  O_15
REMARK    4  A    between atoms: C_4  and  C_6
REMARK    5  A    between atoms: O_15  and  C_16
REMARK    6  A    between atoms: C_16  and  C_18
REMARK    7  A    between atoms: C_24  and  C_26
REMARK                            x       y       z     vdW  Elec       q    Type
REMARK                         _______ _______ _______ _____ _____    ______ ____
ROOT
ATOM      1  C   UNL     1      -1.777  -0.782   1.237  0.00  0.00    +0.329 C 
ATOM      2  O   UNL     1      -1.128  -0.640   2.247  0.00  0.00    -0.249 OA
ENDROOT
BRANCH   1   3
ATOM      3  C   UNL     1      -3.229  -1.174   1.324  0.00  0.00    +0.185 C 
ATOM      4  C   UNL     1      -4.109  -0.066   0.706  0.00  0.00    +0.035 C 
ATOM      5  C   UNL     1      -5.340  -0.034   1.649  0.00  0.00    +0.021 C 
ATOM      6  C   UNL     1      -4.688  -0.330   3.023  0.00  0.00    +0.109 C 
ATOM      7  N   UNL     1      -3.626  -1.315   2.732  0.00  0.00    -0.288 N 
ATOM      8  C   UNL     1      -3.107  -2.197   3.610  0.00  0.00    +0.222 C 
ATOM      9  O   UNL     1      -2.292  -3.015   3.237  0.00  0.00    -0.275 OA
BRANCH   8  10
ATOM     10  C   UNL     1      -3.538  -2.167   5.053  0.00  0.00    +0.048 C 
ATOM     11  C   UNL     1      -3.436  -0.736   5.586  0.00  0.00    +0.019 C 
ATOM     12  C   UNL     1      -3.874  -0.706   7.052  0.00  0.00    -0.009 C 
ATOM     13  C   UNL     1      -2.967  -1.622   7.875  0.00  0.00    +0.007 C 
ATOM     14  C   UNL     1      -3.069  -3.053   7.342  0.00  0.00    -0.009 C 
ATOM     15  C   UNL     1      -2.631  -3.083   5.876  0.00  0.00    +0.019 C 
ATOM     16  C   UNL     1      -4.516  -3.536   7.452  0.00  0.00    +0.007 C 
ATOM     17  C   UNL     1      -5.424  -2.619   6.629  0.00  0.00    -0.009 C 
ATOM     18  C   UNL     1      -5.322  -1.189   7.162  0.00  0.00    +0.007 C 
ATOM     19  C   UNL     1      -4.986  -2.650   5.163  0.00  0.00    +0.019 C 
ENDBRANCH   8  10
ENDBRANCH   1   3
BRANCH   1  20
ATOM     20  O   UNL     1      -1.203  -0.592   0.039  0.00  0.00    -0.452 OA
BRANCH  20  22
ATOM     21  C   UNL     1       0.297   1.303   0.072  0.00  0.00    +0.061 C 
ATOM     22  C   UNL     1       0.177  -0.222   0.031  0.00  0.00    +0.244 C 
BRANCH  22  23
ATOM     23  C   UNL     1       0.830  -0.744  -1.222  0.00  0.00    +0.201 C 
ATOM     24  O   UNL     1       0.149  -1.041  -2.183  0.00  0.00    -0.288 OA
BRANCH  23  25
ATOM     25  C   UNL     1       2.233  -0.888  -1.280  0.00  0.00    +0.027 C 
ATOM     26  C   UNL     1       2.984  -1.344  -2.348  0.00  0.00    +0.006 A 
ATOM     27  C   UNL     1       2.639  -1.788  -3.647  0.00  0.00    +0.010 A 
ATOM     28  C   UNL     1       3.602  -2.188  -4.508  0.00  0.00    +0.001 A 
ATOM     29  C   UNL     1       4.965  -2.183  -4.170  0.00  0.00    +0.002 A 
ATOM     30  C   UNL     1       5.399  -1.778  -2.957  0.00  0.00    +0.026 A 
ATOM     31  C   UNL     1       4.415  -1.327  -1.959  0.00  0.00    +0.043 A 
ATOM     32  N   UNL     1       4.551  -0.893  -0.738  0.00  0.00    -0.380 N 
ATOM     33  C   UNL     1       3.231  -0.570  -0.188  0.00  0.00    +0.152 C 
ATOM     34  H   UNL     1       5.394  -0.795  -0.268  0.00  0.00    +0.160 HD
ENDBRANCH  23  25
ENDBRANCH  22  23
ENDBRANCH  20  22
ENDBRANCH   1  20
TORSDOF 6
