REMARK  Name = ZINC44764994
REMARK  4 active torsions:
REMARK  status: ('A' for Active; 'I' for Inactive)
REMARK    1  A    between atoms: C_1  and  C_2
REMARK    2  A    between atoms: C_8  and  N_10
REMARK    3  A    between atoms: C_11  and  C_13
REMARK    4  A    between atoms: C_13  and  C_20
REMARK                            x       y       z     vdW  Elec       q    Type
REMARK                         _______ _______ _______ _____ _____    ______ ____
ROOT
ATOM      1  N   UNL     1       0.056  -0.038   2.447  0.00  0.00    -0.311 N 
ATOM      2  C   UNL     1       0.738   0.093   3.602  0.00  0.00    +0.233 C 
ATOM      3  O   UNL     1       1.919  -0.179   3.644  0.00  0.00    -0.274 OA
ATOM      4  H   UNL     1      -0.888   0.180   2.413  0.00  0.00    +0.149 HD
ENDROOT
BRANCH   1  11
ATOM      5  C   UNL     1      -0.019   1.526   0.010  0.00  0.00    +0.009 C 
ATOM      6  C   UNL     1       0.002  -0.004   0.002  0.00  0.00    +0.006 C 
ATOM      7  C   UNL     1      -1.433  -0.534   0.013  0.00  0.00    +0.005 C 
ATOM      8  C   UNL     1      -1.413  -2.063   0.004  0.00  0.00    +0.000 C 
ATOM      9  C   UNL     1      -0.673  -2.570   1.244  0.00  0.00    +0.002 C 
ATOM     10  C   UNL     1       0.763  -2.041   1.233  0.00  0.00    +0.022 C 
ATOM     11  C   UNL     1       0.742  -0.511   1.242  0.00  0.00    +0.076 C 
ENDBRANCH   1  11
BRANCH   2  12
ATOM     12  C   UNL     1       0.033   0.579   4.842  0.00  0.00    +0.133 C 
ATOM     13  C   UNL     1      -1.072  -0.377   5.203  0.00  0.00    +0.031 C 
ATOM     14  C   UNL     1      -2.288   0.335   5.826  0.00  0.00    +0.002 C 
ATOM     15  C   UNL     1      -1.888   1.433   6.830  0.00  0.00    +0.000 C 
ATOM     16  C   UNL     1      -0.749   1.012   7.719  0.00  0.00    +0.000 C 
ATOM     17  C   UNL     1       0.571   1.505   7.092  0.00  0.00    +0.002 C 
ATOM     18  C   UNL     1       1.031   0.640   6.016  0.00  0.00    +0.031 C 
BRANCH  12  19
ATOM     19  C   UNL     1      -0.527   1.919   4.599  0.00  0.00    +0.079 C 
ATOM     20  N   UNL     1      -0.959   2.953   4.412  0.00  0.00    -0.195 NA
ENDBRANCH  12  19
ENDBRANCH   2  12
TORSDOF 3
