REMARK  Name = ZINC63786384
REMARK  3 active torsions:
REMARK  status: ('A' for Active; 'I' for Inactive)
REMARK    1  A    between atoms: C_1  and  C_2
REMARK    2  A    between atoms: C_4  and  C_15
REMARK    3  A    between atoms: C_18  and  C_20
REMARK                            x       y       z     vdW  Elec       q    Type
REMARK                         _______ _______ _______ _____ _____    ______ ____
ROOT
ATOM      1  C   UNL     1      -0.018   1.500  -0.011  0.00  0.00    +0.067 C 
ATOM      2  C   UNL     1       0.000  -0.007  -0.019  0.00  0.00    +0.065 C 
ATOM      3  C   UNL     1      -1.085  -0.782   0.087  0.00  0.00    +0.017 C 
ATOM      4  C   UNL     1      -2.490  -0.339   0.251  0.00  0.00    +0.144 C 
ATOM      5  S   UNL     1      -3.140  -0.731   1.889  0.00  0.00    -0.136 S 
ATOM      6  C   UNL     1      -3.240  -2.529   1.952  0.00  0.00    +0.165 C 
ATOM      7  C   UNL     1      -1.900  -3.167   1.869  0.00  0.00    +0.225 C 
ATOM      8  O   UNL     1      -1.771  -4.076   2.662  0.00  0.00    -0.275 OA
ATOM      9  N   UNL     1      -0.850  -2.987   1.162  0.00  0.00    -0.288 N 
ATOM     10  C   UNL     1      -0.538  -2.185   0.016  0.00  0.00    +0.244 C 
ATOM     11  N   UNL     1       0.913  -1.980  -0.121  0.00  0.00    -0.160 NA
ATOM     12  N   UNL     1       1.115  -0.762  -0.140  0.00  0.00    -0.157 NA
ATOM     13  H   UNL     1      -0.095  -3.510   1.471  0.00  0.00    +0.151 HD
ENDROOT
BRANCH   4  14
ATOM     14  C   UNL     1      -2.560   1.152   0.043  0.00  0.00    +0.123 A 
ATOM     15  C   UNL     1      -2.856   1.770  -1.117  0.00  0.00    +0.047 A 
ATOM     16  C   UNL     1      -2.812   3.157  -0.869  0.00  0.00    +0.050 A 
ATOM     17  C   UNL     1      -2.488   3.310   0.442  0.00  0.00    +0.135 A 
ATOM     18  O   UNL     1      -2.345   2.085   0.984  0.00  0.00    -0.458 OA
BRANCH  17  19
ATOM     19  C   UNL     1      -2.329   4.597   1.152  0.00  0.00    +0.017 A 
ATOM     20  C   UNL     1      -2.519   5.800   0.471  0.00  0.00    +0.013 A 
ATOM     21  C   UNL     1      -2.369   6.998   1.139  0.00  0.00    +0.021 A 
ATOM     22  C   UNL     1      -2.030   7.008   2.481  0.00  0.00    +0.041 A 
ATOM     23  C   UNL     1      -1.840   5.817   3.162  0.00  0.00    +0.021 A 
ATOM     24  C   UNL     1      -1.993   4.613   2.507  0.00  0.00    +0.013 A 
ATOM     25 CL   UNL     1      -1.842   8.519   3.315  0.00  0.00    -0.084 Cl
ENDBRANCH  17  19
ENDBRANCH   4  14
TORSDOF 2
