REMARK  Name = ZINC41583875
REMARK  12 active torsions:
REMARK  status: ('A' for Active; 'I' for Inactive)
REMARK    1  A    between atoms: C_1  and  C_2
REMARK    2  A    between atoms: C_2  and  O_3
REMARK    3  A    between atoms: O_3  and  C_4
REMARK    4  A    between atoms: C_4  and  C_6
REMARK    5  A    between atoms: C_6  and  C_7
REMARK    6  A    between atoms: C_7  and  C_8
REMARK    7  A    between atoms: C_11  and  C_31
REMARK    8  A    between atoms: C_17  and  C_20
REMARK    9  A    between atoms: C_18  and  O_19
REMARK   10  A    between atoms: C_20  and  N_21
REMARK   11  A    between atoms: C_23  and  C_30
REMARK   12  A    between atoms: C_26  and  C_29
REMARK                            x       y       z     vdW  Elec       q    Type
REMARK                         _______ _______ _______ _____ _____    ______ ____
ROOT
ATOM      1  C   UNL     1       2.212  -4.481   3.619  0.00  0.00    -0.004 A 
ATOM      2  C   UNL     1       3.533  -4.812   3.524  0.00  0.00    +0.019 A 
ATOM      3  C   UNL     1       4.197  -5.344   4.635  0.00  0.00    +0.021 A 
ATOM      4  C   UNL     1       5.614  -5.708   4.563  0.00  0.00    -0.033 A 
ATOM      5  C   UNL     1       6.202  -6.220   5.676  0.00  0.00    +0.096 A 
ATOM      6  C   UNL     1       5.448  -6.386   6.855  0.00  0.00    +0.337 A 
ATOM      7  O   UNL     1       5.988  -6.845   7.845  0.00  0.00    -0.245 OA
ATOM      8  O   UNL     1       4.149  -6.050   6.915  0.00  0.00    -0.422 OA
ATOM      9  C   UNL     1       3.504  -5.537   5.845  0.00  0.00    +0.144 A 
ATOM     10  C   UNL     1       2.163  -5.196   5.923  0.00  0.00    +0.021 A 
ATOM     11  C   UNL     1       1.522  -4.665   4.816  0.00  0.00    +0.125 A 
ATOM     12  C   UNL     1       6.397  -5.521   3.290  0.00  0.00    +0.045 C 
ENDROOT
BRANCH  11  13
ATOM     13  O   UNL     1       0.210  -4.325   4.895  0.00  0.00    -0.506 OA
ATOM     14  H   UNL     1      -0.396  -5.042   4.663  0.00  0.00    +0.292 HD
ENDBRANCH  11  13
BRANCH   1  15
ATOM     15  C   UNL     1       1.496  -3.909   2.423  0.00  0.00    +0.050 C 
BRANCH  15  16
ATOM     16  C   UNL     1       1.516  -2.381   2.500  0.00  0.00    +0.125 C 
BRANCH  16  17
ATOM     17  C   UNL     1       0.801  -1.808   1.304  0.00  0.00    +0.307 C 
ATOM     18  O   UNL     1       0.324  -2.546   0.475  0.00  0.00    -0.251 OA
BRANCH  17  19
ATOM     19  O   UNL     1       0.693  -0.477   1.160  0.00  0.00    -0.465 OA
BRANCH  19  21
ATOM     20  C   UNL     1      -0.019   1.526   0.010  0.00  0.00    +0.048 C 
ATOM     21  C   UNL     1       0.002  -0.004   0.002  0.00  0.00    +0.229 C 
ENDBRANCH  19  21
ENDBRANCH  17  19
ENDBRANCH  16  17
ENDBRANCH  15  16
ENDBRANCH   1  15
BRANCH  10  22
ATOM     22  C   UNL     1       1.406  -5.396   7.211  0.00  0.00    -0.036 C 
BRANCH  22  23
ATOM     23  N   UNL     1       1.509  -4.183   8.033  0.00  0.00    +0.383 N 
ATOM     24  C   UNL     1       0.839  -3.071   7.348  0.00  0.00    -0.075 C 
ATOM     25  C   UNL     1       1.012  -1.786   8.161  0.00  0.00    -0.031 C 
ATOM     26  C   UNL     1       0.394  -1.980   9.548  0.00  0.00    +0.003 C 
ATOM     27  C   UNL     1       1.049  -3.188  10.225  0.00  0.00    -0.031 C 
ATOM     28  C   UNL     1       0.874  -4.420   9.335  0.00  0.00    -0.075 C 
ATOM     29  C   UNL     1       0.385  -3.437  11.580  0.00  0.00    +0.005 C 
ATOM     30  C   UNL     1       2.503  -1.470   8.304  0.00  0.00    +0.005 C 
ATOM     31  H   UNL     1       2.481  -3.953   8.171  0.00  0.00    -0.081 HD
ENDBRANCH  22  23
ENDBRANCH  10  22
TORSDOF 8
