REMARK  Name = ZINC06838492
REMARK  5 active torsions:
REMARK  status: ('A' for Active; 'I' for Inactive)
REMARK    1  A    between atoms: C_1  and  C_2
REMARK    2  A    between atoms: C_7  and  C_10
REMARK    3  A    between atoms: C_15  and  C_17
REMARK    4  A    between atoms: C_27  and  C_29
REMARK    5  A    between atoms: C_29  and  C_31
REMARK                            x       y       z     vdW  Elec       q    Type
REMARK                         _______ _______ _______ _____ _____    ______ ____
ROOT
ATOM      1  C   UNL     1       6.219   3.261   1.884  0.00  0.00    +0.039 C 
ATOM      2  C   UNL     1       6.751   1.887   2.298  0.00  0.00    +0.133 C 
ATOM      3  C   UNL     1       5.623   0.856   2.215  0.00  0.00    +0.138 C 
ATOM      4  N   UNL     1       6.120  -0.445   2.686  0.00  0.00    -0.310 N 
ATOM      5  C   UNL     1       6.610  -0.345   4.069  0.00  0.00    +0.138 C 
ATOM      6  C   UNL     1       7.728   0.699   4.134  0.00  0.00    +0.133 C 
ATOM      7  O   UNL     1       7.236   1.948   3.642  0.00  0.00    -0.371 OA
ATOM      8  C   UNL     1       8.907   0.240   3.273  0.00  0.00    +0.039 C 
ATOM      9  C   UNL     1       5.141  -1.420   2.576  0.00  0.00    +0.130 A 
ATOM     10  C   UNL     1       5.327  -2.518   1.726  0.00  0.00    +0.031 A 
ATOM     11  C   UNL     1       4.338  -3.469   1.649  0.00  0.00    +0.053 A 
ATOM     12  N   UNL     1       3.236  -3.308   2.377  0.00  0.00    -0.232 NA
ATOM     13  C   UNL     1       3.082  -2.259   3.168  0.00  0.00    +0.162 A 
ATOM     14  N   UNL     1       4.015  -1.322   3.270  0.00  0.00    -0.212 NA
ATOM     15  C   UNL     1       4.448  -4.694   0.784  0.00  0.00    +0.075 C 
ATOM     16  C   UNL     1       5.499  -4.495  -0.308  0.00  0.00    +0.114 C 
ATOM     17  N   UNL     1       6.708  -3.937   0.319  0.00  0.00    -0.295 N 
ATOM     18  C   UNL     1       6.600  -2.604   0.926  0.00  0.00    +0.148 C 
ATOM     19  C   UNL     1       7.868  -4.622   0.336  0.00  0.00    +0.233 C 
ATOM     20  O   UNL     1       7.910  -5.755  -0.094  0.00  0.00    -0.274 OA
ENDROOT
BRANCH  13  21
ATOM     21  C   UNL     1       1.832  -2.124   3.956  0.00  0.00    +0.019 A 
ATOM     22  C   UNL     1       0.837  -3.095   3.860  0.00  0.00    +0.011 A 
ATOM     23  C   UNL     1      -0.324  -2.964   4.596  0.00  0.00    +0.001 A 
ATOM     24  C   UNL     1      -0.500  -1.873   5.427  0.00  0.00    +0.000 A 
ATOM     25  C   UNL     1       0.485  -0.907   5.527  0.00  0.00    +0.001 A 
ATOM     26  C   UNL     1       1.650  -1.027   4.796  0.00  0.00    +0.011 A 
ENDBRANCH  13  21
BRANCH  19  27
ATOM     27  C   UNL     1       9.115  -3.980   0.889  0.00  0.00    +0.163 C 
ATOM     28  C   UNL     1       9.413  -4.556   2.275  0.00  0.00    +0.034 C 
ATOM     29 CL   UNL     1      10.502  -4.315  -0.212  0.00  0.00    -0.112 Cl
ENDBRANCH  19  27
TORSDOF 2
