REMARK  Name = ZINC11614640
REMARK  9 active torsions:
REMARK  status: ('A' for Active; 'I' for Inactive)
REMARK    1  A    between atoms: C_1  and  N_59
REMARK    2  A    between atoms: C_2  and  N_59
REMARK    3  A    between atoms: C_3  and  C_4
REMARK    4  A    between atoms: C_3  and  N_59
REMARK    5  A    between atoms: C_4  and  C_5
REMARK    6  A    between atoms: C_5  and  N_6
REMARK    7  A    between atoms: C_7  and  C_26
REMARK    8  A    between atoms: C_31  and  O_32
REMARK    9  A    between atoms: O_32  and  C_33
REMARK                            x       y       z     vdW  Elec       q    Type
REMARK                         _______ _______ _______ _____ _____    ______ ____
ROOT
ATOM      1  N   UNL     1      -1.505   5.961   0.049  0.00  0.00    -0.284 N 
ATOM      2  C   UNL     1      -2.244   4.693   0.049  0.00  0.00    +0.148 C 
ATOM      3  C   UNL     1      -1.203   3.605   0.033  0.00  0.00    +0.072 A 
ATOM      4  C   UNL     1      -1.291   2.143   0.032  0.00  0.00    +0.199 A 
ATOM      5  O   UNL     1      -2.366   1.568   0.044  0.00  0.00    -0.287 OA
ATOM      6  C   UNL     1      -0.017   1.401   0.010  0.00  0.00    +0.065 A 
ATOM      7  C   UNL     1       0.002  -0.004   0.002  0.00  0.00    +0.016 A 
ATOM      8  C   UNL     1       1.177  -0.679  -0.013  0.00  0.00    +0.009 A 
ATOM      9  C   UNL     1       2.400   0.024  -0.021  0.00  0.00    -0.014 A 
ATOM     10  C   UNL     1       3.624  -0.663  -0.035  0.00  0.00    +0.008 A 
ATOM     11  C   UNL     1       4.793   0.036  -0.042  0.00  0.00    +0.001 A 
ATOM     12  C   UNL     1       4.794   1.428  -0.035  0.00  0.00    +0.001 A 
ATOM     13  C   UNL     1       3.624   2.128  -0.021  0.00  0.00    +0.012 A 
ATOM     14  C   UNL     1       2.402   1.439  -0.013  0.00  0.00    +0.025 A 
ATOM     15  C   UNL     1       1.172   2.137   0.002  0.00  0.00    +0.147 A 
ATOM     16  O   UNL     1       1.147   3.478   0.010  0.00  0.00    -0.449 OA
ATOM     17  C   UNL     1       0.013   4.206   0.025  0.00  0.00    +0.199 A 
ATOM     18  C   UNL     1      -0.191   5.675   0.035  0.00  0.00    +0.283 C 
ATOM     19  O   UNL     1       0.700   6.501   0.031  0.00  0.00    -0.267 OA
ENDROOT
BRANCH   2  20
ATOM     20  C   UNL     1      -3.091   4.585   1.291  0.00  0.00    +0.019 A 
ATOM     21  C   UNL     1      -2.793   5.355   2.399  0.00  0.00    +0.009 A 
ATOM     22  C   UNL     1      -3.572   5.260   3.538  0.00  0.00    +0.001 A 
ATOM     23  C   UNL     1      -4.644   4.387   3.574  0.00  0.00    +0.004 A 
ATOM     24  C   UNL     1      -4.942   3.611   2.471  0.00  0.00    +0.046 A 
ATOM     25  C   UNL     1      -4.165   3.708   1.325  0.00  0.00    +0.125 A 
BRANCH  25  26
ATOM     26  O   UNL     1      -4.457   2.946   0.239  0.00  0.00    -0.495 OA
ATOM     27  C   UNL     1      -5.577   2.066   0.345  0.00  0.00    +0.277 C 
ENDBRANCH  25  26
ENDBRANCH   2  20
BRANCH   1  28
ATOM     28  C   UNL     1      -2.094   7.302   0.062  0.00  0.00    +0.107 C 
BRANCH  28  29
ATOM     29  C   UNL     1      -2.312   7.777  -1.376  0.00  0.00    +0.000 C 
BRANCH  29  30
ATOM     30  C   UNL     1      -2.928   9.178  -1.363  0.00  0.00    -0.078 C 
BRANCH  30  33
ATOM     31  C   UNL     1      -4.151   8.813  -3.421  0.00  0.00    -0.097 C 
ATOM     32  C   UNL     1      -3.503  11.056  -2.778  0.00  0.00    -0.097 C 
ATOM     33  N   UNL     1      -3.113   9.630  -2.757  0.00  0.00    +0.376 N 
ATOM     34  H   UNL     1      -2.227   9.520  -3.264  0.00  0.00    -0.083 HD
ENDBRANCH  30  33
ENDBRANCH  29  30
ENDBRANCH  28  29
ENDBRANCH   1  28
TORSDOF 6
