REMARK  Name = ZINC02803354
REMARK  4 active torsions:
REMARK  status: ('A' for Active; 'I' for Inactive)
REMARK    1  A    between atoms: C_1  and  N_2
REMARK    2  A    between atoms: C_4  and  S_7
REMARK    3  A    between atoms: S_7  and  N_10
REMARK    4  A    between atoms: N_10  and  C_11
REMARK                            x       y       z     vdW  Elec       q    Type
REMARK                         _______ _______ _______ _____ _____    ______ ____
ROOT
ATOM      1  S   UNL     1      -1.824   0.596   1.956  0.00  0.00    +0.062 S 
ATOM      2  O   UNL     1      -2.292   1.318   3.087  0.00  0.00    -0.153 OA
ATOM      3  O   UNL     1      -2.697   0.123   0.940  0.00  0.00    -0.153 OA
ENDROOT
BRANCH   1   7
ATOM      4  C   UNL     1       0.877  -2.689   5.043  0.00  0.00    +0.172 C 
ATOM      5  N   UNL     1       0.158  -2.148   3.887  0.00  0.00    -0.273 N 
ATOM      6  C   UNL     1      -0.398  -0.922   3.801  0.00  0.00    +0.136 A 
ATOM      7  C   UNL     1      -0.965  -0.811   2.577  0.00  0.00    +0.142 A 
ATOM      8  C   UNL     1      -0.753  -2.013   1.894  0.00  0.00    +0.162 A 
ATOM      9  N   UNL     1      -0.075  -2.813   2.676  0.00  0.00    -0.178 NA
ENDBRANCH   1   7
BRANCH   1  10
ATOM     10  N   UNL     1      -0.706   1.562   1.208  0.00  0.00    -0.187 NA
ATOM     11  H   UNL     1      -0.510   2.443   1.563  0.00  0.00    +0.148 HD
BRANCH  10  12
ATOM     12  C   UNL     1      -0.013   1.086   0.008  0.00  0.00    +0.077 C 
ATOM     13  C   UNL     1      -0.719   1.589  -1.222  0.00  0.00    +0.020 C 
ATOM     14  C   UNL     1      -0.658   0.584  -2.389  0.00  0.00    +0.002 C 
ATOM     15  C   UNL     1       0.725  -0.078  -2.535  0.00  0.00    +0.000 C 
ATOM     16  C   UNL     1       1.854   0.899  -2.349  0.00  0.00    +0.000 C 
ATOM     17  C   UNL     1       2.305   0.852  -0.875  0.00  0.00    +0.002 C 
ATOM     18  C   UNL     1       1.433   1.624  -0.003  0.00  0.00    +0.020 C 
ENDBRANCH  10  12
ENDBRANCH   1  10
TORSDOF 3
