REMARK  Name = ZINC15972048
REMARK  5 active torsions:
REMARK  status: ('A' for Active; 'I' for Inactive)
REMARK    1  A    between atoms: C_1  and  N_2
REMARK    2  A    between atoms: C_4  and  C_27
REMARK    3  A    between atoms: C_6  and  C_19
REMARK    4  A    between atoms: C_19  and  C_21
REMARK    5  A    between atoms: C_31  and  N_33
REMARK                            x       y       z     vdW  Elec       q    Type
REMARK                         _______ _______ _______ _____ _____    ______ ____
ROOT
ATOM      1  C   UNL     1      -5.436   0.514  -0.628  0.00  0.00    +0.106 C 
ATOM      2  N   UNL     1      -4.178   1.091  -0.137  0.00  0.00    -0.287 NA
ATOM      3  C   UNL     1      -3.916   2.412  -0.769  0.00  0.00    +0.094 C 
ATOM      4  C   UNL     1      -2.929   3.093   0.213  0.00  0.00    +0.046 C 
ATOM      5  C   UNL     1      -3.441   2.623   1.598  0.00  0.00    +0.103 C 
ATOM      6  C   UNL     1      -4.246   1.350   1.310  0.00  0.00    +0.136 C 
ATOM      7  C   UNL     1      -3.711   0.183   2.097  0.00  0.00    +0.006 A 
ATOM      8  C   UNL     1      -2.488  -0.448   2.135  0.00  0.00    +0.046 A 
ATOM      9  C   UNL     1      -2.291  -1.524   2.986  0.00  0.00    +0.124 A 
ATOM     10  C   UNL     1      -3.326  -1.960   3.795  0.00  0.00    +0.040 A 
ATOM     11  C   UNL     1      -4.552  -1.329   3.758  0.00  0.00    +0.026 A 
ATOM     12  C   UNL     1      -4.758  -0.247   2.904  0.00  0.00    +0.039 A 
ATOM     13  N   UNL     1      -5.891   0.542   2.688  0.00  0.00    -0.283 N 
ATOM     14  C   UNL     1      -5.674   1.500   1.768  0.00  0.00    +0.243 C 
ATOM     15  O   UNL     1      -6.474   2.326   1.381  0.00  0.00    -0.273 OA
ATOM     16  F   UNL     1      -1.092  -2.145   3.026  0.00  0.00    -0.205 F 
ATOM     17  H   UNL     1      -6.817   0.340   3.247  0.00  0.00    +0.155 HD
ENDROOT
BRANCH   4  18
ATOM     18  C   UNL     1      -3.007   4.593   0.093  0.00  0.00    -0.040 A 
ATOM     19  C   UNL     1      -3.658   5.167  -0.983  0.00  0.00    +0.004 A 
ATOM     20  C   UNL     1      -3.733   6.543  -1.091  0.00  0.00    +0.002 A 
ATOM     21  C   UNL     1      -3.149   7.345  -0.128  0.00  0.00    +0.033 A 
ATOM     22  C   UNL     1      -2.493   6.771   0.945  0.00  0.00    +0.126 A 
ATOM     23  C   UNL     1      -2.422   5.395   1.056  0.00  0.00    +0.036 A 
BRANCH  22  24
ATOM     24  N   UNL     1      -1.867   7.630   1.976  0.00  0.00    +0.056 N 
ATOM     25  O   UNL     1      -1.290   7.123   2.921  0.00  0.00    -0.126 OA
ATOM     26  O   UNL     1      -1.930   8.842   1.878  0.00  0.00    -0.126 OA
ENDBRANCH  22  24
ENDBRANCH   4  18
BRANCH   5  27
ATOM     27  C   UNL     1      -4.328   3.675   2.213  0.00  0.00    +0.169 C 
ATOM     28  O   UNL     1      -5.021   4.374   1.504  0.00  0.00    -0.292 OA
BRANCH  27  29
ATOM     29  C   UNL     1      -4.352   3.856   3.673  0.00  0.00    +0.018 A 
ATOM     30  C   UNL     1      -3.558   3.048   4.494  0.00  0.00    +0.011 A 
ATOM     31  C   UNL     1      -3.583   3.227   5.862  0.00  0.00    +0.001 A 
ATOM     32  C   UNL     1      -4.398   4.195   6.422  0.00  0.00    +0.000 A 
ATOM     33  C   UNL     1      -5.190   4.994   5.617  0.00  0.00    +0.001 A 
ATOM     34  C   UNL     1      -5.173   4.832   4.247  0.00  0.00    +0.011 A 
ENDBRANCH  27  29
ENDBRANCH   5  27
TORSDOF 4
