REMARK  Name = ZINC00233535
REMARK  3 active torsions:
REMARK  status: ('A' for Active; 'I' for Inactive)
REMARK    1  A    between atoms: C_1  and  C_2
REMARK    2  A    between atoms: N_22  and  C_25
REMARK    3  A    between atoms: C_25  and  C_26
REMARK                            x       y       z     vdW  Elec       q    Type
REMARK                         _______ _______ _______ _____ _____    ______ ____
ROOT
ATOM      1  C   UNL     1      -3.765   3.180   0.117  0.00  0.00    +0.022 C 
ATOM      2  C   UNL     1      -2.468   3.988   0.045  0.00  0.00    +0.030 C 
ATOM      3  C   UNL     1      -1.223   3.115   0.029  0.00  0.00    -0.033 A 
ATOM      4  C   UNL     1      -1.227   1.749   0.017  0.00  0.00    +0.005 A 
ATOM      5  C   UNL     1      -0.013   1.076   0.008  0.00  0.00    +0.000 A 
ATOM      6  C   UNL     1       1.178   1.779   0.000  0.00  0.00    +0.000 A 
ATOM      7  C   UNL     1       1.175   3.168   0.007  0.00  0.00    +0.004 A 
ATOM      8  C   UNL     1      -0.023   3.823   0.021  0.00  0.00    -0.035 A 
ATOM      9  C   UNL     1      -0.186   5.335   0.029  0.00  0.00    +0.062 C 
ATOM     10  C   UNL     1      -1.085   5.636   1.218  0.00  0.00    -0.035 A 
ATOM     11  C   UNL     1      -2.285   4.927   1.226  0.00  0.00    -0.033 A 
ATOM     12  C   UNL     1      -3.191   5.099   2.234  0.00  0.00    +0.005 A 
ATOM     13  C   UNL     1      -2.895   5.994   3.254  0.00  0.00    +0.000 A 
ATOM     14  C   UNL     1      -1.704   6.696   3.246  0.00  0.00    +0.000 A 
ATOM     15  C   UNL     1      -0.788   6.517   2.218  0.00  0.00    +0.004 A 
ATOM     16  C   UNL     1      -1.033   5.662  -1.220  0.00  0.00    +0.100 C 
ATOM     17  C   UNL     1      -2.359   4.881  -1.211  0.00  0.00    +0.103 C 
ATOM     18  C   UNL     1      -2.257   3.991  -2.430  0.00  0.00    +0.227 C 
ATOM     19  O   UNL     1      -3.102   3.203  -2.798  0.00  0.00    -0.275 OA
ATOM     20  N   UNL     1      -1.085   4.213  -3.039  0.00  0.00    -0.238 N 
ATOM     21  C   UNL     1      -0.317   5.134  -2.444  0.00  0.00    +0.227 C 
ATOM     22  O   UNL     1       0.779   5.487  -2.824  0.00  0.00    -0.275 OA
ENDROOT
BRANCH  20  23
ATOM     23  C   UNL     1      -0.677   3.507  -4.256  0.00  0.00    +0.143 C 
BRANCH  23  24
ATOM     24  C   UNL     1       0.066   2.250  -3.883  0.00  0.00    -0.015 C 
ATOM     25  C   UNL     1      -0.333   1.091  -4.345  0.00  0.00    +0.005 C 
ENDBRANCH  23  24
ENDBRANCH  20  23
TORSDOF 2
