REMARK  Name = ZINC59309954
REMARK  3 active torsions:
REMARK  status: ('A' for Active; 'I' for Inactive)
REMARK    1  A    between atoms: C_8  and  C_11
REMARK    2  A    between atoms: C_11  and  N_13
REMARK    3  A    between atoms: N_22  and  C_23
REMARK                            x       y       z     vdW  Elec       q    Type
REMARK                         _______ _______ _______ _____ _____    ______ ____
ROOT
ATOM      1  N   UNL     1       2.796  -3.379  -2.563  0.00  0.00    -0.144 NA
ATOM      2  C   UNL     1       2.827  -3.457  -3.891  0.00  0.00    +0.201 A 
ATOM      3  N   UNL     1       3.320  -2.504  -4.724  0.00  0.00    -0.326 N 
ATOM      4  C   UNL     1       3.175  -2.952  -6.033  0.00  0.00    +0.066 A 
ATOM      5  C   UNL     1       3.498  -2.400  -7.265  0.00  0.00    +0.028 A 
ATOM      6  C   UNL     1       3.228  -3.099  -8.424  0.00  0.00    +0.002 A 
ATOM      7  C   UNL     1       2.635  -4.349  -8.364  0.00  0.00    +0.002 A 
ATOM      8  C   UNL     1       2.309  -4.907  -7.144  0.00  0.00    +0.028 A 
ATOM      9  C   UNL     1       2.578  -4.213  -5.973  0.00  0.00    +0.068 A 
ATOM     10  N   UNL     1       2.376  -4.506  -4.628  0.00  0.00    -0.309 N 
ATOM     11  H   UNL     1       3.705  -1.656  -4.453  0.00  0.00    +0.169 HD
ENDROOT
BRANCH  10  12
ATOM     12  C   UNL     1       1.777  -5.734  -4.098  0.00  0.00    +0.091 C 
ATOM     13  C   UNL     1       0.520  -5.384  -3.300  0.00  0.00    +0.025 C 
ATOM     14  C   UNL     1      -0.106  -6.666  -2.746  0.00  0.00    +0.002 C 
ATOM     15  C   UNL     1       0.899  -7.370  -1.832  0.00  0.00    +0.000 C 
ATOM     16  C   UNL     1       2.157  -7.719  -2.630  0.00  0.00    +0.002 C 
ATOM     17  C   UNL     1       2.782  -6.438  -3.183  0.00  0.00    +0.025 C 
ENDBRANCH  10  12
BRANCH   1  18
ATOM     18  C   UNL     1       3.163  -2.255  -1.955  0.00  0.00    +0.280 C 
ATOM     19  O   UNL     1       3.616  -1.332  -2.604  0.00  0.00    -0.270 OA
BRANCH  18  27
ATOM     20  C   UNL     1      -0.072   1.355  -0.006  0.00  0.00    +0.000 A 
ATOM     21  C   UNL     1       1.112   2.069  -0.011  0.00  0.00    +0.004 A 
ATOM     22  C   UNL     1       2.324   1.411  -0.018  0.00  0.00    +0.046 A 
ATOM     23  C   UNL     1       2.365   0.018  -0.021  0.00  0.00    +0.125 A 
ATOM     24  C   UNL     1       1.170  -0.688  -0.023  0.00  0.00    -0.002 A 
ATOM     25  C   UNL     1      -0.039  -0.028  -0.011  0.00  0.00    +0.007 A 
ATOM     26  C   UNL     1       1.525  -2.162  -0.051  0.00  0.00    +0.093 C 
ATOM     27  C   UNL     1       3.016  -2.124  -0.461  0.00  0.00    +0.265 C 
ATOM     28  O   UNL     1       3.436  -0.823  -0.016  0.00  0.00    -0.479 OA
ENDBRANCH  18  27
ENDBRANCH   1  18
TORSDOF 3
