REMARK  Name = ZINC17072928
REMARK  6 active torsions:
REMARK  status: ('A' for Active; 'I' for Inactive)
REMARK    1  A    between atoms: C_1  and  C_2
REMARK    2  A    between atoms: C_7  and  C_8
REMARK    3  A    between atoms: C_8  and  O_10
REMARK    4  A    between atoms: O_10  and  C_11
REMARK    5  A    between atoms: C_16  and  C_18
REMARK    6  A    between atoms: C_20  and  C_25
REMARK                            x       y       z     vdW  Elec       q    Type
REMARK                         _______ _______ _______ _____ _____    ______ ____
ROOT
ATOM      1  C   UNL     1      -7.377   2.426  -2.144  0.00  0.00    +0.047 C 
ATOM      2  C   UNL     1      -6.718   1.147  -2.593  0.00  0.00    -0.008 A 
ATOM      3  C   UNL     1      -7.309   0.118  -3.334  0.00  0.00    +0.042 A 
ATOM      4  C   UNL     1      -6.346  -0.874  -3.525  0.00  0.00    +0.028 A 
ATOM      5  N   UNL     1      -5.221  -0.472  -2.933  0.00  0.00    -0.352 N 
ATOM      6  H   UNL     1      -4.390  -0.972  -2.910  0.00  0.00    +0.166 HD
ATOM      7  C   UNL     1      -5.425   0.768  -2.358  0.00  0.00    +0.128 A 
ATOM      8  C   UNL     1      -6.621  -2.146  -4.286  0.00  0.00    +0.062 C 
ATOM      9  C   UNL     1      -7.840  -1.940  -5.190  0.00  0.00    +0.032 C 
ATOM     10  C   UNL     1      -9.028  -1.407  -4.383  0.00  0.00    +0.088 C 
ATOM     11  C   UNL     1      -8.674  -0.021  -3.865  0.00  0.00    +0.166 C 
ATOM     12  O   UNL     1      -9.461   0.903  -3.887  0.00  0.00    -0.292 OA
ENDROOT
BRANCH   9  13
ATOM     13  C   UNL     1      -8.218  -3.255  -5.821  0.00  0.00    -0.044 A 
ATOM     14  C   UNL     1      -8.562  -4.330  -5.024  0.00  0.00    +0.004 A 
ATOM     15  C   UNL     1      -8.914  -5.535  -5.603  0.00  0.00    +0.000 A 
ATOM     16  C   UNL     1      -8.911  -5.668  -6.979  0.00  0.00    +0.000 A 
ATOM     17  C   UNL     1      -8.563  -4.594  -7.776  0.00  0.00    +0.000 A 
ATOM     18  C   UNL     1      -8.216  -3.387  -7.197  0.00  0.00    +0.004 A 
ENDBRANCH   9  13
BRANCH   7  19
ATOM     19  C   UNL     1      -4.425   1.544  -1.616  0.00  0.00    +0.356 C 
ATOM     20  O   UNL     1      -4.720   2.628  -1.151  0.00  0.00    -0.243 OA
BRANCH  19  21
ATOM     21  O   UNL     1      -3.180   1.054  -1.448  0.00  0.00    -0.457 OA
BRANCH  21  22
ATOM     22  C   UNL     1      -2.243   1.875  -0.703  0.00  0.00    +0.180 C 
ATOM     23  C   UNL     1      -2.268   1.485   0.789  0.00  0.00    +0.045 C 
ATOM     24  C   UNL     1      -0.789   1.611   1.242  0.00  0.00    +0.004 C 
ATOM     25  C   UNL     1      -0.013   1.086   0.008  0.00  0.00    +0.007 C 
ATOM     26  C   UNL     1      -0.809   1.622  -1.200  0.00  0.00    +0.027 C 
ATOM     27  C   UNL     1      -0.819   0.583  -2.323  0.00  0.00    +0.011 C 
ENDBRANCH  21  22
ENDBRANCH  19  21
ENDBRANCH   7  19
TORSDOF 4
