REMARK  Name = ZINC33021119
REMARK  4 active torsions:
REMARK  status: ('A' for Active; 'I' for Inactive)
REMARK    1  A    between atoms: C_1  and  C_2
REMARK    2  A    between atoms: C_9  and  C_11
REMARK    3  A    between atoms: N_16  and  S_18
REMARK    4  A    between atoms: S_18  and  C_21
REMARK                            x       y       z     vdW  Elec       q    Type
REMARK                         _______ _______ _______ _____ _____    ______ ____
ROOT
ATOM      1  C   UNL     1      -0.276   1.601   3.797  0.00  0.00    +0.091 C 
ATOM      2  C   UNL     1      -1.693   2.165   3.915  0.00  0.00    +0.015 C 
ATOM      3  C   UNL     1      -2.501   1.786   2.671  0.00  0.00    +0.018 C 
ATOM      4  C   UNL     1      -1.837   2.402   1.430  0.00  0.00    +0.109 C 
ATOM      5  N   UNL     1      -0.432   1.974   1.391  0.00  0.00    -0.176 NA
ATOM      6  C   UNL     1       0.411   2.209   2.571  0.00  0.00    +0.122 C 
ENDROOT
BRANCH   1  14
ATOM      7  C   UNL     1       2.066   2.685   7.099  0.00  0.00    +0.028 C 
ATOM      8  C   UNL     1       0.881   1.783   7.450  0.00  0.00    +0.073 C 
ATOM      9  C   UNL     1       1.389   0.519   8.142  0.00  0.00    +0.022 C 
ATOM     10  C   UNL     1       0.221  -0.444   8.364  0.00  0.00    +0.003 C 
ATOM     11  C   UNL     1      -0.380  -0.839   7.013  0.00  0.00    +0.019 C 
ATOM     12  C   UNL     1      -0.912   0.413   6.310  0.00  0.00    +0.108 C 
ATOM     13  N   UNL     1       0.170   1.403   6.222  0.00  0.00    -0.298 N 
ATOM     14  C   UNL     1       0.508   1.947   5.037  0.00  0.00    +0.220 C 
ATOM     15  O   UNL     1       1.444   2.716   4.967  0.00  0.00    -0.275 OA
ENDBRANCH   1  14
BRANCH   5  16
ATOM     16  S   UNL     1       0.191   1.247   0.040  0.00  0.00    +0.061 S 
ATOM     17  O   UNL     1       1.594   1.470   0.069  0.00  0.00    -0.153 OA
ATOM     18  O   UNL     1      -0.622   1.654  -1.052  0.00  0.00    -0.153 OA
BRANCH  16  19
ATOM     19  C   UNL     1      -0.047  -0.489   0.225  0.00  0.00    +0.107 A 
ATOM     20  C   UNL     1      -1.207  -1.079  -0.242  0.00  0.00    +0.032 A 
ATOM     21  C   UNL     1      -1.401  -2.441  -0.100  0.00  0.00    +0.049 A 
ATOM     22  C   UNL     1      -0.431  -3.216   0.511  0.00  0.00    +0.142 A 
ATOM     23  C   UNL     1       0.738  -2.621   0.983  0.00  0.00    +0.078 A 
ATOM     24  C   UNL     1       0.929  -1.257   0.833  0.00  0.00    +0.055 A 
ATOM     25  N   UNL     1       1.712  -3.417   1.602  0.00  0.00    -0.280 N 
ATOM     26  C   UNL     1       1.652  -4.758   1.452  0.00  0.00    +0.255 C 
ATOM     27  O   UNL     1       2.466  -5.469   2.003  0.00  0.00    -0.272 OA
ATOM     28  C   UNL     1       0.571  -5.368   0.596  0.00  0.00    +0.325 C 
ATOM     29  O   UNL     1      -0.605  -4.557   0.658  0.00  0.00    -0.481 OA
ATOM     30  H   UNL     1       2.508  -2.948   2.198  0.00  0.00    +0.155 HD
ENDBRANCH  16  19
ENDBRANCH   5  16
TORSDOF 3
