REMARK  Name = ZINC38010193
REMARK  5 active torsions:
REMARK  status: ('A' for Active; 'I' for Inactive)
REMARK    1  A    between atoms: C_1  and  C_2
REMARK    2  A    between atoms: C_4  and  C_21
REMARK    3  A    between atoms: C_7  and  C_8
REMARK    4  A    between atoms: C_12  and  C_20
REMARK    5  A    between atoms: C_17  and  C_19
REMARK                            x       y       z     vdW  Elec       q    Type
REMARK                         _______ _______ _______ _____ _____    ______ ____
ROOT
ATOM      1  C   UNL     1       2.542  -0.407  -1.170  0.00  0.00    +0.045 C 
ATOM      2  C   UNL     1       1.261  -0.922  -0.567  0.00  0.00    -0.031 A 
ATOM      3  C   UNL     1       0.036  -0.587  -1.113  0.00  0.00    +0.025 A 
ATOM      4  C   UNL     1      -1.124  -1.075  -0.537  0.00  0.00    +0.015 A 
ATOM      5  N   UNL     1      -1.085  -1.856   0.525  0.00  0.00    -0.346 N 
ATOM      6  C   UNL     1       0.060  -2.209   1.089  0.00  0.00    +0.114 A 
ATOM      7  C   UNL     1       1.282  -1.758   0.558  0.00  0.00    +0.104 A 
ATOM      8  N   UNL     1       0.054  -3.030   2.200  0.00  0.00    -0.310 N 
ATOM      9  C   UNL     1      -0.025  -2.458   3.551  0.00  0.00    +0.072 C 
ATOM     10  C   UNL     1      -1.194  -3.112   4.296  0.00  0.00    +0.022 C 
ATOM     11  C   UNL     1      -1.026  -4.633   4.265  0.00  0.00    +0.004 C 
ATOM     12  C   UNL     1      -1.044  -5.120   2.815  0.00  0.00    +0.022 C 
ATOM     13  C   UNL     1       0.120  -4.490   2.053  0.00  0.00    +0.072 C 
ATOM     14  C   UNL     1       0.023  -4.862   0.572  0.00  0.00    +0.028 C 
ATOM     15  C   UNL     1      -0.253  -0.948   3.458  0.00  0.00    +0.028 C 
ATOM     16  C   UNL     1      -2.458  -0.707  -1.135  0.00  0.00    +0.063 C 
ATOM     17  H   UNL     1      -1.917  -2.180   0.903  0.00  0.00    +0.167 HD
ENDROOT
BRANCH   7  18
ATOM     18  C   UNL     1       2.558  -2.151   1.175  0.00  0.00    +0.390 C 
ATOM     19  O   UNL     1       2.997  -1.519   2.127  0.00  0.00    -0.240 OA
ATOM     20  O   UNL     1       3.179  -3.110   0.738  0.00  0.00    -0.240 OA
ENDBRANCH   7  18
TORSDOF 1
