REMARK  Name = ZINC14667509
REMARK  8 active torsions:
REMARK  status: ('A' for Active; 'I' for Inactive)
REMARK    1  A    between atoms: C_1  and  C_2
REMARK    2  A    between atoms: C_5  and  N_22
REMARK    3  A    between atoms: C_7  and  N_8
REMARK    4  A    between atoms: C_9  and  C_11
REMARK    5  A    between atoms: C_16  and  O_17
REMARK    6  A    between atoms: O_17  and  C_18
REMARK    7  A    between atoms: C_18  and  C_19
REMARK    8  A    between atoms: C_18  and  C_20
REMARK                            x       y       z     vdW  Elec       q    Type
REMARK                         _______ _______ _______ _____ _____    ______ ____
ROOT
ATOM      1  N   UNL     1      -1.195  -0.725   0.049  0.00  0.00    -0.281 N 
ATOM      2  C   UNL     1      -1.179  -2.067  -0.072  0.00  0.00    +0.252 C 
ATOM      3  O   UNL     1      -0.121  -2.666  -0.066  0.00  0.00    -0.270 OA
ATOM      4  H   UNL     1      -2.040  -0.252   0.104  0.00  0.00    +0.155 HD
ENDROOT
BRANCH   1  11
ATOM      5  C   UNL     1      -1.113   1.854  -1.152  0.00  0.00    +0.045 C 
ATOM      6  C   UNL     1       0.092   1.250  -0.476  0.00  0.00    -0.029 A 
ATOM      7  C   UNL     1       1.281   1.951  -0.429  0.00  0.00    +0.007 A 
ATOM      8  C   UNL     1       2.388   1.396   0.186  0.00  0.00    +0.033 A 
ATOM      9  C   UNL     1       2.309   0.138   0.755  0.00  0.00    +0.128 A 
ATOM     10  C   UNL     1       1.123  -0.568   0.711  0.00  0.00    +0.056 A 
ATOM     11  C   UNL     1       0.008  -0.013   0.094  0.00  0.00    +0.039 A 
BRANCH   9  12
ATOM     12  N   UNL     1       3.496  -0.453   1.412  0.00  0.00    +0.056 N 
ATOM     13  O   UNL     1       3.427  -1.561   1.913  0.00  0.00    -0.126 OA
ATOM     14  O   UNL     1       4.543   0.169   1.451  0.00  0.00    -0.126 OA
ENDBRANCH   9  12
ENDBRANCH   1  11
BRANCH   2  15
ATOM     15  C   UNL     1      -2.446  -2.809  -0.212  0.00  0.00    +0.080 A 
ATOM     16  C   UNL     1      -3.665  -2.126  -0.213  0.00  0.00    +0.032 A 
ATOM     17  C   UNL     1      -4.845  -2.825  -0.350  0.00  0.00    +0.019 A 
ATOM     18  C   UNL     1      -4.829  -4.206  -0.474  0.00  0.00    +0.019 A 
ATOM     19  C   UNL     1      -3.632  -4.894  -0.468  0.00  0.00    +0.047 A 
ATOM     20  C   UNL     1      -2.435  -4.205  -0.337  0.00  0.00    +0.133 A 
ATOM     21 BR   UNL     1      -6.493  -1.898  -0.361  0.00  0.00    -0.050 Br
BRANCH  20  22
ATOM     22  O   UNL     1      -1.258  -4.880  -0.332  0.00  0.00    -0.489 OA
BRANCH  22  23
ATOM     23  C   UNL     1      -1.317  -6.289  -0.561  0.00  0.00    +0.167 C 
ATOM     24  C   UNL     1      -1.355  -6.561  -2.066  0.00  0.00    +0.051 C 
ATOM     25  C   UNL     1      -0.082  -6.957   0.047  0.00  0.00    +0.051 C 
ENDBRANCH  22  23
ENDBRANCH  20  22
ENDBRANCH   2  15
TORSDOF 5
