REMARK  Name = ZINC50443253
REMARK  6 active torsions:
REMARK  status: ('A' for Active; 'I' for Inactive)
REMARK    1  A    between atoms: C_1  and  C_2
REMARK    2  A    between atoms: C_7  and  N_12
REMARK    3  A    between atoms: C_9  and  C_11
REMARK    4  A    between atoms: N_12  and  C_13
REMARK    5  A    between atoms: C_13  and  C_14
REMARK    6  A    between atoms: C_19  and  N_20
REMARK                            x       y       z     vdW  Elec       q    Type
REMARK                         _______ _______ _______ _____ _____    ______ ____
ROOT
ATOM      1  N   UNL     1       0.736  -0.504   3.691  0.00  0.00    +0.384 N 
ATOM      2  H   UNL     1       0.679  -1.511   3.728  0.00  0.00    -0.085 HD
ATOM      3  H   UNL     1       1.704  -0.224   3.642  0.00  0.00    -0.085 HD
ENDROOT
BRANCH   1   9
ATOM      4  C   UNL     1      -0.019   1.526   0.010  0.00  0.00    +0.008 C 
ATOM      5  C   UNL     1       0.002  -0.004   0.002  0.00  0.00    -0.013 C 
ATOM      6  C   UNL     1      -1.433  -0.534   0.013  0.00  0.00    +0.003 C 
ATOM      7  C   UNL     1      -2.149  -0.040   1.272  0.00  0.00    -0.001 C 
ATOM      8  C   UNL     1      -1.409  -0.547   2.511  0.00  0.00    -0.015 C 
ATOM      9  C   UNL     1       0.026  -0.018   2.500  0.00  0.00    -0.068 C 
ATOM     10  C   UNL     1       0.742  -0.511   1.242  0.00  0.00    -0.025 C 
ATOM     11  C   UNL     1       2.178   0.019   1.231  0.00  0.00    +0.006 C 
ENDBRANCH   1   9
BRANCH   1  12
ATOM     12  C   UNL     1       0.121   0.067   4.896  0.00  0.00    -0.044 C 
BRANCH  12  13
ATOM     13  C   UNL     1       0.850  -0.432   6.117  0.00  0.00    -0.034 A 
ATOM     14  C   UNL     1       0.325  -1.476   6.856  0.00  0.00    +0.005 A 
ATOM     15  C   UNL     1       0.993  -1.935   7.976  0.00  0.00    +0.020 A 
ATOM     16  C   UNL     1       2.187  -1.349   8.356  0.00  0.00    +0.043 A 
ATOM     17  C   UNL     1       2.712  -0.305   7.616  0.00  0.00    +0.053 A 
ATOM     18  C   UNL     1       2.045   0.149   6.494  0.00  0.00    +0.129 A 
ATOM     19 CL   UNL     1       3.027  -1.924   9.763  0.00  0.00    -0.083 Cl
BRANCH  18  20
ATOM     20  N   UNL     1       2.609   1.263   5.698  0.00  0.00    +0.057 N 
ATOM     21  O   UNL     1       3.655   1.772   6.028  0.00  0.00    -0.126 OA
ATOM     22  O   UNL     1       2.024   1.663   4.719  0.00  0.00    -0.126 OA
ENDBRANCH  18  20
ENDBRANCH  12  13
ENDBRANCH   1  12
TORSDOF 4
