REMARK  Name = ZINC07131893
REMARK  5 active torsions:
REMARK  status: ('A' for Active; 'I' for Inactive)
REMARK    1  A    between atoms: C_4  and  N_7
REMARK    2  A    between atoms: C_11  and  C_12
REMARK    3  A    between atoms: N_14  and  N_15
REMARK    4  A    between atoms: N_15  and  S_16
REMARK    5  A    between atoms: S_16  and  C_19
REMARK                            x       y       z     vdW  Elec       q    Type
REMARK                         _______ _______ _______ _____ _____    ______ ____
ROOT
ATOM      1  C   UNL     1      -7.028  -3.001   3.100  0.00  0.00    +0.277 C 
ATOM      2  O   UNL     1      -8.177  -3.198   2.752  0.00  0.00    -0.267 OA
ATOM      3  N   UNL     1      -6.180  -2.343   2.285  0.00  0.00    -0.227 N 
ATOM      4  H   UNL     1      -5.283  -2.131   2.587  0.00  0.00    +0.171 HD
ENDROOT
BRANCH   1   9
ATOM      5  N   UNL     1      -7.312  -4.153   5.357  0.00  0.00    -0.295 N 
ATOM      6  C   UNL     1      -6.495  -4.402   6.398  0.00  0.00    +0.204 A 
ATOM      7  N   UNL     1      -5.309  -3.912   6.139  0.00  0.00    -0.243 NA
ATOM      8  C   UNL     1      -5.311  -3.341   4.935  0.00  0.00    +0.144 A 
ATOM      9  C   UNL     1      -6.565  -3.479   4.408  0.00  0.00    +0.129 A 
BRANCH   5  13
ATOM     10  C   UNL     1     -11.329  -5.224   5.047  0.00  0.00    +0.000 A 
ATOM     11  C   UNL     1     -10.373  -6.193   5.293  0.00  0.00    +0.002 A 
ATOM     12  C   UNL     1      -9.042  -5.841   5.396  0.00  0.00    +0.026 A 
ATOM     13  C   UNL     1      -8.663  -4.513   5.252  0.00  0.00    +0.048 A 
ATOM     14  C   UNL     1      -9.625  -3.542   5.011  0.00  0.00    +0.026 A 
ATOM     15  C   UNL     1     -10.954  -3.900   4.904  0.00  0.00    +0.002 A 
ENDBRANCH   5  13
ENDBRANCH   1   9
BRANCH   3  16
ATOM     16  N   UNL     1      -6.594  -1.966   1.001  0.00  0.00    -0.108 NA
ATOM     17  H   UNL     1      -6.944  -2.632   0.389  0.00  0.00    +0.172 HD
BRANCH  16  18
ATOM     18  S   UNL     1      -6.487  -0.382   0.528  0.00  0.00    +0.074 S 
ATOM     19  O   UNL     1      -7.171   0.383   1.511  0.00  0.00    -0.152 OA
ATOM     20  O   UNL     1      -6.839  -0.344  -0.848  0.00  0.00    -0.152 OA
BRANCH  18  21
ATOM     21  C   UNL     1      -4.788   0.077   0.626  0.00  0.00    +0.107 A 
ATOM     22  C   UNL     1      -4.279   0.606   1.798  0.00  0.00    +0.029 A 
ATOM     23  C   UNL     1      -2.949   0.965   1.866  0.00  0.00    +0.006 A 
ATOM     24  C   UNL     1      -2.116   0.799   0.767  0.00  0.00    -0.044 A 
ATOM     25  C   UNL     1      -2.622   0.268  -0.398  0.00  0.00    -0.042 A 
ATOM     26  C   UNL     1      -3.962  -0.091  -0.465  0.00  0.00    +0.032 A 
ATOM     27  C   UNL     1      -1.776   0.053  -1.625  0.00  0.00    +0.035 C 
ATOM     28  C   UNL     1      -0.492   0.876  -1.544  0.00  0.00    +0.005 C 
ATOM     29  C   UNL     1       0.177   0.597  -0.193  0.00  0.00    +0.005 C 
ATOM     30  C   UNL     1      -0.677   1.224   0.907  0.00  0.00    +0.035 C 
ENDBRANCH  18  21
ENDBRANCH  16  18
ENDBRANCH   3  16
TORSDOF 5
