REMARK  Name = ZINC39037524
REMARK  7 active torsions:
REMARK  status: ('A' for Active; 'I' for Inactive)
REMARK    1  A    between atoms: C_1  and  O_2
REMARK    2  A    between atoms: O_2  and  C_3
REMARK    3  A    between atoms: C_6  and  C_11
REMARK    4  A    between atoms: C_8  and  O_9
REMARK    5  A    between atoms: O_9  and  C_10
REMARK    6  A    between atoms: C_12  and  C_13
REMARK    7  A    between atoms: C_21  and  C_25
REMARK                            x       y       z     vdW  Elec       q    Type
REMARK                         _______ _______ _______ _____ _____    ______ ____
ROOT
ATOM      1  C   UNL     1       3.808  -2.449   6.389  0.00  0.00    +0.240 C 
ATOM      2  O   UNL     1       3.326  -1.900   5.415  0.00  0.00    -0.271 OA
ATOM      3  N   UNL     1       4.277  -1.712   7.415  0.00  0.00    -0.293 N 
ATOM      4  C   UNL     1       4.119  -0.250   7.433  0.00  0.00    +0.114 C 
ATOM      5  C   UNL     1       3.230   0.151   8.615  0.00  0.00    +0.076 C 
ATOM      6  C   UNL     1       3.687  -0.594   9.849  0.00  0.00    +0.066 C 
ATOM      7  C   UNL     1       4.449  -1.692   9.805  0.00  0.00    -0.002 C 
ATOM      8  C   UNL     1       4.960  -2.348   8.559  0.00  0.00    +0.143 C 
ATOM      9  C   UNL     1       4.648  -2.088  11.244  0.00  0.00    +0.158 C 
ATOM     10  N   UNL     1       3.897  -1.047  11.971  0.00  0.00    -0.297 N 
ATOM     11  N   UNL     1       3.410  -0.279  11.135  0.00  0.00    -0.182 NA
ATOM     12  H   UNL     1       3.802  -0.977  12.934  0.00  0.00    +0.183 HD
ENDROOT
BRANCH   9  13
ATOM     13  C   UNL     1       4.069  -3.454  11.509  0.00  0.00    -0.020 A 
ATOM     14  C   UNL     1       2.709  -3.602  11.705  0.00  0.00    +0.006 A 
ATOM     15  C   UNL     1       2.178  -4.855  11.947  0.00  0.00    +0.000 A 
ATOM     16  C   UNL     1       3.007  -5.960  11.994  0.00  0.00    +0.000 A 
ATOM     17  C   UNL     1       4.367  -5.812  11.797  0.00  0.00    +0.000 A 
ATOM     18  C   UNL     1       4.898  -4.560  11.550  0.00  0.00    +0.006 A 
ENDBRANCH   9  13
BRANCH   1  20
ATOM     19  C   UNL     1       3.313  -4.650   5.468  0.00  0.00    +0.013 C 
ATOM     20  C   UNL     1       3.877  -3.909   6.446  0.00  0.00    +0.068 C 
BRANCH  19  24
ATOM     21  C   UNL     1       3.515  -8.886   5.639  0.00  0.00    +0.162 A 
ATOM     22  C   UNL     1       4.096  -8.123   6.643  0.00  0.00    +0.050 A 
ATOM     23  C   UNL     1       4.032  -6.748   6.592  0.00  0.00    +0.012 A 
ATOM     24  C   UNL     1       3.382  -6.117   5.525  0.00  0.00    -0.021 A 
ATOM     25  C   UNL     1       2.798  -6.887   4.513  0.00  0.00    +0.057 A 
ATOM     26  C   UNL     1       2.871  -8.265   4.570  0.00  0.00    +0.162 A 
BRANCH  21  28
ATOM     27  C   UNL     1       4.256 -10.813   6.817  0.00  0.00    +0.277 C 
ATOM     28  O   UNL     1       3.581 -10.242   5.695  0.00  0.00    -0.491 OA
ENDBRANCH  21  28
BRANCH  26  29
ATOM     29  O   UNL     1       2.308  -9.017   3.586  0.00  0.00    -0.491 OA
ATOM     30  C   UNL     1       1.664  -8.314   2.521  0.00  0.00    +0.277 C 
ENDBRANCH  26  29
ENDBRANCH  19  24
ENDBRANCH   1  20
TORSDOF 5
