REMARK  Name = ZINC39413590
REMARK  1 active torsions:
REMARK  status: ('A' for Active; 'I' for Inactive)
REMARK    1  A    between atoms: C_1  and  C_2
REMARK                            x       y       z     vdW  Elec       q    Type
REMARK                         _______ _______ _______ _____ _____    ______ ____
ROOT
ATOM      1  C   UNL     1      -0.018   1.503   0.010  0.00  0.00    +0.044 C 
ATOM      2  C   UNL     1       0.002  -0.004   0.002  0.00  0.00    -0.050 A 
ATOM      3  C   UNL     1       0.005  -0.673  -1.205  0.00  0.00    +0.005 A 
ATOM      4  C   UNL     1       0.023  -2.057  -1.277  0.00  0.00    +0.024 A 
ATOM      5  C   UNL     1       0.038  -2.759  -0.071  0.00  0.00    +0.041 A 
ATOM      6  C   UNL     1       0.035  -2.068   1.146  0.00  0.00    +0.024 A 
ATOM      7  C   UNL     1       0.023  -0.692   1.211  0.00  0.00    +0.013 A 
ATOM      8  C   UNL     1       0.052  -3.110   2.222  0.00  0.00    +0.206 C 
ATOM      9  C   UNL     1       0.063  -4.423   1.467  0.00  0.00    +0.264 C 
ATOM     10  O   UNL     1       0.076  -5.534   1.954  0.00  0.00    -0.271 OA
ATOM     11  N   UNL     1       0.056  -4.125   0.152  0.00  0.00    -0.282 N 
ATOM     12  N   UNL     1       1.284  -2.997   3.019  0.00  0.00    -0.306 N 
ATOM     13  C   UNL     1       1.260  -2.097   4.057  0.00  0.00    +0.080 A 
ATOM     14  C   UNL     1       0.067  -1.689   4.672  0.00  0.00    +0.068 A 
ATOM     15  C   UNL     1       0.213  -0.715   5.740  0.00  0.00    -0.023 A 
ATOM     16  C   UNL     1       1.489  -0.351   5.998  0.00  0.00    -0.005 A 
ATOM     17  S   UNL     1       2.467  -1.279   4.849  0.00  0.00    -0.078 S 
ATOM     18  C   UNL     1       1.955   0.626   7.032  0.00  0.00    +0.043 C 
ATOM     19  C   UNL     1       0.744   1.441   7.508  0.00  0.00    +0.005 C 
ATOM     20  C   UNL     1      -0.405   0.480   7.825  0.00  0.00    +0.005 C 
ATOM     21  C   UNL     1      -0.948  -0.128   6.530  0.00  0.00    +0.037 C 
ATOM     22  C   UNL     1      -1.199  -2.286   4.187  0.00  0.00    +0.249 C 
ATOM     23  O   UNL     1      -2.247  -2.122   4.784  0.00  0.00    -0.270 OA
ATOM     24  N   UNL     1      -1.141  -3.019   3.053  0.00  0.00    -0.279 N 
ATOM     25  H   UNL     1       0.063  -4.789  -0.555  0.00  0.00    +0.155 HD
ATOM     26  H   UNL     1       2.071  -3.529   2.822  0.00  0.00    +0.149 HD
ATOM     27  H   UNL     1      -1.933  -3.508   2.780  0.00  0.00    +0.152 HD
ENDROOT
TORSDOF 0
