REMARK  Name = ZINC61405869
REMARK  8 active torsions:
REMARK  status: ('A' for Active; 'I' for Inactive)
REMARK    1  A    between atoms: C_1  and  C_2
REMARK    2  A    between atoms: C_3  and  C_11
REMARK    3  A    between atoms: C_5  and  C_7
REMARK    4  A    between atoms: C_7  and  C_8
REMARK    5  A    between atoms: C_7  and  C_9
REMARK    6  A    between atoms: C_7  and  C_10
REMARK    7  A    between atoms: C_15  and  C_20
REMARK    8  A    between atoms: C_18  and  C_19
REMARK                            x       y       z     vdW  Elec       q    Type
REMARK                         _______ _______ _______ _____ _____    ______ ____
ROOT
ATOM      1  C   UNL     1       0.410  -0.281  -2.557  0.00  0.00    +0.255 C 
ATOM      2  O   UNL     1       0.257   0.910  -2.753  0.00  0.00    -0.269 OA
ATOM      3  N   UNL     1       0.340  -1.148  -3.586  0.00  0.00    -0.294 N 
ATOM      4  C   UNL     1       0.396  -2.597  -3.350  0.00  0.00    +0.121 C 
ATOM      5  C   UNL     1       1.505  -3.195  -4.220  0.00  0.00    +0.092 C 
ATOM      6  C   UNL     1       1.269  -2.805  -5.681  0.00  0.00    +0.016 C 
ATOM      7  C   UNL     1       1.316  -1.282  -5.818  0.00  0.00    +0.023 C 
ATOM      8  C   UNL     1       0.199  -0.662  -4.966  0.00  0.00    +0.073 C 
ATOM      9  C   UNL     1       0.321   0.863  -4.987  0.00  0.00    +0.028 C 
ENDROOT
BRANCH   1  12
ATOM     10  C   UNL     1       2.453   0.870  -0.513  0.00  0.00    +0.067 C 
ATOM     11  C   UNL     1       1.556  -0.312  -0.251  0.00  0.00    +0.058 A 
ATOM     12  C   UNL     1       0.671  -0.773  -1.200  0.00  0.00    +0.097 A 
ATOM     13  S   UNL     1      -0.071  -2.138  -0.318  0.00  0.00    -0.067 S 
ATOM     14  C   UNL     1       0.794  -1.983   1.117  0.00  0.00    +0.085 A 
ATOM     15  N   UNL     1       1.581  -0.956   0.889  0.00  0.00    -0.248 NA
BRANCH  14  16
ATOM     16  C   UNL     1       0.694  -2.824   2.364  0.00  0.00    +0.011 C 
ATOM     17  C   UNL     1       0.291  -1.940   3.545  0.00  0.00    +0.017 C 
ATOM     18  C   UNL     1      -0.361  -3.914   2.160  0.00  0.00    +0.017 C 
ATOM     19  C   UNL     1       2.049  -3.473   2.651  0.00  0.00    +0.017 C 
ENDBRANCH  14  16
ENDBRANCH   1  12
BRANCH   5  20
ATOM     20  C   UNL     1       1.491  -4.697  -4.092  0.00  0.00    +0.215 C 
ATOM     21  O   UNL     1       1.312  -5.388  -5.072  0.00  0.00    -0.276 OA
ATOM     22  N   UNL     1       1.677  -5.272  -2.887  0.00  0.00    -0.329 N 
ATOM     23  H   UNL     1       1.820  -4.719  -2.103  0.00  0.00    +0.145 HD
ATOM     24  H   UNL     1       1.667  -6.238  -2.804  0.00  0.00    +0.145 HD
ENDBRANCH   5  20
TORSDOF 3
