REMARK  Name = ZINC16751272
REMARK  2 active torsions:
REMARK  status: ('A' for Active; 'I' for Inactive)
REMARK    1  A    between atoms: C_1  and  C_2
REMARK    2  A    between atoms: C_14  and  C_16
REMARK                            x       y       z     vdW  Elec       q    Type
REMARK                         _______ _______ _______ _____ _____    ______ ____
ROOT
ATOM      1  C   UNL     1      -0.018   1.503   0.010  0.00  0.00    +0.047 C 
ATOM      2  C   UNL     1       0.002  -0.004   0.002  0.00  0.00    -0.009 A 
ATOM      3  C   UNL     1       0.006  -0.684  -1.178  0.00  0.00    +0.008 A 
ATOM      4  C   UNL     1       0.025  -2.087  -1.167  0.00  0.00    +0.019 A 
ATOM      5  C   UNL     1       0.041  -2.758   0.005  0.00  0.00    +0.096 A 
ATOM      6  N   UNL     1       0.037  -2.089   1.196  0.00  0.00    -0.269 N 
ATOM      7  C   UNL     1       0.023  -0.720   1.214  0.00  0.00    +0.122 A 
ATOM      8  N   UNL     1       0.025  -0.053   2.366  0.00  0.00    -0.335 N 
ATOM      9  C   UNL     1       0.044  -0.688   3.519  0.00  0.00    +0.092 A 
ATOM     10  C   UNL     1       0.065  -2.104   3.599  0.00  0.00    +0.071 A 
ATOM     11  C   UNL     1       0.052  -2.796   2.344  0.00  0.00    +0.266 A 
ATOM     12  O   UNL     1       0.069  -4.013   2.314  0.00  0.00    -0.267 OA
ATOM     13  C   UNL     1       0.083  -2.639   4.888  0.00  0.00    +0.038 A 
ATOM     14  C   UNL     1       0.081  -1.795   5.975  0.00  0.00    +0.103 A 
ATOM     15  S   UNL     1       0.052  -0.178   5.221  0.00  0.00    -0.064 S 
ATOM     16  H   UNL     1       0.011   0.917   2.356  0.00  0.00    +0.168 HD
ENDROOT
BRANCH  14  17
ATOM     17  C   UNL     1       0.096  -2.127   7.351  0.00  0.00    +0.393 C 
ATOM     18  O   UNL     1       0.115  -3.303   7.698  0.00  0.00    -0.240 OA
ATOM     19  O   UNL     1       0.091  -1.240   8.196  0.00  0.00    -0.240 OA
ENDBRANCH  14  17
TORSDOF 1
