REMARK  Name = ZINC37155651
REMARK  5 active torsions:
REMARK  status: ('A' for Active; 'I' for Inactive)
REMARK    1  A    between atoms: C_1  and  C_2
REMARK    2  A    between atoms: C_6  and  C_23
REMARK    3  A    between atoms: C_8  and  S_11
REMARK    4  A    between atoms: S_11  and  C_12
REMARK    5  A    between atoms: N_16  and  C_17
REMARK                            x       y       z     vdW  Elec       q    Type
REMARK                         _______ _______ _______ _____ _____    ______ ____
ROOT
ATOM      1  C   UNL     1       4.620   0.222   2.620  0.00  0.00    +0.214 A 
ATOM      2  N   UNL     1       5.021   1.065   1.693  0.00  0.00    -0.101 NA
ATOM      3  N   UNL     1       6.216   1.467   1.935  0.00  0.00    -0.022 NA
ATOM      4  N   UNL     1       6.663   0.922   3.015  0.00  0.00    -0.038 NA
ATOM      5  N   UNL     1       5.639   0.094   3.507  0.00  0.00    -0.187 N 
ENDROOT
BRANCH   5   6
ATOM      6  C   UNL     1       5.667  -0.697   4.665  0.00  0.00    +0.070 A 
ATOM      7  C   UNL     1       4.511  -0.875   5.413  0.00  0.00    +0.028 A 
ATOM      8  C   UNL     1       4.541  -1.655   6.553  0.00  0.00    +0.002 A 
ATOM      9  C   UNL     1       5.720  -2.258   6.949  0.00  0.00    +0.000 A 
ATOM     10  C   UNL     1       6.873  -2.083   6.205  0.00  0.00    +0.002 A 
ATOM     11  C   UNL     1       6.848  -1.309   5.062  0.00  0.00    +0.028 A 
ENDBRANCH   5   6
BRANCH   1  12
ATOM     12  S   UNL     1       3.055  -0.582   2.700  0.00  0.00    -0.080 S 
BRANCH  12  18
ATOM     13  C   UNL     1      -0.019   1.526   0.010  0.00  0.00    +0.007 C 
ATOM     14  C   UNL     1       0.002  -0.004   0.002  0.00  0.00    -0.013 C 
ATOM     15  C   UNL     1       0.718  -0.497  -1.257  0.00  0.00    +0.004 C 
ATOM     16  C   UNL     1       2.154   0.032  -1.268  0.00  0.00    +0.020 C 
ATOM     17  C   UNL     1       2.894  -0.475  -0.028  0.00  0.00    +0.105 C 
ATOM     18  C   UNL     1       2.178   0.019   1.231  0.00  0.00    +0.071 C 
ATOM     19  C   UNL     1       0.742  -0.511   1.242  0.00  0.00    +0.019 C 
BRANCH  17  20
ATOM     20  C   UNL     1       2.914  -1.947  -0.036  0.00  0.00    +0.067 C 
ATOM     21  N   UNL     1       2.929  -3.083  -0.043  0.00  0.00    -0.196 NA
ENDBRANCH  17  20
ENDBRANCH  12  18
ENDBRANCH   1  12
TORSDOF 4
