REMARK  Name = ZINC05345377
REMARK  8 active torsions:
REMARK  status: ('A' for Active; 'I' for Inactive)
REMARK    1  A    between atoms: C_1  and  C_2
REMARK    2  A    between atoms: C_2  and  C_3
REMARK    3  A    between atoms: C_3  and  C_4
REMARK    4  A    between atoms: C_4  and  N_5
REMARK    5  A    between atoms: C_10  and  C_27
REMARK    6  A    between atoms: C_27  and  C_28
REMARK    7  A    between atoms: C_28  and  C_29
REMARK    8  A    between atoms: C_28  and  C_30
REMARK                            x       y       z     vdW  Elec       q    Type
REMARK                         _______ _______ _______ _____ _____    ______ ____
ROOT
ATOM      1  N   UNL     1      -2.434  -4.856   0.529  0.00  0.00    -0.242 N 
ATOM      2  C   UNL     1      -2.195  -3.957  -0.433  0.00  0.00    +0.224 C 
ATOM      3  O   UNL     1      -1.832  -4.217  -1.560  0.00  0.00    -0.275 OA
ATOM      4  C   UNL     1      -2.447  -2.567   0.102  0.00  0.00    +0.073 C 
ATOM      5  C   UNL     1      -1.108  -1.806   0.203  0.00  0.00    -0.057 C 
ATOM      6  C   UNL     1      -1.743  -2.206   2.415  0.00  0.00    +0.050 C 
ATOM      7  C   UNL     1      -2.870  -2.823   1.579  0.00  0.00    +0.088 C 
ATOM      8  C   UNL     1      -2.822  -4.330   1.697  0.00  0.00    +0.225 C 
ATOM      9  O   UNL     1      -3.092  -4.963   2.695  0.00  0.00    -0.275 OA
ATOM     10  C   UNL     1      -1.481  -3.004   3.661  0.00  0.00    -0.026 A 
ATOM     11  C   UNL     1      -1.113  -4.311   3.890  0.00  0.00    +0.024 A 
ATOM     12  C   UNL     1      -0.945  -4.767   5.186  0.00  0.00    +0.041 A 
ATOM     13  C   UNL     1      -1.148  -3.905   6.250  0.00  0.00    +0.022 A 
ATOM     14  C   UNL     1      -1.517  -2.595   6.025  0.00  0.00    +0.025 A 
ATOM     15  C   UNL     1      -1.688  -2.129   4.723  0.00  0.00    +0.036 A 
ATOM     16  N   UNL     1      -2.053  -0.868   4.246  0.00  0.00    -0.286 N 
ATOM     17  C   UNL     1      -2.108  -0.830   2.901  0.00  0.00    +0.211 C 
ATOM     18  O   UNL     1      -2.397   0.127   2.215  0.00  0.00    -0.277 OA
ATOM     19 CL   UNL     1      -0.481  -6.414   5.477  0.00  0.00    -0.084 Cl
ATOM     20  H   UNL     1      -2.244  -0.107   4.818  0.00  0.00    +0.155 HD
ATOM     21  N   UNL     1      -0.594  -2.163   1.527  0.00  0.00    +0.394 N 
ATOM     22  H   UNL     1       0.077  -1.456   1.849  0.00  0.00    -0.083 HD
ATOM     23  H   UNL     1      -0.136  -3.081   1.495  0.00  0.00    -0.083 HD
ENDROOT
BRANCH   1  24
ATOM     24  C   UNL     1      -2.284  -6.298   0.321  0.00  0.00    +0.116 C 
BRANCH  24  25
ATOM     25  C   UNL     1      -3.609  -6.883  -0.172  0.00  0.00    +0.019 C 
BRANCH  25  27
ATOM     26  C   UNL     1      -4.777  -8.974  -0.883  0.00  0.00    +0.004 C 
ATOM     27  C   UNL     1      -3.452  -8.389  -0.390  0.00  0.00    -0.002 C 
ENDBRANCH  25  27
ENDBRANCH  24  25
ENDBRANCH   1  24
BRANCH   5  28
ATOM     28  C   UNL     1      -1.346  -0.297   0.118  0.00  0.00    -0.012 C 
BRANCH  28  29
ATOM     29  C   UNL     1      -1.230   0.156  -1.339  0.00  0.00    -0.019 C 
ATOM     30  C   UNL     1      -1.605   1.635  -1.444  0.00  0.00    +0.007 C 
ATOM     31  C   UNL     1       0.209  -0.040  -1.821  0.00  0.00    +0.007 C 
ENDBRANCH  28  29
ENDBRANCH   5  28
TORSDOF 5
