REMARK  Name = ZINC22079292
REMARK  8 active torsions:
REMARK  status: ('A' for Active; 'I' for Inactive)
REMARK    1  A    between atoms: C_1  and  C_2
REMARK    2  A    between atoms: N_8  and  C_9
REMARK    3  A    between atoms: C_12  and  C_29
REMARK    4  A    between atoms: C_14  and  N_15
REMARK    5  A    between atoms: C_16  and  C_18
REMARK    6  A    between atoms: C_21  and  O_27
REMARK    7  A    between atoms: C_22  and  N_24
REMARK    8  A    between atoms: O_27  and  C_28
REMARK                            x       y       z     vdW  Elec       q    Type
REMARK                         _______ _______ _______ _____ _____    ______ ____
ROOT
ATOM      1  C   UNL     1       1.364   0.393   2.072  0.00  0.00    +0.051 A 
ATOM      2  C   UNL     1       0.688   0.941   3.152  0.00  0.00    +0.025 A 
ATOM      3  C   UNL     1       1.336   1.819   4.000  0.00  0.00    +0.014 A 
ATOM      4  C   UNL     1       2.659   2.154   3.776  0.00  0.00    +0.057 A 
ATOM      5  C   UNL     1       3.341   1.613   2.702  0.00  0.00    +0.037 A 
ATOM      6  C   UNL     1       2.700   0.727   1.849  0.00  0.00    +0.055 A 
ENDROOT
BRANCH   1  13
ATOM      7  C   UNL     1      -0.025   1.527   0.040  0.00  0.00    +0.028 C 
ATOM      8  C   UNL     1      -0.004  -0.003   0.027  0.00  0.00    +0.070 C 
ATOM      9  C   UNL     1      -1.439  -0.537   0.054  0.00  0.00    +0.022 C 
ATOM     10  C   UNL     1      -1.410  -2.062   0.181  0.00  0.00    +0.003 C 
ATOM     11  C   UNL     1      -0.724  -2.453   1.492  0.00  0.00    +0.019 C 
ATOM     12  C   UNL     1       0.720  -1.941   1.481  0.00  0.00    +0.105 C 
ATOM     13  N   UNL     1       0.710  -0.496   1.213  0.00  0.00    -0.326 N 
ENDBRANCH   1  13
BRANCH   6  14
ATOM     14  N   UNL     1       3.390   0.173   0.763  0.00  0.00    -0.280 N 
ATOM     15  C   UNL     1       4.317   0.902   0.111  0.00  0.00    +0.248 C 
ATOM     16  O   UNL     1       4.612   2.011   0.514  0.00  0.00    -0.270 OA
ATOM     17  H   UNL     1       3.202  -0.736   0.481  0.00  0.00    +0.155 HD
BRANCH  15  18
ATOM     18  C   UNL     1       4.973   0.356  -1.092  0.00  0.00    +0.039 A 
ATOM     19  C   UNL     1       4.631  -0.916  -1.560  0.00  0.00    +0.017 A 
ATOM     20  C   UNL     1       5.246  -1.423  -2.683  0.00  0.00    +0.049 A 
ATOM     21  C   UNL     1       6.206  -0.671  -3.351  0.00  0.00    +0.150 A 
ATOM     22  C   UNL     1       6.549   0.594  -2.889  0.00  0.00    +0.168 A 
ATOM     23  C   UNL     1       5.934   1.110  -1.770  0.00  0.00    +0.049 A 
BRANCH  22  24
ATOM     24  N   UNL     1       7.572   1.390  -3.604  0.00  0.00    +0.060 N 
ATOM     25  O   UNL     1       7.871   2.490  -3.202  0.00  0.00    -0.126 OA
ATOM     26  O   UNL     1       8.109   0.939  -4.589  0.00  0.00    -0.126 OA
ENDBRANCH  22  24
BRANCH  21  27
ATOM     27  O   UNL     1       6.810  -1.174  -4.457  0.00  0.00    -0.493 OA
ATOM     28  C   UNL     1       6.411  -2.480  -4.878  0.00  0.00    +0.277 C 
ENDBRANCH  21  27
ENDBRANCH  15  18
ENDBRANCH   6  14
BRANCH   4  29
ATOM     29  C   UNL     1       3.359   3.112   4.705  0.00  0.00    +0.417 C 
ATOM     30  F   UNL     1       2.473   3.523   5.706  0.00  0.00    -0.166 F 
ATOM     31  F   UNL     1       4.460   2.476   5.288  0.00  0.00    -0.166 F 
ATOM     32  F   UNL     1       3.795   4.228   3.981  0.00  0.00    -0.166 F 
ENDBRANCH   4  29
TORSDOF 6
