REMARK  Name = ZINC03242915
REMARK  1 active torsions:
REMARK  status: ('A' for Active; 'I' for Inactive)
REMARK    1  A    between atoms: C_9  and  C_12
REMARK                            x       y       z     vdW  Elec       q    Type
REMARK                         _______ _______ _______ _____ _____    ______ ____
ROOT
ATOM      1  C   UNL     1       4.825  -2.973  -0.061  0.00  0.00    +0.028 C 
ATOM      2  C   UNL     1       4.735  -4.343   0.036  0.00  0.00    +0.047 C 
ATOM      3  C   UNL     1       3.504  -5.166   0.060  0.00  0.00    +0.008 A 
ATOM      4  C   UNL     1       2.150  -4.856  -0.003  0.00  0.00    +0.010 A 
ATOM      5  C   UNL     1       1.213  -5.869   0.043  0.00  0.00    +0.001 A 
ATOM      6  C   UNL     1       1.622  -7.188   0.150  0.00  0.00    +0.002 A 
ATOM      7  C   UNL     1       2.963  -7.505   0.213  0.00  0.00    +0.024 A 
ATOM      8  C   UNL     1       3.921  -6.499   0.169  0.00  0.00    +0.042 A 
ATOM      9  N   UNL     1       5.310  -6.540   0.213  0.00  0.00    -0.281 N 
ATOM     10  C   UNL     1       5.840  -5.309   0.133  0.00  0.00    +0.249 C 
ATOM     11  O   UNL     1       7.028  -5.038   0.141  0.00  0.00    -0.270 OA
ATOM     12  H   UNL     1       5.830  -7.356   0.288  0.00  0.00    +0.155 HD
ENDROOT
BRANCH   1  21
ATOM     13  C   UNL     1       0.622   1.484  -1.320  0.00  0.00    +0.001 A 
ATOM     14  C   UNL     1      -0.217   1.135  -0.272  0.00  0.00    +0.004 A 
ATOM     15  C   UNL     1       0.102   0.089   0.567  0.00  0.00    +0.047 A 
ATOM     16  C   UNL     1       1.276  -0.631   0.368  0.00  0.00    +0.138 A 
ATOM     17  C   UNL     1       2.122  -0.276  -0.694  0.00  0.00    +0.065 A 
ATOM     18  C   UNL     1       1.789   0.785  -1.536  0.00  0.00    +0.015 A 
ATOM     19  C   UNL     1       3.365  -1.047  -0.894  0.00  0.00    +0.200 A 
ATOM     20  O   UNL     1       4.140  -0.787  -1.796  0.00  0.00    -0.286 OA
ATOM     21  C   UNL     1       3.622  -2.151   0.055  0.00  0.00    +0.058 A 
ATOM     22  C   UNL     1       2.697  -2.386   1.053  0.00  0.00    +0.207 A 
ATOM     23  O   UNL     1       1.593  -1.655   1.185  0.00  0.00    -0.462 OA
ENDBRANCH   1  21
TORSDOF 1
