REMARK  Name = ZINC21256762
REMARK  5 active torsions:
REMARK  status: ('A' for Active; 'I' for Inactive)
REMARK    1  A    between atoms: C_1  and  C_2
REMARK    2  A    between atoms: C_2  and  C_3
REMARK    3  A    between atoms: C_6  and  C_9
REMARK    4  A    between atoms: C_14  and  C_20
REMARK    5  A    between atoms: C_23  and  N_26
REMARK                            x       y       z     vdW  Elec       q    Type
REMARK                         _______ _______ _______ _____ _____    ______ ____
ROOT
ATOM      1  C   UNL     1      -6.150  -0.420   1.309  0.00  0.00    +0.032 C 
ATOM      2  C   UNL     1      -7.059   0.573   2.037  0.00  0.00    +0.059 C 
ATOM      3  C   UNL     1      -8.483   0.078   2.000  0.00  0.00    +0.018 C 
ATOM      4  C   UNL     1      -8.932  -0.668   0.969  0.00  0.00    +0.020 C 
ATOM      5  C   UNL     1     -10.366  -1.142   0.950  0.00  0.00    +0.063 C 
ATOM      6  C   UNL     1     -10.816  -1.453   2.378  0.00  0.00    +0.109 C 
ATOM      7  C   UNL     1     -10.439  -0.303   3.276  0.00  0.00    +0.218 C 
ATOM      8  O   UNL     1     -11.149  -0.011   4.215  0.00  0.00    -0.275 OA
ATOM      9  N   UNL     1      -9.318   0.400   3.040  0.00  0.00    -0.289 N 
ATOM     10  C   UNL     1      -8.091  -1.017  -0.102  0.00  0.00    +0.162 C 
ATOM     11  O   UNL     1      -8.534  -1.679  -1.018  0.00  0.00    -0.292 OA
ATOM     12  C   UNL     1      -6.650  -0.582  -0.130  0.00  0.00    +0.088 C 
ATOM     13  H   UNL     1      -9.075   1.246   3.699  0.00  0.00    +0.155 HD
ENDROOT
BRANCH   1  17
ATOM     14  C   UNL     1      -2.143   1.058   1.278  0.00  0.00    -0.048 A 
ATOM     15  C   UNL     1      -3.156   1.797   0.698  0.00  0.00    +0.004 A 
ATOM     16  C   UNL     1      -4.453   1.317   0.704  0.00  0.00    +0.004 A 
ATOM     17  C   UNL     1      -4.737   0.101   1.298  0.00  0.00    -0.043 A 
ATOM     18  C   UNL     1      -3.723  -0.636   1.882  0.00  0.00    +0.004 A 
ATOM     19  C   UNL     1      -2.427  -0.158   1.872  0.00  0.00    +0.004 A 
BRANCH  14  21
ATOM     20  C   UNL     1      -0.013   1.086   0.008  0.00  0.00    +0.009 C 
ATOM     21  C   UNL     1      -0.729   1.579   1.267  0.00  0.00    +0.032 C 
ENDBRANCH  14  21
ENDBRANCH   1  17
BRANCH   5  22
ATOM     22  C   UNL     1     -11.244  -0.063   0.370  0.00  0.00    -0.039 A 
ATOM     23  C   UNL     1     -11.315   1.174   0.981  0.00  0.00    +0.006 A 
ATOM     24  C   UNL     1     -12.117   2.165   0.446  0.00  0.00    +0.033 A 
ATOM     25  C   UNL     1     -12.857   1.914  -0.695  0.00  0.00    +0.126 A 
ATOM     26  C   UNL     1     -12.790   0.675  -1.303  0.00  0.00    +0.033 A 
ATOM     27  C   UNL     1     -11.984  -0.314  -0.771  0.00  0.00    +0.006 A 
BRANCH  25  28
ATOM     28  N   UNL     1     -13.719   2.974  -1.265  0.00  0.00    +0.056 N 
ATOM     29  O   UNL     1     -14.370   2.753  -2.270  0.00  0.00    -0.126 OA
ATOM     30  O   UNL     1     -13.778   4.065  -0.728  0.00  0.00    -0.126 OA
ENDBRANCH  25  28
ENDBRANCH   5  22
TORSDOF 4
