REMARK  Name = ZINC64792482
REMARK  7 active torsions:
REMARK  status: ('A' for Active; 'I' for Inactive)
REMARK    1  A    between atoms: C_1  and  C_2
REMARK    2  A    between atoms: C_5  and  N_9
REMARK    3  A    between atoms: C_6  and  C_8
REMARK    4  A    between atoms: C_10  and  C_12
REMARK    5  A    between atoms: C_12  and  N_13
REMARK    6  A    between atoms: C_19  and  C_29
REMARK    7  A    between atoms: C_22  and  C_23
REMARK                            x       y       z     vdW  Elec       q    Type
REMARK                         _______ _______ _______ _____ _____    ______ ____
ROOT
ATOM      1  N   UNL     1      -0.056  -7.105  -2.446  0.00  0.00    -0.259 N 
ATOM      2  C   UNL     1      -1.260  -7.341  -3.090  0.00  0.00    +0.243 A 
ATOM      3  N   UNL     1      -2.489  -7.234  -2.671  0.00  0.00    -0.092 NA
ATOM      4  N   UNL     1      -3.311  -7.550  -3.612  0.00  0.00    -0.021 NA
ATOM      5  N   UNL     1      -2.665  -7.878  -4.684  0.00  0.00    -0.042 NA
ATOM      6  N   UNL     1      -1.309  -7.758  -4.382  0.00  0.00    -0.202 N 
ATOM      7  C   UNL     1      -0.129  -8.007  -5.200  0.00  0.00    +0.167 C 
ATOM      8  C   UNL     1       1.091  -7.462  -4.508  0.00  0.00    +0.028 C 
ATOM      9  C   UNL     1       1.095  -7.054  -3.246  0.00  0.00    +0.043 C 
ENDROOT
BRANCH   9  10
ATOM     10  C   UNL     1       2.352  -6.535  -2.661  0.00  0.00    -0.004 A 
ATOM     11  C   UNL     1       3.539  -7.253  -2.803  0.00  0.00    +0.010 A 
ATOM     12  C   UNL     1       4.708  -6.764  -2.256  0.00  0.00    +0.001 A 
ATOM     13  C   UNL     1       4.704  -5.564  -1.568  0.00  0.00    +0.000 A 
ATOM     14  C   UNL     1       3.529  -4.847  -1.423  0.00  0.00    +0.001 A 
ATOM     15  C   UNL     1       2.355  -5.323  -1.971  0.00  0.00    +0.010 A 
ENDBRANCH   9  10
BRANCH   7  16
ATOM     16  C   UNL     1       0.034  -9.491  -5.407  0.00  0.00    -0.019 A 
ATOM     17  C   UNL     1       0.194 -10.327  -4.318  0.00  0.00    +0.006 A 
ATOM     18  C   UNL     1       0.344 -11.688  -4.508  0.00  0.00    +0.000 A 
ATOM     19  C   UNL     1       0.333 -12.213  -5.787  0.00  0.00    +0.000 A 
ATOM     20  C   UNL     1       0.172 -11.377  -6.876  0.00  0.00    +0.000 A 
ATOM     21  C   UNL     1       0.018 -10.017  -6.686  0.00  0.00    +0.006 A 
ENDBRANCH   7  16
BRANCH   1  22
ATOM     22  C   UNL     1       0.012  -6.912  -0.996  0.00  0.00    +0.209 C 
BRANCH  22  24
ATOM     23  N   UNL     1      -0.191  -5.038   0.606  0.00  0.00    -0.284 N 
ATOM     24  C   UNL     1      -0.280  -5.471  -0.667  0.00  0.00    +0.235 C 
ATOM     25  O   UNL     1      -0.596  -4.699  -1.549  0.00  0.00    -0.274 OA
ATOM     26  H   UNL     1       0.128  -5.636   1.300  0.00  0.00    +0.155 HD
BRANCH  23  31
ATOM     27  C   UNL     1      -1.677   0.280   1.907  0.00  0.00    +0.044 C 
ATOM     28  C   UNL     1      -1.282  -1.133   1.561  0.00  0.00    -0.050 A 
ATOM     29  C   UNL     1      -0.701  -1.407   0.337  0.00  0.00    +0.005 A 
ATOM     30  C   UNL     1      -0.338  -2.700   0.017  0.00  0.00    +0.024 A 
ATOM     31  C   UNL     1      -0.557  -3.726   0.927  0.00  0.00    +0.036 A 
ATOM     32  C   UNL     1      -1.141  -3.448   2.156  0.00  0.00    -0.029 A 
ATOM     33  C   UNL     1      -1.497  -2.151   2.471  0.00  0.00    +0.008 A 
ATOM     34  C   UNL     1      -1.380  -4.558   3.146  0.00  0.00    +0.045 C 
ENDBRANCH  23  31
ENDBRANCH  22  24
ENDBRANCH   1  22
TORSDOF 5
