REMARK  Name = ZINC44998842
REMARK  9 active torsions:
REMARK  status: ('A' for Active; 'I' for Inactive)
REMARK    1  A    between atoms: C_1  and  C_2
REMARK    2  A    between atoms: C_2  and  C_3
REMARK    3  A    between atoms: C_2  and  C_4
REMARK    4  A    between atoms: C_7  and  O_36
REMARK    5  A    between atoms: C_8  and  C_10
REMARK    6  A    between atoms: C_10  and  N_11
REMARK    7  A    between atoms: C_16  and  C_18
REMARK    8  A    between atoms: N_23  and  C_26
REMARK    9  A    between atoms: O_36  and  C_37
REMARK                            x       y       z     vdW  Elec       q    Type
REMARK                         _______ _______ _______ _____ _____    ______ ____
ROOT
ATOM      1  N   UNL     1      -3.621  -4.067  -1.737  0.00  0.00    +0.390 N 
ATOM      2  C   UNL     1      -4.651  -4.307  -0.719  0.00  0.00    -0.077 C 
ATOM      3  C   UNL     1      -4.539  -5.743  -0.203  0.00  0.00    -0.019 C 
ATOM      4  C   UNL     1      -4.735  -6.716  -1.369  0.00  0.00    -0.003 C 
ATOM      5  C   UNL     1      -3.702  -6.408  -2.457  0.00  0.00    -0.006 C 
ATOM      6  C   UNL     1      -3.846  -4.947  -2.890  0.00  0.00    +0.020 C 
ATOM      7  H   UNL     1      -2.712  -4.255  -1.343  0.00  0.00    -0.080 HD
ENDROOT
BRANCH   6   8
ATOM      8  C   UNL     1      -2.831  -4.639  -3.961  0.00  0.00    +0.202 C 
ATOM      9  O   UNL     1      -1.758  -4.162  -3.660  0.00  0.00    -0.277 OA
ATOM     10  N   UNL     1      -3.117  -4.895  -5.253  0.00  0.00    -0.300 N 
ATOM     11  C   UNL     1      -4.371  -5.566  -5.623  0.00  0.00    +0.126 C 
ATOM     12  C   UNL     1      -5.117  -4.688  -6.636  0.00  0.00    +0.124 C 
ATOM     13  N   UNL     1      -4.180  -4.300  -7.700  0.00  0.00    -0.326 N 
ATOM     14  C   UNL     1      -2.926  -3.628  -7.330  0.00  0.00    +0.124 C 
ATOM     15  C   UNL     1      -2.183  -4.501  -6.318  0.00  0.00    +0.126 C 
BRANCH  13  16
ATOM     16  C   UNL     1      -4.476  -4.564  -9.038  0.00  0.00    +0.039 A 
ATOM     17  C   UNL     1      -5.161  -3.632  -9.798  0.00  0.00    +0.024 A 
ATOM     18  C   UNL     1      -5.455  -3.894 -11.128  0.00  0.00    +0.004 A 
ATOM     19  C   UNL     1      -5.073  -5.081 -11.713  0.00  0.00    +0.026 A 
ATOM     20  C   UNL     1      -4.383  -6.035 -10.970  0.00  0.00    +0.048 A 
ATOM     21  C   UNL     1      -4.077  -5.773  -9.624  0.00  0.00    +0.021 A 
ATOM     22  C   UNL     1      -3.354  -6.950  -9.136  0.00  0.00    +0.029 A 
ATOM     23  C   UNL     1      -3.264  -7.809 -10.163  0.00  0.00    +0.083 A 
ATOM     24  N   UNL     1      -3.881  -7.282 -11.266  0.00  0.00    -0.361 N 
ATOM     25  H   UNL     1      -3.945  -7.718 -12.130  0.00  0.00    +0.165 HD
ENDBRANCH  13  16
ENDBRANCH   6   8
BRANCH   1  26
ATOM     26  C   UNL     1      -3.683  -2.665  -2.173  0.00  0.00    -0.038 C 
BRANCH  26  31
ATOM     27  C   UNL     1      -1.676  -0.497   0.177  0.00  0.00    -0.044 A 
ATOM     28  C   UNL     1      -2.639  -0.109   1.091  0.00  0.00    +0.007 A 
ATOM     29  C   UNL     1      -3.942  -0.547   0.951  0.00  0.00    +0.046 A 
ATOM     30  C   UNL     1      -4.283  -1.377  -0.108  0.00  0.00    +0.121 A 
ATOM     31  C   UNL     1      -3.315  -1.764  -1.023  0.00  0.00    -0.022 A 
ATOM     32  C   UNL     1      -2.015  -1.319  -0.881  0.00  0.00    +0.009 A 
BRANCH  27  34
ATOM     33  C   UNL     1      -0.225   1.511   0.284  0.00  0.00    +0.012 C 
ATOM     34  C   UNL     1      -0.256  -0.018   0.333  0.00  0.00    +0.013 C 
ATOM     35  C   UNL     1       0.300  -0.497   1.675  0.00  0.00    +0.012 C 
ENDBRANCH  27  34
BRANCH  30  36
ATOM     36  O   UNL     1      -5.564  -1.810  -0.247  0.00  0.00    -0.495 OA
ATOM     37  C   UNL     1      -6.507  -1.371   0.733  0.00  0.00    +0.277 C 
ENDBRANCH  30  36
ENDBRANCH  26  31
ENDBRANCH   1  26
TORSDOF 6
