REMARK  Name = ZINC19651244
REMARK  11 active torsions:
REMARK  status: ('A' for Active; 'I' for Inactive)
REMARK    1  A    between atoms: C_1  and  C_2
REMARK    2  A    between atoms: C_2  and  O_3
REMARK    3  A    between atoms: O_3  and  C_4
REMARK    4  A    between atoms: C_9  and  N_10
REMARK    5  A    between atoms: C_11  and  C_13
REMARK    6  A    between atoms: C_13  and  C_15
REMARK    7  A    between atoms: C_13  and  N_16
REMARK    8  A    between atoms: C_27  and  C_31
REMARK    9  A    between atoms: C_31  and  C_32
REMARK   10  A    between atoms: C_31  and  C_33
REMARK   11  A    between atoms: C_31  and  C_34
REMARK                            x       y       z     vdW  Elec       q    Type
REMARK                         _______ _______ _______ _____ _____    ______ ____
ROOT
ATOM      1  N   UNL     1       1.592  -6.340   0.662  0.00  0.00    -0.199 N 
ATOM      2  C   UNL     1       1.247  -5.075   1.006  0.00  0.00    +0.279 A 
ATOM      3  O   UNL     1       0.952  -4.771   2.149  0.00  0.00    -0.265 OA
ATOM      4  C   UNL     1       1.251  -4.117  -0.065  0.00  0.00    +0.079 A 
ATOM      5  C   UNL     1       0.923  -2.708   0.036  0.00  0.00    -0.023 A 
ATOM      6  C   UNL     1       0.993  -1.983  -1.107  0.00  0.00    -0.004 A 
ATOM      7  S   UNL     1       1.494  -3.139  -2.358  0.00  0.00    -0.071 S 
ATOM      8  C   UNL     1       1.609  -4.584  -1.349  0.00  0.00    +0.138 A 
ATOM      9  N   UNL     1       1.938  -5.841  -1.623  0.00  0.00    -0.123 NA
ATOM     10  N   UNL     1       1.930  -6.694  -0.645  0.00  0.00    -0.061 NA
ATOM     11  C   UNL     1       0.707  -0.523  -1.274  0.00  0.00    +0.046 C 
ATOM     12  C   UNL     1      -0.038  -0.028  -0.026  0.00  0.00    -0.000 C 
ATOM     13  C   UNL     1       0.698  -0.532   1.218  0.00  0.00    +0.009 C 
ATOM     14  C   UNL     1       0.518  -2.045   1.350  0.00  0.00    +0.037 C 
ENDROOT
BRANCH  12  15
ATOM     15  C   UNL     1      -0.069   1.502  -0.020  0.00  0.00    -0.035 C 
ATOM     16  C   UNL     1       1.363   2.040  -0.024  0.00  0.00    +0.011 C 
ATOM     17  C   UNL     1      -0.805   2.003  -1.264  0.00  0.00    +0.011 C 
ATOM     18  C   UNL     1      -0.794   1.993   1.234  0.00  0.00    +0.011 C 
ENDBRANCH  12  15
BRANCH   1  19
ATOM     19  C   UNL     1       1.611  -7.373   1.701  0.00  0.00    +0.195 C 
ATOM     20  C   UNL     1       0.624  -8.483   1.334  0.00  0.00    +0.043 C 
BRANCH  19  22
ATOM     21  N   UNL     1       3.255  -8.923   2.706  0.00  0.00    -0.281 N 
ATOM     22  C   UNL     1       2.998  -7.950   1.809  0.00  0.00    +0.242 C 
ATOM     23  O   UNL     1       3.884  -7.539   1.090  0.00  0.00    -0.273 OA
ATOM     24  H   UNL     1       2.477  -9.233   3.420  0.00  0.00    +0.155 HD
BRANCH  21  30
ATOM     25  C   UNL     1       4.975 -10.141   3.897  0.00  0.00    +0.142 A 
ATOM     26  C   UNL     1       6.219 -10.750   3.914  0.00  0.00    +0.047 A 
ATOM     27  C   UNL     1       6.999 -10.762   2.772  0.00  0.00    +0.004 A 
ATOM     28  C   UNL     1       6.540 -10.167   1.612  0.00  0.00    +0.002 A 
ATOM     29  C   UNL     1       5.298  -9.562   1.585  0.00  0.00    +0.027 A 
ATOM     30  C   UNL     1       4.513  -9.541   2.728  0.00  0.00    +0.076 A 
BRANCH  25  31
ATOM     31  O   UNL     1       4.207 -10.129   5.019  0.00  0.00    -0.490 OA
BRANCH  31  33
ATOM     32  C   UNL     1       3.746 -10.649   7.334  0.00  0.00    +0.048 C 
ATOM     33  C   UNL     1       4.745 -10.764   6.181  0.00  0.00    +0.226 C 
ENDBRANCH  31  33
ENDBRANCH  25  31
ENDBRANCH  21  30
ENDBRANCH  19  22
ENDBRANCH   1  19
TORSDOF 6
