REMARK  Name = ZINC21686750
REMARK  6 active torsions:
REMARK  status: ('A' for Active; 'I' for Inactive)
REMARK    1  A    between atoms: C_1  and  C_2
REMARK    2  A    between atoms: C_2  and  C_3
REMARK    3  A    between atoms: N_5  and  C_6
REMARK    4  A    between atoms: C_8  and  C_22
REMARK    5  A    between atoms: C_14  and  C_21
REMARK    6  A    between atoms: C_16  and  C_20
REMARK                            x       y       z     vdW  Elec       q    Type
REMARK                         _______ _______ _______ _____ _____    ______ ____
ROOT
ATOM      1  C   UNL     1      -2.388   1.153   0.020  0.00  0.00    +0.131 A 
ATOM      2  C   UNL     1      -2.519  -0.201   0.013  0.00  0.00    +0.068 A 
ATOM      3  C   UNL     1      -3.885  -0.500   0.018  0.00  0.00    +0.062 A 
ATOM      4  N   UNL     1      -4.556   0.622   0.028  0.00  0.00    -0.168 NA
ATOM      5  N   UNL     1      -3.643   1.684   0.034  0.00  0.00    -0.194 N 
ATOM      6  C   UNL     1      -3.961   3.038   0.049  0.00  0.00    +0.196 A 
ATOM      7  N   UNL     1      -5.143   3.605   0.063  0.00  0.00    -0.221 NA
ATOM      8  C   UNL     1      -5.305   4.946   0.077  0.00  0.00    +0.083 A 
ATOM      9  C   UNL     1      -6.514   5.679   0.093  0.00  0.00    -0.024 A 
ATOM     10  C   UNL     1      -6.502   7.049   0.106  0.00  0.00    +0.009 A 
ATOM     11  C   UNL     1      -5.312   7.764   0.105  0.00  0.00    -0.049 A 
ATOM     12  C   UNL     1      -4.111   7.079   0.089  0.00  0.00    +0.020 A 
ATOM     13  C   UNL     1      -4.114   5.707   0.075  0.00  0.00    +0.042 A 
ATOM     14  S   UNL     1      -2.861   4.447   0.062  0.00  0.00    -0.048 S 
ATOM     15  C   UNL     1      -5.330   9.271   0.120  0.00  0.00    +0.044 C 
ATOM     16  C   UNL     1      -7.831   4.946   0.096  0.00  0.00    +0.046 C 
ATOM     17  C   UNL     1      -4.482  -1.884   0.015  0.00  0.00    +0.067 C 
ENDROOT
BRANCH   1  20
ATOM     18  C   UNL     1      -0.014   1.209   0.009  0.00  0.00    +0.218 C 
ATOM     19  O   UNL     1       0.002  -0.004   0.002  0.00  0.00    -0.275 OA
ATOM     20  N   UNL     1      -1.191   1.867   0.018  0.00  0.00    -0.270 N 
ATOM     21  H   UNL     1      -1.206   2.967   0.024  0.00  0.00    +0.156 HD
BRANCH  18  23
ATOM     22  C   UNL     1       2.457   1.002  -0.016  0.00  0.00    +0.013 C 
ATOM     23  C   UNL     1       1.280   1.980   0.001  0.00  0.00    +0.093 C 
ENDBRANCH  18  23
ENDBRANCH   1  20
TORSDOF 2
