REMARK  Name = ZINC09579597
REMARK  6 active torsions:
REMARK  status: ('A' for Active; 'I' for Inactive)
REMARK    1  A    between atoms: C_1  and  C_2
REMARK    2  A    between atoms: C_5  and  C_8
REMARK    3  A    between atoms: C_9  and  C_19
REMARK    4  A    between atoms: N_11  and  C_13
REMARK    5  A    between atoms: C_22  and  C_25
REMARK    6  A    between atoms: C_30  and  C_32
REMARK                            x       y       z     vdW  Elec       q    Type
REMARK                         _______ _______ _______ _____ _____    ______ ____
ROOT
ATOM      1  C   UNL     1       5.408   0.843  -0.046  0.00  0.00    +0.102 A 
ATOM      2  C   UNL     1       4.808   2.180  -0.034  0.00  0.00    +0.044 A 
ATOM      3  C   UNL     1       5.844   3.074  -0.046  0.00  0.00    +0.124 A 
ATOM      4  N   UNL     1       6.998   2.375  -0.055  0.00  0.00    -0.239 N 
ATOM      5  N   UNL     1       6.713   1.006  -0.059  0.00  0.00    -0.166 NA
ENDROOT
BRANCH   2   6
ATOM      6  C   UNL     1       3.370   2.499  -0.018  0.00  0.00    +0.072 C 
ATOM      7  N   UNL     1       2.416   1.633  -0.013  0.00  0.00    -0.181 NA
ATOM      8  N   UNL     1       1.139   2.192   0.003  0.00  0.00    -0.182 N 
ATOM      9  C   UNL     1       1.262   3.659   0.004  0.00  0.00    +0.172 C 
ATOM     10  C   UNL     1       2.786   3.894  -0.005  0.00  0.00    +0.090 C 
ATOM     11  C   UNL     1      -0.018   1.503   0.010  0.00  0.00    +0.232 C 
ATOM     12  O   UNL     1      -1.077   2.095   0.018  0.00  0.00    -0.274 OA
ATOM     13  C   UNL     1       0.002  -0.004   0.002  0.00  0.00    +0.111 C 
BRANCH   9  14
ATOM     14  C   UNL     1       0.626   4.245  -1.230  0.00  0.00    +0.128 A 
ATOM     15  C   UNL     1      -0.087   5.384  -1.282  0.00  0.00    +0.046 A 
ATOM     16  C   UNL     1      -0.492   5.554  -2.626  0.00  0.00    +0.041 A 
ATOM     17  C   UNL     1      -0.001   4.508  -3.315  0.00  0.00    +0.195 A 
ATOM     18  O   UNL     1       0.680   3.722  -2.466  0.00  0.00    -0.466 OA
ENDBRANCH   9  14
ENDBRANCH   2   6
BRANCH   1  23
ATOM     19  C   UNL     1       2.585  -4.175  -0.043  0.00  0.00    +0.044 C 
ATOM     20  C   UNL     1       3.324  -2.862  -0.044  0.00  0.00    -0.050 A 
ATOM     21  C   UNL     1       4.511  -2.740  -0.743  0.00  0.00    +0.004 A 
ATOM     22  C   UNL     1       5.192  -1.540  -0.748  0.00  0.00    +0.010 A 
ATOM     23  C   UNL     1       4.681  -0.449  -0.045  0.00  0.00    +0.003 A 
ATOM     24  C   UNL     1       3.487  -0.579   0.662  0.00  0.00    +0.010 A 
ATOM     25  C   UNL     1       2.812  -1.783   0.654  0.00  0.00    +0.004 A 
ENDBRANCH   1  23
BRANCH   4  26
ATOM     26  C   UNL     1       8.282   2.934  -0.066  0.00  0.00    +0.065 A 
ATOM     27  C   UNL     1       8.440   4.314  -0.067  0.00  0.00    +0.028 A 
ATOM     28  C   UNL     1       9.707   4.863  -0.071  0.00  0.00    +0.002 A 
ATOM     29  C   UNL     1      10.818   4.040  -0.086  0.00  0.00    +0.000 A 
ATOM     30  C   UNL     1      10.664   2.665  -0.090  0.00  0.00    +0.002 A 
ATOM     31  C   UNL     1       9.400   2.111  -0.080  0.00  0.00    +0.028 A 
ENDBRANCH   4  26
TORSDOF 4
