REMARK  Name = ZINC63648725
REMARK  7 active torsions:
REMARK  status: ('A' for Active; 'I' for Inactive)
REMARK    1  A    between atoms: C_1  and  C_2
REMARK    2  A    between atoms: C_2  and  O_3
REMARK    3  A    between atoms: O_3  and  C_4
REMARK    4  A    between atoms: C_9  and  N_10
REMARK    5  A    between atoms: N_17  and  C_18
REMARK    6  A    between atoms: C_18  and  C_19
REMARK    7  A    between atoms: C_19  and  C_20
REMARK                            x       y       z     vdW  Elec       q    Type
REMARK                         _______ _______ _______ _____ _____    ______ ____
ROOT
ATOM      1  N   UNL     1      -3.902  -1.567   0.031  0.00  0.00    -0.276 N 
ATOM      2  C   UNL     1      -4.472  -1.153  -1.138  0.00  0.00    +0.114 A 
ATOM      3  C   UNL     1      -5.556  -0.349  -1.133  0.00  0.00    +0.131 A 
ATOM      4  N   UNL     1      -6.112   0.072   0.003  0.00  0.00    -0.234 NA
ATOM      5  C   UNL     1      -5.615  -0.287   1.168  0.00  0.00    +0.185 A 
ATOM      6  C   UNL     1      -4.441  -1.165   1.204  0.00  0.00    +0.296 A 
ATOM      7  O   UNL     1      -3.959  -1.520   2.266  0.00  0.00    -0.264 OA
ATOM      8  N   UNL     1      -6.199   0.156   2.348  0.00  0.00    -0.324 N 
ATOM      9  H   UNL     1      -5.828  -0.113   3.203  0.00  0.00    +0.148 HD
ENDROOT
BRANCH   1  15
ATOM     10  C   UNL     1      -1.498  -1.849   0.006  0.00  0.00    +0.144 A 
ATOM     11  C   UNL     1      -0.389  -2.679  -0.003  0.00  0.00    +0.048 A 
ATOM     12  C   UNL     1      -0.553  -4.052  -0.009  0.00  0.00    +0.004 A 
ATOM     13  C   UNL     1      -1.823  -4.600  -0.006  0.00  0.00    +0.002 A 
ATOM     14  C   UNL     1      -2.934  -3.780   0.003  0.00  0.00    +0.030 A 
ATOM     15  C   UNL     1      -2.778  -2.401   0.016  0.00  0.00    +0.091 A 
BRANCH  10  16
ATOM     16  O   UNL     1      -1.339  -0.499   0.012  0.00  0.00    -0.490 OA
BRANCH  16  18
ATOM     17  C   UNL     1      -0.019   1.526   0.010  0.00  0.00    +0.048 C 
ATOM     18  C   UNL     1       0.002  -0.004   0.002  0.00  0.00    +0.226 C 
ENDBRANCH  16  18
ENDBRANCH  10  16
ENDBRANCH   1  15
BRANCH   8  19
ATOM     19  C   UNL     1      -7.375   1.028   2.301  0.00  0.00    +0.107 C 
BRANCH  19  20
ATOM     20  C   UNL     1      -7.816   1.367   3.727  0.00  0.00    +0.052 C 
BRANCH  20  21
ATOM     21  C   UNL     1      -9.025   2.264   3.679  0.00  0.00    -0.040 C 
ATOM     22  C   UNL     1     -10.322   1.887   3.759  0.00  0.00    -0.001 A 
ATOM     23  C   UNL     1     -10.969   0.578   3.909  0.00  0.00    +0.010 A 
ATOM     24  C   UNL     1     -12.319   0.515   3.959  0.00  0.00    +0.001 A 
ATOM     25  C   UNL     1     -13.114   1.667   3.873  0.00  0.00    +0.002 A 
ATOM     26  C   UNL     1     -12.592   2.904   3.734  0.00  0.00    +0.026 A 
ATOM     27  C   UNL     1     -11.184   3.087   3.670  0.00  0.00    +0.043 A 
ATOM     28  N   UNL     1     -10.448   4.165   3.540  0.00  0.00    -0.380 N 
ATOM     29  C   UNL     1      -9.036   3.770   3.537  0.00  0.00    +0.144 C 
ATOM     30  H   UNL     1     -10.783   5.072   3.462  0.00  0.00    +0.160 HD
ENDBRANCH  20  21
ENDBRANCH  19  20
ENDBRANCH   8  19
TORSDOF 6
