REMARK  Name = ZINC64074297
REMARK  6 active torsions:
REMARK  status: ('A' for Active; 'I' for Inactive)
REMARK    1  A    between atoms: C_1  and  C_2
REMARK    2  A    between atoms: C_2  and  C_3
REMARK    3  A    between atoms: C_5  and  C_27
REMARK    4  A    between atoms: C_8  and  C_13
REMARK    5  A    between atoms: C_13  and  N_14
REMARK    6  A    between atoms: C_15  and  C_17
REMARK                            x       y       z     vdW  Elec       q    Type
REMARK                         _______ _______ _______ _____ _____    ______ ____
ROOT
ATOM      1  N   UNL     1       0.089  -5.725   5.409  0.00  0.00    -0.311 N 
ATOM      2  C   UNL     1       0.080  -6.933   6.007  0.00  0.00    +0.218 C 
ATOM      3  O   UNL     1      -0.834  -7.704   5.803  0.00  0.00    -0.275 OA
ATOM      4  H   UNL     1       0.820  -5.109   5.572  0.00  0.00    +0.149 HD
ENDROOT
BRANCH   2   5
ATOM      5  C   UNL     1       1.204  -7.325   6.930  0.00  0.00    +0.092 C 
ATOM      6  C   UNL     1       0.952  -8.733   7.473  0.00  0.00    +0.016 C 
ATOM      7  C   UNL     1       2.110  -9.146   8.385  0.00  0.00    +0.020 C 
ATOM      8  C   UNL     1       2.191  -8.178   9.570  0.00  0.00    +0.109 C 
ATOM      9  N   UNL     1       2.289  -6.806   9.054  0.00  0.00    -0.285 N 
ATOM     10  C   UNL     1       1.276  -6.336   8.098  0.00  0.00    +0.122 C 
ATOM     11  C   UNL     1       3.288  -5.993   9.449  0.00  0.00    +0.300 C 
ATOM     12  O   UNL     1       3.414  -4.894   8.944  0.00  0.00    -0.253 OA
ATOM     13  N   UNL     1       4.149  -6.398  10.404  0.00  0.00    -0.313 N 
ATOM     14  H   UNL     1       4.093  -7.300  10.756  0.00  0.00    +0.146 HD
ATOM     15  H   UNL     1       4.823  -5.787  10.740  0.00  0.00    +0.146 HD
ENDBRANCH   2   5
BRANCH   1  16
ATOM     16  C   UNL     1      -1.004  -5.344   4.511  0.00  0.00    +0.139 C 
BRANCH  16  21
ATOM     17  C   UNL     1       0.715  -0.488   1.265  0.00  0.00    +0.106 C 
ATOM     18  C   UNL     1       0.833  -1.995   1.218  0.00  0.00    -0.042 C 
ATOM     19  C   UNL     1       0.185  -2.456   2.313  0.00  0.00    -0.001 A 
ATOM     20  C   UNL     1      -0.056  -3.808   2.830  0.00  0.00    +0.015 A 
ATOM     21  C   UNL     1      -0.755  -3.957   3.978  0.00  0.00    -0.030 A 
ATOM     22  C   UNL     1      -1.256  -2.854   4.684  0.00  0.00    +0.007 A 
ATOM     23  C   UNL     1      -1.076  -1.581   4.272  0.00  0.00    +0.026 A 
ATOM     24  C   UNL     1      -0.354  -1.308   3.077  0.00  0.00    +0.043 A 
ATOM     25  N   UNL     1      -0.050  -0.180   2.479  0.00  0.00    -0.378 N 
ATOM     26  C   UNL     1       1.530  -2.817   0.166  0.00  0.00    +0.042 C 
ATOM     27  H   UNL     1      -0.291   0.708   2.786  0.00  0.00    +0.160 HD
BRANCH  17  29
ATOM     28  C   UNL     1      -0.051   1.552   0.043  0.00  0.00    +0.006 C 
ATOM     29  C   UNL     1      -0.029   0.022   0.029  0.00  0.00    +0.025 C 
ENDBRANCH  17  29
ENDBRANCH  16  21
ENDBRANCH   1  16
TORSDOF 4
