REMARK  Name = ZINC67570290
REMARK  6 active torsions:
REMARK  status: ('A' for Active; 'I' for Inactive)
REMARK    1  A    between atoms: C_4  and  C_7
REMARK    2  A    between atoms: C_7  and  N_8
REMARK    3  A    between atoms: C_12  and  C_15
REMARK    4  A    between atoms: C_15  and  N_16
REMARK    5  A    between atoms: C_22  and  C_25
REMARK    6  A    between atoms: N_27  and  C_28
REMARK                            x       y       z     vdW  Elec       q    Type
REMARK                         _______ _______ _______ _____ _____    ______ ____
ROOT
ATOM      1  N   UNL     1       7.903  -2.452   4.106  0.00  0.00    -0.299 N 
ATOM      2  C   UNL     1       9.122  -2.980   4.334  0.00  0.00    +0.302 C 
ATOM      3  O   UNL     1       9.748  -3.481   3.420  0.00  0.00    -0.253 OA
ATOM      4  N   UNL     1       9.647  -2.953   5.575  0.00  0.00    -0.286 N 
ATOM      5  C   UNL     1       8.857  -2.458   6.711  0.00  0.00    +0.110 C 
ATOM      6  C   UNL     1       9.656  -1.365   7.428  0.00  0.00    +0.032 C 
ATOM      7  C   UNL     1      11.033  -1.912   7.810  0.00  0.00    +0.078 C 
ATOM      8  C   UNL     1      11.793  -2.315   6.545  0.00  0.00    +0.032 C 
ATOM      9  C   UNL     1      11.017  -3.425   5.819  0.00  0.00    +0.110 C 
ATOM     10  H   UNL     1       7.373  -2.119   4.847  0.00  0.00    +0.150 HD
ENDROOT
BRANCH   7  11
ATOM     11  C   UNL     1      11.809  -0.850   8.545  0.00  0.00    +0.216 C 
ATOM     12  O   UNL     1      11.310   0.238   8.743  0.00  0.00    -0.276 OA
ATOM     13  N   UNL     1      13.057  -1.108   8.982  0.00  0.00    -0.312 N 
ATOM     14  H   UNL     1      13.456  -1.978   8.824  0.00  0.00    +0.149 HD
BRANCH  13  15
ATOM     15  C   UNL     1      13.811  -0.075   9.697  0.00  0.00    +0.073 C 
ATOM     16  C   UNL     1      15.282   0.114   9.320  0.00  0.00    +0.024 C 
ATOM     17  C   UNL     1      14.912  -0.539  10.653  0.00  0.00    +0.024 C 
ENDBRANCH  13  15
ENDBRANCH   7  11
BRANCH   1  18
ATOM     18  C   UNL     1       7.380  -2.380   2.740  0.00  0.00    +0.107 C 
BRANCH  18  23
ATOM     19  N   UNL     1       4.156  -0.948   1.341  0.00  0.00    +0.383 N 
ATOM     20  C   UNL     1       3.205  -1.849   2.003  0.00  0.00    -0.078 C 
ATOM     21  C   UNL     1       3.615  -2.046   3.464  0.00  0.00    -0.018 C 
ATOM     22  C   UNL     1       5.019  -2.655   3.517  0.00  0.00    +0.001 C 
ATOM     23  C   UNL     1       5.989  -1.743   2.759  0.00  0.00    -0.011 C 
ATOM     24  C   UNL     1       5.491  -1.558   1.324  0.00  0.00    -0.073 C 
ATOM     25  H   UNL     1       4.192  -0.074   1.843  0.00  0.00    -0.081 HD
BRANCH  19  26
ATOM     26  C   UNL     1       3.715  -0.701  -0.038  0.00  0.00    -0.043 C 
BRANCH  26  30
ATOM     27  C   UNL     1      -0.012   1.387   0.009  0.00  0.00    +0.000 A 
ATOM     28  C   UNL     1       1.176   2.093   0.002  0.00  0.00    +0.000 A 
ATOM     29  C   UNL     1       2.382   1.418  -0.013  0.00  0.00    +0.002 A 
ATOM     30  C   UNL     1       2.400   0.036  -0.021  0.00  0.00    -0.064 A 
ATOM     31  C   UNL     1       1.212  -0.671  -0.014  0.00  0.00    +0.002 A 
ATOM     32  C   UNL     1       0.006   0.004  -0.000  0.00  0.00    +0.000 A 
ENDBRANCH  26  30
ENDBRANCH  19  26
ENDBRANCH  18  23
ENDBRANCH   1  18
TORSDOF 6
