REMARK  Name = ZINC65137387
REMARK  8 active torsions:
REMARK  status: ('A' for Active; 'I' for Inactive)
REMARK    1  A    between atoms: C_1  and  C_2
REMARK    2  A    between atoms: C_2  and  C_3
REMARK    3  A    between atoms: N_9  and  S_10
REMARK    4  A    between atoms: S_10  and  C_13
REMARK    5  A    between atoms: C_15  and  C_19
REMARK    6  A    between atoms: N_16  and  C_18
REMARK    7  A    between atoms: C_21  and  C_31
REMARK    8  A    between atoms: C_22  and  C_24
REMARK                            x       y       z     vdW  Elec       q    Type
REMARK                         _______ _______ _______ _____ _____    ______ ____
ROOT
ATOM      1  C   UNL     1      -2.860  -0.420   2.101  0.00  0.00    +0.124 A 
ATOM      2  C   UNL     1      -3.383  -0.824   0.866  0.00  0.00    +0.058 A 
ATOM      3  C   UNL     1      -4.465  -1.620   1.123  0.00  0.00    +0.076 A 
ATOM      4  N   UNL     1      -4.607  -1.706   2.488  0.00  0.00    -0.346 N 
ATOM      5  C   UNL     1      -3.620  -0.975   3.073  0.00  0.00    +0.114 A 
ATOM      6  C   UNL     1      -5.644  -2.462   3.193  0.00  0.00    +0.149 C 
ENDROOT
BRANCH   3   7
ATOM      7  C   UNL     1      -5.322  -2.267   0.121  0.00  0.00    +0.126 A 
ATOM      8  N   UNL     1      -6.388  -3.045   0.301  0.00  0.00    -0.242 NA
ATOM      9  C   UNL     1      -7.045  -3.546  -0.707  0.00  0.00    +0.058 A 
ATOM     10  C   UNL     1      -6.623  -3.261  -2.001  0.00  0.00    +0.097 A 
ATOM     11  S   UNL     1      -5.214  -2.212  -1.663  0.00  0.00    -0.061 S 
ATOM     12  C   UNL     1      -8.248  -4.423  -0.473  0.00  0.00    +0.067 C 
BRANCH  10  13
ATOM     13  C   UNL     1      -7.181  -3.695  -3.283  0.00  0.00    +0.255 C 
ATOM     14  O   UNL     1      -8.162  -4.415  -3.308  0.00  0.00    -0.269 OA
ATOM     15  N   UNL     1      -6.608  -3.297  -4.436  0.00  0.00    -0.297 N 
ATOM     16  C   UNL     1      -5.421  -2.437  -4.551  0.00  0.00    +0.108 C 
ATOM     17  C   UNL     1      -5.149  -2.230  -6.056  0.00  0.00    +0.020 C 
ATOM     18  C   UNL     1      -6.529  -2.521  -6.702  0.00  0.00    +0.020 C 
ATOM     19  C   UNL     1      -7.063  -3.657  -5.791  0.00  0.00    +0.108 C 
ENDBRANCH  10  13
ENDBRANCH   3   7
BRANCH   1  20
ATOM     20  S   UNL     1      -1.459   0.620   2.345  0.00  0.00    +0.063 S 
ATOM     21  O   UNL     1      -1.607   1.206   3.631  0.00  0.00    -0.153 OA
ATOM     22  O   UNL     1      -1.320   1.399   1.165  0.00  0.00    -0.153 OA
BRANCH  20  28
ATOM     23  C   UNL     1       0.507  -0.861   1.196  0.00  0.00    +0.080 C 
ATOM     24  C   UNL     1       0.613  -2.387   1.276  0.00  0.00    +0.021 C 
ATOM     25  C   UNL     1       1.342  -2.777   2.564  0.00  0.00    +0.003 C 
ATOM     26  C   UNL     1       0.544  -2.283   3.773  0.00  0.00    +0.017 C 
ATOM     27  C   UNL     1       0.438  -0.756   3.721  0.00  0.00    +0.110 C 
ATOM     28  N   UNL     1      -0.128  -0.363   2.423  0.00  0.00    -0.174 NA
BRANCH  23  30
ATOM     29  C   UNL     1       0.272  -1.070  -1.283  0.00  0.00    +0.005 C 
ATOM     30  C   UNL     1      -0.340  -0.469  -0.016  0.00  0.00    +0.017 C 
ENDBRANCH  23  30
ENDBRANCH  20  28
ENDBRANCH   1  20
TORSDOF 5
