REMARK  Name = ZINC01610108
REMARK  4 active torsions:
REMARK  status: ('A' for Active; 'I' for Inactive)
REMARK    1  A    between atoms: C_1  and  C_2
REMARK    2  A    between atoms: N_12  and  C_21
REMARK    3  A    between atoms: C_15  and  C_18
REMARK    4  A    between atoms: C_18  and  C_19
REMARK                            x       y       z     vdW  Elec       q    Type
REMARK                         _______ _______ _______ _____ _____    ______ ____
ROOT
ATOM      1  C   UNL     1       2.223   7.013  -0.891  0.00  0.00    +0.044 C 
ATOM      2  C   UNL     1       2.590   5.974   0.136  0.00  0.00    -0.050 A 
ATOM      3  C   UNL     1       3.675   6.176   0.970  0.00  0.00    +0.005 A 
ATOM      4  C   UNL     1       4.015   5.227   1.912  0.00  0.00    +0.024 A 
ATOM      5  C   UNL     1       3.269   4.058   2.031  0.00  0.00    +0.040 A 
ATOM      6  C   UNL     1       2.177   3.865   1.187  0.00  0.00    +0.017 A 
ATOM      7  C   UNL     1       1.842   4.816   0.248  0.00  0.00    +0.012 A 
ATOM      8  C   UNL     1       1.603   2.537   1.570  0.00  0.00    +0.193 C 
ATOM      9  C   UNL     1       2.469   2.026   2.682  0.00  0.00    +0.256 C 
ATOM     10  O   UNL     1       2.346   0.975   3.274  0.00  0.00    -0.272 OA
ATOM     11  N   UNL     1       3.413   2.966   2.892  0.00  0.00    -0.282 N 
ATOM     12  N   UNL     1       0.187   2.593   1.918  0.00  0.00    -0.243 N 
ATOM     13  C   UNL     1      -0.706   2.113   1.055  0.00  0.00    +0.235 C 
ATOM     14  O   UNL     1      -1.893   2.128   1.304  0.00  0.00    -0.274 OA
ATOM     15  C   UNL     1      -0.181   1.544  -0.255  0.00  0.00    +0.146 C 
ATOM     16  S   UNL     1       1.615   1.380   0.146  0.00  0.00    -0.107 S 
ATOM     17  H   UNL     1       4.110   2.894   3.562  0.00  0.00    +0.155 HD
ENDROOT
BRANCH  12  18
ATOM     18  C   UNL     1      -0.225   3.143   3.138  0.00  0.00    +0.039 A 
ATOM     19  C   UNL     1      -0.411   4.514   3.255  0.00  0.00    +0.025 A 
ATOM     20  C   UNL     1      -0.824   5.053   4.458  0.00  0.00    +0.022 A 
ATOM     21  C   UNL     1      -1.039   4.230   5.549  0.00  0.00    +0.041 A 
ATOM     22  C   UNL     1      -0.848   2.864   5.437  0.00  0.00    +0.022 A 
ATOM     23  C   UNL     1      -0.442   2.319   4.234  0.00  0.00    +0.025 A 
ATOM     24 CL   UNL     1      -1.551   4.911   7.062  0.00  0.00    -0.084 Cl
ENDBRANCH  12  18
BRANCH  15  25
ATOM     25  C   UNL     1      -0.403   2.519  -1.412  0.00  0.00    +0.148 C 
BRANCH  25  26
ATOM     26  C   UNL     1       0.102   1.905  -2.692  0.00  0.00    +0.358 C 
ATOM     27  O   UNL     1       0.591   0.800  -2.680  0.00  0.00    -0.246 OA
ATOM     28  O   UNL     1       0.011   2.585  -3.845  0.00  0.00    -0.246 OA
ENDBRANCH  25  26
ENDBRANCH  15  25
TORSDOF 3
