REMARK  Name = ZINC36039393
REMARK  8 active torsions:
REMARK  status: ('A' for Active; 'I' for Inactive)
REMARK    1  A    between atoms: C_1  and  O_2
REMARK    2  A    between atoms: O_2  and  C_3
REMARK    3  A    between atoms: C_6  and  N_9
REMARK    4  A    between atoms: C_11  and  C_22
REMARK    5  A    between atoms: N_14  and  C_15
REMARK    6  A    between atoms: C_15  and  C_17
REMARK    7  A    between atoms: C_17  and  N_18
REMARK    8  A    between atoms: N_18  and  C_19
REMARK                            x       y       z     vdW  Elec       q    Type
REMARK                         _______ _______ _______ _____ _____    ______ ____
ROOT
ATOM      1  N   UNL     1      -4.891  -2.582   0.036  0.00  0.00    -0.287 N 
ATOM      2  C   UNL     1      -6.128  -1.970   0.041  0.00  0.00    +0.120 A 
ATOM      3  C   UNL     1      -7.068  -2.931   0.050  0.00  0.00    +0.066 A 
ATOM      4  N   UNL     1      -6.421  -4.161   0.051  0.00  0.00    -0.326 N 
ATOM      5  C   UNL     1      -5.083  -3.928   0.036  0.00  0.00    +0.205 A 
ATOM      6  N   UNL     1      -4.126  -4.856   0.027  0.00  0.00    -0.148 NA
ATOM      7  H   UNL     1      -6.849  -5.032   0.057  0.00  0.00    +0.169 HD
ENDROOT
BRANCH   3   8
ATOM      8  C   UNL     1      -8.532  -2.717   0.058  0.00  0.00    -0.000 A 
ATOM      9  C   UNL     1      -9.051  -1.422   0.051  0.00  0.00    +0.011 A 
ATOM     10  C   UNL     1     -10.416  -1.229   0.057  0.00  0.00    +0.020 A 
ATOM     11  C   UNL     1     -11.272  -2.317   0.072  0.00  0.00    +0.041 A 
ATOM     12  C   UNL     1     -10.764  -3.605   0.079  0.00  0.00    +0.020 A 
ATOM     13  C   UNL     1      -9.399  -3.810   0.066  0.00  0.00    +0.011 A 
ATOM     14 CL   UNL     1     -12.990  -2.066   0.082  0.00  0.00    -0.084 Cl
ENDBRANCH   3   8
BRANCH   1  18
ATOM     15  C   UNL     1      -1.201  -0.638   0.010  0.00  0.00    +0.120 A 
ATOM     16  C   UNL     1      -2.374   0.102   0.020  0.00  0.00    +0.047 A 
ATOM     17  C   UNL     1      -3.596  -0.541   0.028  0.00  0.00    +0.030 A 
ATOM     18  C   UNL     1      -3.650  -1.928   0.027  0.00  0.00    +0.049 A 
ATOM     19  C   UNL     1      -2.475  -2.668   0.017  0.00  0.00    +0.030 A 
ATOM     20  C   UNL     1      -1.254  -2.024   0.003  0.00  0.00    +0.047 A 
BRANCH  15  22
ATOM     21  C   UNL     1      -0.017   1.425   0.010  0.00  0.00    +0.277 C 
ATOM     22  O   UNL     1       0.002  -0.004   0.002  0.00  0.00    -0.495 OA
ENDBRANCH  15  22
ENDBRANCH   1  18
BRANCH   6  23
ATOM     23  C   UNL     1      -4.450  -6.143   0.029  0.00  0.00    +0.222 C 
ATOM     24  O   UNL     1      -5.620  -6.476   0.038  0.00  0.00    -0.276 OA
BRANCH  23  25
ATOM     25  C   UNL     1      -3.368  -7.192   0.018  0.00  0.00    +0.017 C 
BRANCH  25  26
ATOM     26  N   UNL     1      -3.981  -8.527   0.022  0.00  0.00    +0.387 N 
ATOM     27  H   UNL     1      -4.547  -8.636   0.850  0.00  0.00    -0.085 HD
ATOM     28  H   UNL     1      -4.560  -8.634  -0.797  0.00  0.00    -0.085 HD
BRANCH  26  29
ATOM     29  C   UNL     1      -2.926  -9.550   0.012  0.00  0.00    -0.071 C 
ATOM     30  C   UNL     1      -2.849 -10.473  -1.206  0.00  0.00    -0.017 C 
ATOM     31  C   UNL     1      -3.359 -11.013   0.132  0.00  0.00    -0.017 C 
ENDBRANCH  26  29
ENDBRANCH  25  26
ENDBRANCH  23  25
ENDBRANCH   6  23
TORSDOF 7
