REMARK  Name = ZINC62754098
REMARK  2 active torsions:
REMARK  status: ('A' for Active; 'I' for Inactive)
REMARK    1  A    between atoms: C_4  and  C_21
REMARK    2  A    between atoms: C_6  and  N_10
REMARK                            x       y       z     vdW  Elec       q    Type
REMARK                         _______ _______ _______ _____ _____    ______ ____
ROOT
ATOM      1  C   UNL     1      -0.187   1.552  -0.093  0.00  0.00    -0.000 C 
ATOM      2  C   UNL     1       0.973   2.493  -0.274  0.00  0.00    +0.001 C 
ATOM      3  C   UNL     1       1.421   2.602  -1.744  0.00  0.00    +0.013 C 
ATOM      4  C   UNL     1       1.440   1.240  -2.465  0.00  0.00    +0.089 C 
ATOM      5  C   UNL     1       2.004   0.141  -1.606  0.00  0.00    -0.054 C 
ATOM      6  C   UNL     1       0.836  -0.574  -0.896  0.00  0.00    -0.014 C 
ATOM      7  C   UNL     1       0.364   0.158   0.270  0.00  0.00    -0.002 C 
ENDROOT
BRANCH   5   8
ATOM      8  N   UNL     1       2.736  -0.816  -2.447  0.00  0.00    +0.387 N 
ATOM      9  C   UNL     1       3.973  -0.193  -2.960  0.00  0.00    -0.049 C 
ATOM     10  C   UNL     1       4.811  -1.185  -3.760  0.00  0.00    +0.141 C 
ATOM     11  O   UNL     1       5.036  -2.401  -3.025  0.00  0.00    -0.380 OA
ATOM     12  C   UNL     1       3.806  -2.979  -2.624  0.00  0.00    +0.105 C 
ATOM     13  C   UNL     1       3.137  -1.967  -1.654  0.00  0.00    -0.039 C 
ATOM     14  C   UNL     1       2.023  -2.783  -1.008  0.00  0.00    -0.013 C 
ATOM     15  C   UNL     1       2.527  -4.247  -1.015  0.00  0.00    +0.001 C 
ATOM     16  C   UNL     1       3.895  -4.246  -1.767  0.00  0.00    +0.030 C 
ATOM     17  H   UNL     1       2.154  -1.113  -3.216  0.00  0.00    -0.081 HD
ENDBRANCH   5   8
BRANCH   4  18
ATOM     18  C   UNL     1       2.278   1.361  -3.712  0.00  0.00    +0.357 C 
ATOM     19  O   UNL     1       3.058   2.289  -3.834  0.00  0.00    -0.246 OA
ATOM     20  O   UNL     1       2.175   0.530  -4.598  0.00  0.00    -0.246 OA
ENDBRANCH   4  18
TORSDOF 2
