REMARK  Name = ZINC07496242
REMARK  3 active torsions:
REMARK  status: ('A' for Active; 'I' for Inactive)
REMARK    1  A    between atoms: C_5  and  C_7
REMARK    2  A    between atoms: C_12  and  C_17
REMARK    3  A    between atoms: C_26  and  C_28
REMARK                            x       y       z     vdW  Elec       q    Type
REMARK                         _______ _______ _______ _____ _____    ______ ____
ROOT
ATOM      1  C   UNL     1       1.250  -2.168  -0.023  0.00  0.00    +0.194 C 
ATOM      2  C   UNL     1       1.128  -2.664  -1.447  0.00  0.00    +0.042 C 
ATOM      3  C   UNL     1      -0.007  -3.221  -1.918  0.00  0.00    +0.020 C 
ATOM      4  C   UNL     1      -0.105  -3.691  -3.350  0.00  0.00    +0.063 C 
ATOM      5  C   UNL     1       1.268  -4.163  -3.832  0.00  0.00    +0.068 C 
ATOM      6  C   UNL     1       2.253  -2.996  -3.699  0.00  0.00    +0.091 C 
ATOM      7  C   UNL     1       2.258  -2.522  -2.273  0.00  0.00    +0.164 C 
ATOM      8  O   UNL     1       3.261  -2.003  -1.823  0.00  0.00    -0.292 OA
ATOM      9  N   UNL     1      -1.115  -3.391  -1.123  0.00  0.00    -0.287 N 
ATOM     10  C   UNL     1      -0.962  -3.250   0.247  0.00  0.00    +0.219 A 
ATOM     11  N   UNL     1       0.146  -2.680   0.778  0.00  0.00    -0.219 N 
ATOM     12  N   UNL     1      -0.024  -2.705   2.161  0.00  0.00    -0.143 NA
ATOM     13  C   UNL     1      -1.188  -3.263   2.389  0.00  0.00    +0.256 A 
ATOM     14  N   UNL     1      -1.751  -3.590   1.228  0.00  0.00    -0.189 NA
ATOM     15  H   UNL     1      -1.980  -3.603  -1.509  0.00  0.00    +0.155 HD
ENDROOT
BRANCH   1  20
ATOM     16  C   UNL     1      -0.017   1.382   0.010  0.00  0.00    +0.003 A 
ATOM     17  C   UNL     1       1.194   2.059   0.002  0.00  0.00    +0.020 A 
ATOM     18  C   UNL     1       2.370   1.334  -0.013  0.00  0.00    +0.111 A 
ATOM     19  N   UNL     1       2.350   0.015  -0.021  0.00  0.00    -0.257 NA
ATOM     20  C   UNL     1       1.218  -0.661  -0.014  0.00  0.00    +0.070 A 
ATOM     21  C   UNL     1       0.002  -0.004   0.002  0.00  0.00    +0.026 A 
ENDBRANCH   1  20
BRANCH   5  22
ATOM     22  C   UNL     1       1.181  -4.593  -5.273  0.00  0.00    +0.109 A 
ATOM     23  C   UNL     1       1.455  -5.823  -5.745  0.00  0.00    +0.045 A 
ATOM     24  C   UNL     1       1.243  -5.782  -7.143  0.00  0.00    +0.041 A 
ATOM     25  C   UNL     1       0.851  -4.530  -7.441  0.00  0.00    +0.195 A 
ATOM     26  O   UNL     1       0.810  -3.816  -6.304  0.00  0.00    -0.468 OA
ENDBRANCH   5  22
BRANCH  13  27
ATOM     27  C   UNL     1      -1.792  -3.498   3.749  0.00  0.00    +0.454 C 
ATOM     28  F   UNL     1      -2.812  -2.567   3.974  0.00  0.00    -0.163 F 
ATOM     29  F   UNL     1      -2.321  -4.792   3.806  0.00  0.00    -0.163 F 
ATOM     30  F   UNL     1      -0.804  -3.354   4.729  0.00  0.00    -0.163 F 
ENDBRANCH  13  27
TORSDOF 3
