REMARK  Name = ZINC37015438
REMARK  3 active torsions:
REMARK  status: ('A' for Active; 'I' for Inactive)
REMARK    1  A    between atoms: C_9  and  N_11
REMARK    2  A    between atoms: N_11  and  C_12
REMARK    3  A    between atoms: C_17  and  N_18
REMARK                            x       y       z     vdW  Elec       q    Type
REMARK                         _______ _______ _______ _____ _____    ______ ____
ROOT
ATOM      1  N   UNL     1       4.515  -0.408  -1.038  0.00  0.00    -0.335 N 
ATOM      2  H   UNL     1       4.584  -0.861  -1.893  0.00  0.00    +0.147 HD
ENDROOT
BRANCH   1  11
ATOM      3  C   UNL     1       0.049   1.971  -0.909  0.00  0.00    +0.000 A 
ATOM      4  C   UNL     1       1.295   2.565  -0.835  0.00  0.00    +0.000 A 
ATOM      5  C   UNL     1       2.415   1.791  -0.603  0.00  0.00    +0.006 A 
ATOM      6  C   UNL     1       2.293   0.420  -0.442  0.00  0.00    -0.024 A 
ATOM      7  C   UNL     1       1.047  -0.173  -0.516  0.00  0.00    -0.042 A 
ATOM      8  C   UNL     1      -0.074   0.605  -0.749  0.00  0.00    +0.004 A 
ATOM      9  C   UNL     1       1.179  -1.667  -0.310  0.00  0.00    +0.037 C 
ATOM     10  C   UNL     1       2.674  -1.976  -0.539  0.00  0.00    +0.031 C 
ATOM     11  C   UNL     1       3.348  -0.634  -0.182  0.00  0.00    +0.101 C 
ENDBRANCH   1  11
BRANCH   1  12
ATOM     12  C   UNL     1       5.528   0.461  -0.624  0.00  0.00    +0.053 A 
ATOM     13  C   UNL     1       5.489   1.020   0.646  0.00  0.00    +0.025 A 
ATOM     14  C   UNL     1       6.491   1.879   1.053  0.00  0.00    +0.002 A 
ATOM     15  C   UNL     1       7.537   2.183   0.200  0.00  0.00    +0.002 A 
ATOM     16  C   UNL     1       7.584   1.630  -1.066  0.00  0.00    +0.030 A 
ATOM     17  C   UNL     1       6.585   0.763  -1.482  0.00  0.00    +0.090 A 
BRANCH  17  18
ATOM     18  N   UNL     1       6.634   0.196  -2.764  0.00  0.00    -0.198 N 
ATOM     19  C   UNL     1       7.691  -0.399  -3.358  0.00  0.00    +0.250 A 
ATOM     20  N   UNL     1       7.304  -0.785  -4.545  0.00  0.00    -0.116 NA
ATOM     21  N   UNL     1       6.074  -0.474  -4.743  0.00  0.00    -0.023 NA
ATOM     22  N   UNL     1       5.592   0.119  -3.705  0.00  0.00    -0.039 NA
ENDBRANCH  17  18
ENDBRANCH   1  12
TORSDOF 3
