REMARK  Name = ZINC33503408
REMARK  8 active torsions:
REMARK  status: ('A' for Active; 'I' for Inactive)
REMARK    1  A    between atoms: C_1  and  C_2
REMARK    2  A    between atoms: C_2  and  C_4
REMARK    3  A    between atoms: C_2  and  O_22
REMARK    4  A    between atoms: C_5  and  C_18
REMARK    5  A    between atoms: C_10  and  C_14
REMARK    6  A    between atoms: C_18  and  C_19
REMARK    7  A    between atoms: C_18  and  C_20
REMARK    8  A    between atoms: C_18  and  C_21
REMARK                            x       y       z     vdW  Elec       q    Type
REMARK                         _______ _______ _______ _____ _____    ______ ____
ROOT
ATOM      1  C   UNL     1       1.237   1.779   0.204  0.00  0.00    +0.075 A 
ATOM      2  C   UNL     1      -0.024   1.308   0.083  0.00  0.00    +0.071 A 
ATOM      3  N   UNL     1       0.033  -0.006  -0.147  0.00  0.00    -0.230 NA
ATOM      4  C   UNL     1       1.301  -0.389  -0.175  0.00  0.00    +0.157 A 
ATOM      5  N   UNL     1       2.083   0.716   0.042  0.00  0.00    -0.299 N 
ATOM      6  C   UNL     1       3.444   0.607   0.064  0.00  0.00    +0.105 A 
ATOM      7  C   UNL     1       4.041  -0.588  -0.128  0.00  0.00    +0.073 A 
ATOM      8  C   UNL     1       3.268  -1.739  -0.353  0.00  0.00    +0.037 A 
ATOM      9  C   UNL     1       1.910  -1.645  -0.378  0.00  0.00    +0.084 A 
ATOM     10 CL   UNL     1       0.938  -3.056  -0.655  0.00  0.00    -0.080 Cl
ENDROOT
BRANCH   7  11
ATOM     11  C   UNL     1       5.544  -0.688  -0.100  0.00  0.00    +0.419 C 
ATOM     12  F   UNL     1       5.970  -0.947   1.207  0.00  0.00    -0.166 F 
ATOM     13  F   UNL     1       5.958  -1.727  -0.940  0.00  0.00    -0.166 F 
ATOM     14  F   UNL     1       6.100   0.518  -0.541  0.00  0.00    -0.166 F 
ENDBRANCH   7  11
BRANCH   2  15
ATOM     15  C   UNL     1      -1.283   2.130   0.184  0.00  0.00    +0.006 C 
ATOM     16  C   UNL     1      -2.501   1.207   0.112  0.00  0.00    +0.017 C 
ATOM     17  C   UNL     1      -1.293   2.885   1.514  0.00  0.00    +0.017 C 
ATOM     18  C   UNL     1      -1.332   3.131  -0.972  0.00  0.00    +0.017 C 
ENDBRANCH   2  15
BRANCH   1  20
ATOM     19  C   UNL     1       2.112   3.346   1.915  0.00  0.00    +0.044 C 
ATOM     20  C   UNL     1       1.636   3.208   0.467  0.00  0.00    +0.160 C 
BRANCH  20  21
ATOM     21  O   UNL     1       2.695   3.578  -0.419  0.00  0.00    -0.386 OA
ATOM     22  H   UNL     1       2.538   3.542  -1.507  0.00  0.00    +0.210 HD
ENDBRANCH  20  21
ENDBRANCH   1  20
TORSDOF 4
