REMARK  Name = ZINC46757087
REMARK  10 active torsions:
REMARK  status: ('A' for Active; 'I' for Inactive)
REMARK    1  A    between atoms: C_1  and  C_2
REMARK    2  A    between atoms: C_2  and  C_3
REMARK    3  A    between atoms: C_2  and  N_4
REMARK    4  A    between atoms: N_4  and  C_5
REMARK    5  A    between atoms: N_4  and  C_6
REMARK    6  A    between atoms: C_6  and  C_7
REMARK    7  A    between atoms: C_12  and  C_13
REMARK    8  A    between atoms: C_13  and  N_14
REMARK    9  A    between atoms: C_15  and  C_17
REMARK   10  A    between atoms: C_17  and  N_18
REMARK                            x       y       z     vdW  Elec       q    Type
REMARK                         _______ _______ _______ _____ _____    ______ ____
ROOT
ATOM      1  N   UNL     1      -2.154  -3.410  -2.717  0.00  0.00    -0.310 N 
ATOM      2  C   UNL     1      -1.539  -3.249  -3.906  0.00  0.00    +0.231 C 
ATOM      3  O   UNL     1      -1.766  -2.265  -4.578  0.00  0.00    -0.274 OA
ATOM      4  H   UNL     1      -1.973  -4.196  -2.180  0.00  0.00    +0.149 HD
ENDROOT
BRANCH   1   5
ATOM      5  C   UNL     1      -3.098  -2.396  -2.238  0.00  0.00    +0.139 C 
BRANCH   5  11
ATOM      6  C   UNL     1      -2.770  -2.440   0.243  0.00  0.00    -0.059 A 
ATOM      7  C   UNL     1      -3.194  -2.764   1.518  0.00  0.00    +0.002 A 
ATOM      8  C   UNL     1      -4.402  -3.409   1.702  0.00  0.00    +0.000 A 
ATOM      9  C   UNL     1      -5.187  -3.730   0.610  0.00  0.00    +0.000 A 
ATOM     10  C   UNL     1      -4.764  -3.405  -0.665  0.00  0.00    +0.005 A 
ATOM     11  C   UNL     1      -3.557  -2.756  -0.848  0.00  0.00    -0.029 A 
BRANCH   6  12
ATOM     12  C   UNL     1      -1.452  -1.736   0.043  0.00  0.00    -0.043 C 
BRANCH  12  13
ATOM     13  N   UNL     1      -0.424  -2.718  -0.328  0.00  0.00    +0.382 N 
ATOM     14  C   UNL     1      -0.209  -3.647   0.789  0.00  0.00    -0.095 C 
ATOM     15  H   UNL     1      -0.728  -3.233  -1.140  0.00  0.00    -0.081 HD
BRANCH  13  17
ATOM     16  C   UNL     1       1.903  -3.042  -1.019  0.00  0.00    -0.014 C 
ATOM     17  C   UNL     1       0.832  -2.020  -0.633  0.00  0.00    -0.075 C 
ATOM     18  C   UNL     1       0.608  -1.051  -1.796  0.00  0.00    -0.014 C 
ENDBRANCH  13  17
ENDBRANCH  12  13
ENDBRANCH   6  12
ENDBRANCH   5  11
ENDBRANCH   1   5
BRANCH   2  19
ATOM     19  C   UNL     1      -0.569  -4.291  -4.399  0.00  0.00    +0.209 C 
BRANCH  19  20
ATOM     20  N   UNL     1      -0.040  -3.887  -5.704  0.00  0.00    -0.256 N 
ATOM     21  C   UNL     1      -0.692  -4.269  -6.886  0.00  0.00    +0.080 A 
ATOM     22  C   UNL     1      -1.991  -4.748  -6.854  0.00  0.00    +0.047 A 
ATOM     23  C   UNL     1      -2.615  -5.120  -8.031  0.00  0.00    +0.043 A 
ATOM     24  C   UNL     1      -1.945  -5.016  -9.238  0.00  0.00    +0.024 A 
ATOM     25  C   UNL     1      -0.648  -4.538  -9.274  0.00  0.00    +0.049 A 
ATOM     26  C   UNL     1      -0.017  -4.162  -8.101  0.00  0.00    +0.143 A 
ATOM     27  O   UNL     1       1.257  -3.687  -8.120  0.00  0.00    -0.481 OA
ATOM     28  C   UNL     1       1.590  -2.702  -7.138  0.00  0.00    +0.325 C 
ATOM     29  C   UNL     1       1.079  -3.135  -5.788  0.00  0.00    +0.258 C 
ATOM     30  O   UNL     1       1.674  -2.815  -4.780  0.00  0.00    -0.271 OA
ATOM     31 CL   UNL     1      -4.244  -5.721  -7.995  0.00  0.00    -0.083 Cl
ENDBRANCH  19  20
ENDBRANCH   2  19
TORSDOF 7
