REMARK  Name = ZINC04168444
REMARK  4 active torsions:
REMARK  status: ('A' for Active; 'I' for Inactive)
REMARK    1  A    between atoms: C_1  and  C_2
REMARK    2  A    between atoms: C_2  and  C_25
REMARK    3  A    between atoms: C_19  and  C_23
REMARK    4  A    between atoms: C_20  and  N_22
REMARK                            x       y       z     vdW  Elec       q    Type
REMARK                         _______ _______ _______ _____ _____    ______ ____
ROOT
ATOM      1  C   UNL     1      -0.751   3.122  -1.243  0.00  0.00    +0.012 C 
ATOM      2  C   UNL     1      -0.751   1.592  -1.233  0.00  0.00    -0.021 C 
ATOM      3  C   UNL     1      -0.013   1.086   0.008  0.00  0.00    +0.081 C 
ATOM      4  C   UNL     1      -0.718   1.572   1.252  0.00  0.00    +0.116 C 
ATOM      5  C   UNL     1      -2.050   1.766   1.256  0.00  0.00    +0.058 C 
ATOM      6  C   UNL     1      -2.826   1.529   0.105  0.00  0.00    +0.165 C 
ATOM      7  O   UNL     1      -4.029   1.694   0.154  0.00  0.00    -0.292 OA
ATOM      8  C   UNL     1      -2.194   1.077  -1.183  0.00  0.00    +0.086 C 
ATOM      9  C   UNL     1      -2.746   2.245   2.503  0.00  0.00    +0.144 C 
ATOM     10  C   UNL     1      -3.498   1.126   3.154  0.00  0.00    -0.002 A 
ATOM     11  C   UNL     1      -3.070  -0.067   3.695  0.00  0.00    +0.007 A 
ATOM     12  C   UNL     1      -4.045  -0.901   4.233  0.00  0.00    +0.000 A 
ATOM     13  C   UNL     1      -5.379  -0.547   4.222  0.00  0.00    +0.002 A 
ATOM     14  C   UNL     1      -5.816   0.651   3.679  0.00  0.00    +0.023 A 
ATOM     15  C   UNL     1      -4.847   1.497   3.138  0.00  0.00    +0.038 A 
ATOM     16  N   UNL     1      -4.998   2.736   2.540  0.00  0.00    -0.284 N 
ATOM     17  C   UNL     1      -3.818   3.251   2.138  0.00  0.00    +0.238 C 
ATOM     18  O   UNL     1      -3.647   4.318   1.587  0.00  0.00    -0.274 OA
ATOM     19  C   UNL     1      -1.763   2.860   3.455  0.00  0.00    +0.110 C 
ATOM     20  C   UNL     1      -0.437   2.606   3.321  0.00  0.00    +0.199 C 
ATOM     21  O   UNL     1       0.025   1.802   2.351  0.00  0.00    -0.445 OA
ATOM     22  C   UNL     1      -0.061   1.065  -2.492  0.00  0.00    +0.012 C 
ATOM     23  H   UNL     1      -5.852   3.181   2.423  0.00  0.00    +0.155 HD
ENDROOT
BRANCH  20  24
ATOM     24  N   UNL     1       0.450   3.183   4.196  0.00  0.00    -0.328 N 
ATOM     25  H   UNL     1       0.127   3.766   4.900  0.00  0.00    +0.145 HD
ATOM     26  H   UNL     1       1.400   3.008   4.109  0.00  0.00    +0.145 HD
ENDBRANCH  20  24
BRANCH  19  27
ATOM     27  C   UNL     1      -2.224   3.717   4.506  0.00  0.00    +0.102 C 
ATOM     28  N   UNL     1      -2.590   4.396   5.339  0.00  0.00    -0.191 NA
ENDBRANCH  19  27
TORSDOF 2
