REMARK  Name = ZINC00527490
REMARK  4 active torsions:
REMARK  status: ('A' for Active; 'I' for Inactive)
REMARK    1  A    between atoms: C_1  and  C_2
REMARK    2  A    between atoms: C_2  and  C_23
REMARK    3  A    between atoms: C_3  and  C_16
REMARK    4  A    between atoms: C_19  and  O_22
REMARK                            x       y       z     vdW  Elec       q    Type
REMARK                         _______ _______ _______ _____ _____    ______ ____
ROOT
ATOM      1  C   UNL     1       0.011   1.443   0.498  0.00  0.00    +0.023 C 
ATOM      2  C   UNL     1       0.002  -0.004   0.002  0.00  0.00    +0.066 C 
ATOM      3  C   UNL     1       0.581  -0.068  -1.416  0.00  0.00    +0.219 C 
ATOM      4  O   UNL     1       0.722  -1.436  -1.813  0.00  0.00    -0.455 OA
ATOM      5  C   UNL     1       1.495  -2.212  -1.025  0.00  0.00    +0.321 C 
ATOM      6  O   UNL     1       2.422  -2.838  -1.482  0.00  0.00    -0.250 OA
ATOM      7  C   UNL     1       1.162  -2.272   0.449  0.00  0.00    +0.126 C 
ATOM      8  C   UNL     1       0.865  -0.860   0.908  0.00  0.00    +0.160 C 
ATOM      9  O   UNL     1       1.297  -0.434   1.953  0.00  0.00    -0.296 OA
ATOM     10  C   UNL     1       2.352  -2.827   1.227  0.00  0.00    +0.026 C 
ATOM     11  C   UNL     1       2.011  -2.874   2.718  0.00  0.00    +0.001 C 
ATOM     12  C   UNL     1       0.788  -3.767   2.933  0.00  0.00    +0.000 C 
ATOM     13  C   UNL     1      -0.403  -3.199   2.159  0.00  0.00    +0.001 C 
ATOM     14  C   UNL     1      -0.065  -3.153   0.667  0.00  0.00    +0.026 C 
ATOM     15  C   UNL     1      -1.431  -0.539  -0.001  0.00  0.00    +0.023 C 
ENDROOT
BRANCH   3  16
ATOM     16  C   UNL     1      -0.347   0.639  -2.370  0.00  0.00    -0.006 A 
ATOM     17  C   UNL     1      -1.480  -0.004  -2.834  0.00  0.00    +0.011 A 
ATOM     18  C   UNL     1      -2.332   0.642  -3.709  0.00  0.00    +0.046 A 
ATOM     19  C   UNL     1      -2.050   1.937  -4.121  0.00  0.00    +0.117 A 
ATOM     20  C   UNL     1      -0.913   2.579  -3.654  0.00  0.00    +0.046 A 
ATOM     21  C   UNL     1      -0.067   1.931  -2.775  0.00  0.00    +0.011 A 
BRANCH  19  22
ATOM     22  O   UNL     1      -2.887   2.574  -4.982  0.00  0.00    -0.507 OA
ATOM     23  H   UNL     1      -3.590   3.076  -4.548  0.00  0.00    +0.292 HD
ENDBRANCH  19  22
ENDBRANCH   3  16
TORSDOF 2
