REMARK  Name = ZINC11226104
REMARK  5 active torsions:
REMARK  status: ('A' for Active; 'I' for Inactive)
REMARK    1  A    between atoms: C_1  and  C_2
REMARK    2  A    between atoms: C_2  and  C_4
REMARK    3  A    between atoms: C_2  and  N_14
REMARK    4  A    between atoms: C_15  and  C_17
REMARK    5  A    between atoms: C_29  and  C_32
REMARK                            x       y       z     vdW  Elec       q    Type
REMARK                         _______ _______ _______ _____ _____    ______ ____
ROOT
ATOM      1  C   UNL     1       1.766   6.131   1.208  0.00  0.00    +0.078 C 
ATOM      2  C   UNL     1       2.618   5.532   0.086  0.00  0.00    +0.031 C 
ATOM      3  C   UNL     1       2.727   4.019   0.287  0.00  0.00    +0.107 C 
ATOM      4  N   UNL     1       1.384   3.424   0.278  0.00  0.00    -0.314 N 
ATOM      5  C   UNL     1       0.563   3.950   1.376  0.00  0.00    +0.107 C 
ATOM      6  C   UNL     1       0.389   5.461   1.207  0.00  0.00    +0.031 C 
ATOM      7  C   UNL     1       1.453   2.036   0.327  0.00  0.00    +0.142 A 
ATOM      8  C   UNL     1       0.264   1.280   0.326  0.00  0.00    +0.049 A 
ATOM      9  C   UNL     1       0.320  -0.077   0.373  0.00  0.00    +0.053 A 
ATOM     10  C   UNL     1       1.576  -0.711   0.423  0.00  0.00    +0.178 A 
ATOM     11  N   UNL     1       1.962  -1.976   0.475  0.00  0.00    -0.128 NA
ATOM     12  N   UNL     1       3.248  -2.025   0.505  0.00  0.00    -0.123 NA
ATOM     13  C   UNL     1       3.748  -0.814   0.475  0.00  0.00    +0.258 A 
ATOM     14  N   UNL     1       2.716   0.054   0.423  0.00  0.00    -0.187 N 
ATOM     15  N   UNL     1       2.625   1.447   0.373  0.00  0.00    -0.148 NA
ENDROOT
BRANCH   1  17
ATOM     16  N   UNL     1       0.888   8.353   1.851  0.00  0.00    -0.309 N 
ATOM     17  C   UNL     1       1.605   7.612   0.983  0.00  0.00    +0.217 C 
ATOM     18  O   UNL     1       2.121   8.138   0.019  0.00  0.00    -0.275 OA
ATOM     19  H   UNL     1       0.476   7.932   2.622  0.00  0.00    +0.149 HD
BRANCH  16  21
ATOM     20  C   UNL     1       1.907  10.536   2.270  0.00  0.00    +0.033 C 
ATOM     21  C   UNL     1       0.732   9.793   1.632  0.00  0.00    +0.101 C 
BRANCH  21  22
ATOM     22  C   UNL     1      -0.557  10.259   2.257  0.00  0.00    -0.020 A 
ATOM     23  C   UNL     1      -1.083   9.591   3.320  0.00  0.00    +0.006 A 
ATOM     24  C   UNL     1      -2.273  10.008   3.912  0.00  0.00    +0.001 A 
ATOM     25  C   UNL     1      -2.945  11.095   3.445  0.00  0.00    +0.008 A 
ATOM     26  C   UNL     1      -2.434  11.810   2.349  0.00  0.00    -0.018 A 
ATOM     27  C   UNL     1      -1.220  11.390   1.750  0.00  0.00    -0.013 A 
ATOM     28  C   UNL     1      -0.711  12.102   0.650  0.00  0.00    +0.009 A 
ATOM     29  C   UNL     1      -1.383  13.189   0.182  0.00  0.00    +0.001 A 
ATOM     30  C   UNL     1      -2.574  13.606   0.774  0.00  0.00    +0.001 A 
ATOM     31  C   UNL     1      -3.099  12.938   1.838  0.00  0.00    +0.008 A 
ENDBRANCH  21  22
ENDBRANCH  16  21
ENDBRANCH   1  17
BRANCH  13  32
ATOM     32  C   UNL     1       5.212  -0.456   0.496  0.00  0.00    +0.454 C 
ATOM     33  F   UNL     1       5.975  -1.593   0.211  0.00  0.00    -0.163 F 
ATOM     34  F   UNL     1       5.465   0.529  -0.465  0.00  0.00    -0.163 F 
ATOM     35  F   UNL     1       5.554   0.030   1.763  0.00  0.00    -0.163 F 
ENDBRANCH  13  32
TORSDOF 4
