REMARK  Name = ZINC64349141
REMARK  6 active torsions:
REMARK  status: ('A' for Active; 'I' for Inactive)
REMARK    1  A    between atoms: C_1  and  O_2
REMARK    2  A    between atoms: O_2  and  C_3
REMARK    3  A    between atoms: C_6  and  C_9
REMARK    4  A    between atoms: N_28  and  C_31
REMARK    5  A    between atoms: C_31  and  C_32
REMARK    6  A    between atoms: C_32  and  C_33
REMARK                            x       y       z     vdW  Elec       q    Type
REMARK                         _______ _______ _______ _____ _____    ______ ____
ROOT
ATOM      1  C   UNL     1       2.587  -2.550   4.310  0.00  0.00    +0.133 C 
ATOM      2  C   UNL     1       3.999  -2.946   3.880  0.00  0.00    +0.131 C 
ATOM      3  C   UNL     1       3.833  -4.168   2.979  0.00  0.00    -0.034 C 
ATOM      4  C   UNL     1       4.318  -3.835   1.790  0.00  0.00    -0.001 A 
ATOM      5  C   UNL     1       4.459  -4.600   0.541  0.00  0.00    +0.010 A 
ATOM      6  C   UNL     1       5.006  -3.935  -0.511  0.00  0.00    +0.001 A 
ATOM      7  C   UNL     1       5.422  -2.602  -0.446  0.00  0.00    +0.002 A 
ATOM      8  C   UNL     1       5.333  -1.824   0.662  0.00  0.00    +0.026 A 
ATOM      9  C   UNL     1       4.776  -2.413   1.835  0.00  0.00    +0.043 A 
ATOM     10  N   UNL     1       4.590  -1.900   3.034  0.00  0.00    -0.375 N 
ATOM     11  C   UNL     1       3.192  -5.429   3.488  0.00  0.00    +0.065 C 
ATOM     12  C   UNL     1       2.003  -5.088   4.348  0.00  0.00    +0.167 C 
ATOM     13  N   UNL     1       1.801  -3.705   4.719  0.00  0.00    -0.279 N 
ATOM     14  C   UNL     1       0.705  -3.464   5.512  0.00  0.00    +0.234 C 
ATOM     15  O   UNL     1       0.466  -2.357   5.944  0.00  0.00    -0.274 OA
ATOM     16  C   UNL     1      -0.190  -4.646   5.820  0.00  0.00    +0.203 C 
ATOM     17  N   UNL     1      -0.395  -5.414   4.578  0.00  0.00    -0.291 N 
ATOM     18  C   UNL     1       0.712  -5.668   3.828  0.00  0.00    +0.237 C 
ATOM     19  O   UNL     1       0.662  -6.319   2.806  0.00  0.00    -0.274 OA
ATOM     20  H   UNL     1       4.798  -0.995   3.317  0.00  0.00    +0.160 HD
ENDROOT
BRANCH   1  24
ATOM     21  C   UNL     1       0.626  -0.618   1.042  0.00  0.00    +0.120 A 
ATOM     22  C   UNL     1       1.202   0.138   2.051  0.00  0.00    +0.046 A 
ATOM     23  C   UNL     1       1.835  -0.488   3.107  0.00  0.00    +0.009 A 
ATOM     24  C   UNL     1       1.895  -1.869   3.158  0.00  0.00    -0.025 A 
ATOM     25  C   UNL     1       1.322  -2.625   2.152  0.00  0.00    +0.009 A 
ATOM     26  C   UNL     1       0.682  -2.003   1.098  0.00  0.00    +0.046 A 
BRANCH  21  28
ATOM     27  C   UNL     1      -0.017   1.425   0.010  0.00  0.00    +0.277 C 
ATOM     28  O   UNL     1       0.002  -0.004   0.002  0.00  0.00    -0.495 OA
ENDBRANCH  21  28
ENDBRANCH   1  24
BRANCH  17  29
ATOM     29  C   UNL     1      -1.723  -5.880   4.173  0.00  0.00    +0.113 C 
BRANCH  29  30
ATOM     30  C   UNL     1      -2.395  -4.813   3.306  0.00  0.00    +0.054 C 
BRANCH  30  31
ATOM     31  C   UNL     1      -3.762  -5.293   2.889  0.00  0.00    -0.046 A 
ATOM     32  C   UNL     1      -3.914  -6.015   1.720  0.00  0.00    +0.004 A 
ATOM     33  C   UNL     1      -5.167  -6.455   1.337  0.00  0.00    +0.000 A 
ATOM     34  C   UNL     1      -6.269  -6.173   2.124  0.00  0.00    +0.000 A 
ATOM     35  C   UNL     1      -6.116  -5.451   3.293  0.00  0.00    +0.000 A 
ATOM     36  C   UNL     1      -4.862  -5.015   3.678  0.00  0.00    +0.004 A 
ENDBRANCH  30  31
ENDBRANCH  29  30
ENDBRANCH  17  29
TORSDOF 5
