REMARK  Name = ZINC10457973
REMARK  13 active torsions:
REMARK  status: ('A' for Active; 'I' for Inactive)
REMARK    1  A    between atoms: C_1  and  C_2
REMARK    2  A    between atoms: C_5  and  S_9
REMARK    3  A    between atoms: C_7  and  C_8
REMARK    4  A    between atoms: S_9  and  N_12
REMARK    5  A    between atoms: N_12  and  C_13
REMARK    6  A    between atoms: C_13  and  C_15
REMARK    7  A    between atoms: C_13  and  C_18
REMARK    8  A    between atoms: C_15  and  C_16
REMARK    9  A    between atoms: C_15  and  C_17
REMARK   10  A    between atoms: N_20  and  C_21
REMARK   11  A    between atoms: C_21  and  C_22
REMARK   12  A    between atoms: C_23  and  C_31
REMARK   13  A    between atoms: C_25  and  C_30
REMARK                            x       y       z     vdW  Elec       q    Type
REMARK                         _______ _______ _______ _____ _____    ______ ____
ROOT
ATOM      1  C   UNL     1      -0.922   1.753  -3.543  0.00  0.00    +0.165 C 
ENDROOT
BRANCH   1   2
ATOM      2  C   UNL     1       0.070   2.223  -2.511  0.00  0.00    +0.232 C 
ATOM      3  O   UNL     1       1.134   1.653  -2.389  0.00  0.00    -0.274 OA
ATOM      4  N   UNL     1      -0.225   3.276  -1.723  0.00  0.00    -0.310 N 
ATOM      5  H   UNL     1      -1.045   3.774  -1.866  0.00  0.00    +0.149 HD
BRANCH   4   6
ATOM      6  C   UNL     1       0.694   3.669  -0.652  0.00  0.00    +0.145 C 
BRANCH   6   7
ATOM      7  C   UNL     1       0.136   4.865   0.075  0.00  0.00    +0.037 A 
ATOM      8  C   UNL     1      -0.604   4.700   1.208  0.00  0.00    -0.039 A 
ATOM      9  C   UNL     1      -1.109   5.829   1.868  0.00  0.00    +0.024 A 
ATOM     10  C   UNL     1      -0.868   7.065   1.373  0.00  0.00    +0.016 A 
ATOM     11  N   UNL     1      -0.135   7.228   0.241  0.00  0.00    -0.326 N 
ATOM     12  H   UNL     1       0.028   8.121  -0.100  0.00  0.00    +0.169 HD
ATOM     13  C   UNL     1       0.367   6.163  -0.412  0.00  0.00    +0.254 A 
ATOM     14  O   UNL     1       1.024   6.325  -1.428  0.00  0.00    -0.268 OA
ATOM     15  C   UNL     1      -1.418   8.274   2.085  0.00  0.00    +0.063 C 
ATOM     16  C   UNL     1      -0.872   3.319   1.748  0.00  0.00    +0.044 C 
ENDBRANCH   6   7
ENDBRANCH   4   6
ENDBRANCH   1   2
BRANCH   1  17
ATOM     17  C   UNL     1      -1.968   0.858  -2.875  0.00  0.00    +0.010 C 
ATOM     18  C   UNL     1      -3.051   0.491  -3.892  0.00  0.00    +0.009 C 
ATOM     19  C   UNL     1      -1.296  -0.417  -2.363  0.00  0.00    +0.009 C 
ENDBRANCH   1  17
BRANCH   1  20
ATOM     20  N   UNL     1      -0.223   0.993  -4.583  0.00  0.00    -0.178 NA
ATOM     21  H   UNL     1       0.206   0.151  -4.363  0.00  0.00    +0.149 HD
BRANCH  20  22
ATOM     22  S   UNL     1      -0.164   1.572  -6.133  0.00  0.00    +0.059 S 
ATOM     23  O   UNL     1       0.618   0.651  -6.881  0.00  0.00    -0.153 OA
ATOM     24  O   UNL     1      -1.498   1.907  -6.492  0.00  0.00    -0.153 OA
BRANCH  22  29
ATOM     25  C   UNL     1       2.934   6.748  -5.989  0.00  0.00    +0.044 C 
ATOM     26  C   UNL     1       2.160   5.455  -6.025  0.00  0.00    -0.047 A 
ATOM     27  C   UNL     1       0.788   5.466  -5.855  0.00  0.00    +0.005 A 
ATOM     28  C   UNL     1       0.078   4.281  -5.893  0.00  0.00    +0.029 A 
ATOM     29  C   UNL     1       0.741   3.084  -6.091  0.00  0.00    +0.106 A 
ATOM     30  C   UNL     1       2.112   3.073  -6.261  0.00  0.00    +0.032 A 
ATOM     31  C   UNL     1       2.822   4.259  -6.228  0.00  0.00    -0.046 A 
ATOM     32  C   UNL     1       4.317   4.247  -6.414  0.00  0.00    +0.044 C 
ENDBRANCH  22  29
ENDBRANCH  20  22
ENDBRANCH   1  20
TORSDOF 7
