REMARK  Name = ZINC37281472
REMARK  6 active torsions:
REMARK  status: ('A' for Active; 'I' for Inactive)
REMARK    1  A    between atoms: C_1  and  C_2
REMARK    2  A    between atoms: C_3  and  C_7
REMARK    3  A    between atoms: C_7  and  C_9
REMARK    4  A    between atoms: C_7  and  N_10
REMARK    5  A    between atoms: N_10  and  C_11
REMARK    6  A    between atoms: C_20  and  C_23
REMARK                            x       y       z     vdW  Elec       q    Type
REMARK                         _______ _______ _______ _____ _____    ______ ____
ROOT
ATOM      1  C   UNL     1       1.531  -0.395  -4.520  0.00  0.00    +0.030 A 
ATOM      2  C   UNL     1       1.155   0.882  -4.914  0.00  0.00    +0.026 A 
ATOM      3  C   UNL     1       1.701   1.449  -6.051  0.00  0.00    +0.049 A 
ATOM      4  C   UNL     1       2.626   0.742  -6.799  0.00  0.00    +0.143 A 
ATOM      5  C   UNL     1       3.006  -0.541  -6.407  0.00  0.00    +0.077 A 
ATOM      6  C   UNL     1       2.463  -1.106  -5.265  0.00  0.00    +0.050 A 
ATOM      7  N   UNL     1       3.942  -1.244  -7.177  0.00  0.00    -0.279 N 
ATOM      8  C   UNL     1       4.685  -0.570  -8.082  0.00  0.00    +0.258 C 
ATOM      9  O   UNL     1       5.480  -1.163  -8.780  0.00  0.00    -0.271 OA
ATOM     10  C   UNL     1       4.522   0.922  -8.220  0.00  0.00    +0.256 C 
ATOM     11  O   UNL     1       3.173   1.288  -7.920  0.00  0.00    -0.478 OA
ATOM     12  C   UNL     1       5.470   1.630  -7.249  0.00  0.00    +0.062 C 
ATOM     13  H   UNL     1       4.056  -2.201  -7.062  0.00  0.00    +0.155 HD
ENDROOT
BRANCH   1  14
ATOM     14  N   UNL     1       0.975  -0.964  -3.369  0.00  0.00    -0.337 N 
ATOM     15  H   UNL     1       1.240  -1.855  -3.092  0.00  0.00    +0.147 HD
BRANCH  14  16
ATOM     16  C   UNL     1      -0.008  -0.215  -2.583  0.00  0.00    +0.106 C 
ATOM     17  C   UNL     1      -1.402  -0.420  -3.180  0.00  0.00    +0.033 C 
BRANCH  16  20
ATOM     18  C   UNL     1      -0.018   1.503   0.010  0.00  0.00    +0.066 C 
ATOM     19  C   UNL     1       0.002  -0.004   0.002  0.00  0.00    +0.050 A 
ATOM     20  C   UNL     1       0.006  -0.708  -1.159  0.00  0.00    +0.032 A 
ATOM     21  S   UNL     1       0.032  -2.379  -0.531  0.00  0.00    -0.078 S 
ATOM     22  C   UNL     1       0.036  -2.009   1.111  0.00  0.00    +0.156 A 
ATOM     23  N   UNL     1       0.023  -0.699   1.122  0.00  0.00    -0.252 NA
ENDBRANCH  16  20
ENDBRANCH  14  16
ENDBRANCH   1  14
TORSDOF 3
