REMARK  Name = ZINC47672389
REMARK  2 active torsions:
REMARK  status: ('A' for Active; 'I' for Inactive)
REMARK    1  A    between atoms: C_5  and  C_11
REMARK    2  A    between atoms: N_13  and  C_14
REMARK                            x       y       z     vdW  Elec       q    Type
REMARK                         _______ _______ _______ _____ _____    ______ ____
ROOT
ATOM      1  C   UNL     1       5.992   0.631   0.119  0.00  0.00    +0.284 C 
ATOM      2  O   UNL     1       6.654   1.640   0.270  0.00  0.00    -0.266 OA
ATOM      3  N   UNL     1       6.605  -0.556  -0.062  0.00  0.00    -0.275 N 
ATOM      4  H   UNL     1       6.080  -1.370  -0.111  0.00  0.00    +0.155 HD
ENDROOT
BRANCH   1   9
ATOM      5  C   UNL     1       0.006   1.437   0.257  0.00  0.00    +0.002 A 
ATOM      6  C   UNL     1       1.183   2.124   0.358  0.00  0.00    +0.012 A 
ATOM      7  C   UNL     1       2.396   1.440   0.251  0.00  0.00    +0.022 A 
ATOM      8  C   UNL     1       3.801   1.841   0.308  0.00  0.00    +0.063 A 
ATOM      9  C   UNL     1       4.525   0.705   0.134  0.00  0.00    +0.191 A 
ATOM     10  O   UNL     1       3.692  -0.345  -0.023  0.00  0.00    -0.449 OA
ATOM     11  C   UNL     1       2.405   0.049   0.040  0.00  0.00    +0.150 A 
ATOM     12  C   UNL     1       1.196  -0.629  -0.061  0.00  0.00    +0.061 A 
ATOM     13  C   UNL     1       0.009   0.065   0.049  0.00  0.00    +0.019 A 
ATOM     14 BR   UNL     1       1.177  -2.499  -0.345  0.00  0.00    -0.046 Br
ENDBRANCH   1   9
BRANCH   3  15
ATOM     15  C   UNL     1       8.002  -0.613  -0.181  0.00  0.00    +0.097 A 
ATOM     16  C   UNL     1       8.735  -1.360   0.681  0.00  0.00    +0.110 A 
ATOM     17  N   UNL     1      10.087  -1.417   0.569  0.00  0.00    -0.365 N 
ATOM     18  C   UNL     1      10.746  -0.737  -0.400  0.00  0.00    +0.086 A 
ATOM     19  C   UNL     1      10.074   0.025  -1.291  0.00  0.00    +0.070 A 
ATOM     20  C   UNL     1       8.666   0.105  -1.210  0.00  0.00    +0.203 A 
ATOM     21  O   UNL     1       8.032   0.783  -2.006  0.00  0.00    -0.286 OA
ATOM     22  H   UNL     1      10.592  -1.957   1.197  0.00  0.00    +0.165 HD
ENDBRANCH   3  15
TORSDOF 2
