REMARK  Name = ZINC45605225
REMARK  11 active torsions:
REMARK  status: ('A' for Active; 'I' for Inactive)
REMARK    1  A    between atoms: C_1  and  C_2
REMARK    2  A    between atoms: C_3  and  C_14
REMARK    3  A    between atoms: N_8  and  C_11
REMARK    4  A    between atoms: C_11  and  C_12
REMARK    5  A    between atoms: C_11  and  C_13
REMARK    6  A    between atoms: C_14  and  O_16
REMARK    7  A    between atoms: O_16  and  C_17
REMARK    8  A    between atoms: C_17  and  C_19
REMARK    9  A    between atoms: C_17  and  C_20
REMARK   10  A    between atoms: N_22  and  C_23
REMARK   11  A    between atoms: C_29  and  C_31
REMARK                            x       y       z     vdW  Elec       q    Type
REMARK                         _______ _______ _______ _____ _____    ______ ____
ROOT
ATOM      1  C   UNL     1      -0.229   0.064  -2.484  0.00  0.00    +0.342 C 
ATOM      2  O   UNL     1      -0.155   1.276  -2.482  0.00  0.00    -0.245 OA
ENDROOT
BRANCH   1   5
ATOM      3  C   UNL     1      -0.074   1.501   0.015  0.00  0.00    +0.066 C 
ATOM      4  C   UNL     1      -0.025  -0.005   0.004  0.00  0.00    +0.055 A 
ATOM      5  C   UNL     1      -0.101  -0.685  -1.219  0.00  0.00    +0.081 A 
ATOM      6  C   UNL     1      -0.055  -2.080  -1.226  0.00  0.00    +0.030 A 
ATOM      7  C   UNL     1       0.067  -2.737   0.001  0.00  0.00    +0.039 A 
ATOM      8  C   UNL     1       0.146  -4.139   0.399  0.00  0.00    +0.144 A 
ATOM      9  N   UNL     1       0.252  -4.173   1.697  0.00  0.00    -0.177 NA
ATOM     10  N   UNL     1       0.251  -2.875   2.214  0.00  0.00    -0.244 N 
ATOM     11  C   UNL     1       0.138  -1.979   1.189  0.00  0.00    +0.159 A 
ATOM     12  N   UNL     1       0.094  -0.652   1.139  0.00  0.00    -0.232 NA
BRANCH  10  13
ATOM     13  C   UNL     1       0.353  -2.529   3.634  0.00  0.00    +0.103 C 
ATOM     14  C   UNL     1      -0.818  -3.150   4.397  0.00  0.00    +0.032 C 
ATOM     15  C   UNL     1       1.671  -3.067   4.196  0.00  0.00    +0.032 C 
ENDBRANCH  10  13
ENDBRANCH   1   5
BRANCH   1  16
ATOM     16  O   UNL     1      -0.429  -0.597  -3.641  0.00  0.00    -0.449 OA
BRANCH  16  17
ATOM     17  C   UNL     1      -0.544   0.191  -4.827  0.00  0.00    +0.259 C 
ATOM     18  C   UNL     1      -2.011   0.560  -5.054  0.00  0.00    +0.062 C 
BRANCH  17  19
ATOM     19  C   UNL     1      -0.036  -0.598  -6.006  0.00  0.00    +0.254 C 
ATOM     20  O   UNL     1       0.298  -1.755  -5.863  0.00  0.00    -0.272 OA
ATOM     21  N   UNL     1       0.047  -0.018  -7.220  0.00  0.00    -0.309 N 
ATOM     22  H   UNL     1      -0.220   0.908  -7.335  0.00  0.00    +0.149 HD
BRANCH  21  23
ATOM     23  C   UNL     1       0.541  -0.785  -8.367  0.00  0.00    +0.076 C 
ATOM     24  C   UNL     1      -0.613  -1.576  -8.986  0.00  0.00    +0.022 C 
ATOM     25  C   UNL     1      -0.097  -2.377 -10.183  0.00  0.00    +0.002 C 
ATOM     26  C   UNL     1       0.482  -1.420 -11.226  0.00  0.00    +0.000 C 
ATOM     27  C   UNL     1       1.636  -0.628 -10.607  0.00  0.00    +0.005 C 
ATOM     28  C   UNL     1       1.120   0.173  -9.410  0.00  0.00    +0.006 C 
ATOM     29  C   UNL     1       2.274   0.964  -8.790  0.00  0.00    +0.009 C 
ENDBRANCH  21  23
ENDBRANCH  17  19
ENDBRANCH  16  17
ENDBRANCH   1  16
TORSDOF 6
