REMARK  Name = ZINC41171587
REMARK  5 active torsions:
REMARK  status: ('A' for Active; 'I' for Inactive)
REMARK    1  A    between atoms: C_1  and  C_2
REMARK    2  A    between atoms: C_5  and  C_8
REMARK    3  A    between atoms: N_11  and  S_15
REMARK    4  A    between atoms: S_15  and  C_18
REMARK    5  A    between atoms: C_24  and  C_26
REMARK                            x       y       z     vdW  Elec       q    Type
REMARK                         _______ _______ _______ _____ _____    ______ ____
ROOT
ATOM      1  C   UNL     1       0.059  -4.275  -0.021  0.00  0.00    +0.164 C 
ATOM      2  C   UNL     1      -1.372  -4.807   0.112  0.00  0.00    +0.146 C 
ATOM      3  N   UNL     1      -1.311  -6.266   0.290  0.00  0.00    -0.170 NA
ATOM      4  C   UNL     1      -0.411  -6.800   1.325  0.00  0.00    +0.137 C 
ATOM      5  C   UNL     1       0.974  -6.171   1.132  0.00  0.00    +0.178 C 
ATOM      6  O   UNL     1       0.843  -4.749   1.077  0.00  0.00    -0.369 OA
ENDROOT
BRANCH   1  11
ATOM      7  C   UNL     1      -0.018   1.503   0.010  0.00  0.00    +0.044 C 
ATOM      8  C   UNL     1       0.002  -0.004   0.002  0.00  0.00    -0.050 A 
ATOM      9  C   UNL     1       0.006  -0.689  -1.199  0.00  0.00    +0.004 A 
ATOM     10  C   UNL     1       0.025  -2.071  -1.206  0.00  0.00    +0.006 A 
ATOM     11  C   UNL     1       0.040  -2.768  -0.013  0.00  0.00    -0.018 A 
ATOM     12  C   UNL     1       0.037  -2.084   1.188  0.00  0.00    +0.006 A 
ATOM     13  C   UNL     1       0.023  -0.702   1.195  0.00  0.00    +0.004 A 
ENDBRANCH   1  11
BRANCH   3  14
ATOM     14  S   UNL     1      -2.228  -7.278  -0.647  0.00  0.00    +0.087 S 
ATOM     15  O   UNL     1      -2.386  -8.482   0.091  0.00  0.00    -0.151 OA
ATOM     16  O   UNL     1      -3.335  -6.515  -1.106  0.00  0.00    -0.151 OA
BRANCH  14  17
ATOM     17  C   UNL     1      -1.270  -7.681  -2.070  0.00  0.00    +0.256 A 
ATOM     18  N   UNL     1      -0.052  -7.304  -2.404  0.00  0.00    -0.119 NA
ATOM     19  N   UNL     1       0.445  -7.723  -3.487  0.00  0.00    -0.124 NA
ATOM     20  C   UNL     1      -0.219  -8.526  -4.295  0.00  0.00    +0.189 A 
ATOM     21  S   UNL     1      -1.673  -8.724  -3.465  0.00  0.00    -0.011 S 
ATOM     22  N   UNL     1       0.179  -9.072  -5.511  0.00  0.00    -0.263 N 
ATOM     23  C   UNL     1       1.400  -8.792  -6.008  0.00  0.00    +0.216 C 
ATOM     24  O   UNL     1       2.152  -8.065  -5.395  0.00  0.00    -0.276 OA
ATOM     25  C   UNL     1       1.830  -9.384  -7.325  0.00  0.00    +0.109 C 
ATOM     26  H   UNL     1      -0.423  -9.653  -6.001  0.00  0.00    +0.157 HD
ENDBRANCH  14  17
ENDBRANCH   3  14
TORSDOF 3
