REMARK  Name = ZINC64353013
REMARK  4 active torsions:
REMARK  status: ('A' for Active; 'I' for Inactive)
REMARK    1  A    between atoms: C_4  and  C_7
REMARK    2  A    between atoms: C_8  and  C_12
REMARK    3  A    between atoms: N_17  and  C_20
REMARK    4  A    between atoms: C_20  and  C_21
REMARK                            x       y       z     vdW  Elec       q    Type
REMARK                         _______ _______ _______ _____ _____    ______ ____
ROOT
ATOM      1  C   UNL     1       2.812  -2.742   0.241  0.00  0.00    +0.247 C 
ATOM      2  O   UNL     1       1.689  -2.298   0.089  0.00  0.00    -0.270 OA
ATOM      3  N   UNL     1       3.012  -4.075   0.263  0.00  0.00    -0.295 N 
ATOM      4  C   UNL     1       4.340  -4.633   0.559  0.00  0.00    +0.123 C 
ATOM      5  C   UNL     1       4.191  -5.680   1.668  0.00  0.00    +0.104 C 
ATOM      6  N   UNL     1       3.176  -6.666   1.274  0.00  0.00    -0.294 NA
ATOM      7  C   UNL     1       1.856  -6.041   1.123  0.00  0.00    +0.104 C 
ATOM      8  C   UNL     1       1.907  -5.009  -0.002  0.00  0.00    +0.123 C 
ENDROOT
BRANCH   1  10
ATOM      9  C   UNL     1       4.813  -1.386  -0.560  0.00  0.00    +0.103 C 
ATOM     10  C   UNL     1       3.945  -1.829   0.398  0.00  0.00    +0.065 C 
ATOM     11  C   UNL     1       4.433  -1.149   1.666  0.00  0.00    +0.208 C 
ATOM     12  N   UNL     1       5.590  -0.365   1.205  0.00  0.00    -0.182 NA
ATOM     13  N   UNL     1       5.732  -0.551  -0.005  0.00  0.00    -0.153 NA
BRANCH   9  17
ATOM     14  C   UNL     1       4.672  -2.474  -4.664  0.00  0.00    +0.000 A 
ATOM     15  C   UNL     1       5.582  -1.524  -4.234  0.00  0.00    +0.001 A 
ATOM     16  C   UNL     1       5.632  -1.166  -2.903  0.00  0.00    +0.010 A 
ATOM     17  C   UNL     1       4.763  -1.765  -1.988  0.00  0.00    +0.003 A 
ATOM     18  C   UNL     1       3.848  -2.723  -2.429  0.00  0.00    +0.010 A 
ATOM     19  C   UNL     1       3.808  -3.071  -3.763  0.00  0.00    +0.001 A 
ENDBRANCH   9  17
ENDBRANCH   1  10
BRANCH   6  20
ATOM     20  C   UNL     1       3.126  -7.781   2.229  0.00  0.00    +0.135 C 
BRANCH  20  21
ATOM     21  C   UNL     1       4.311  -8.685   2.010  0.00  0.00    +0.025 C 
ATOM     22  N   UNL     1       4.439  -9.380   0.830  0.00  0.00    -0.319 N 
ATOM     23  C   UNL     1       5.136 -10.672   0.882  0.00  0.00    +0.230 C 
ATOM     24  N   UNL     1       6.390 -10.443   1.661  0.00  0.00    -0.245 N 
ATOM     25  C   UNL     1       7.504 -11.035   1.097  0.00  0.00    +0.088 C 
ATOM     26  C   UNL     1       7.520 -11.453  -0.164  0.00  0.00    +0.059 C 
ATOM     27  S   UNL     1       5.859 -11.044  -0.768  0.00  0.00    -0.090 S 
ATOM     28  C   UNL     1       6.371  -9.659   2.771  0.00  0.00    +0.247 C 
ATOM     29  O   UNL     1       7.290  -9.681   3.570  0.00  0.00    -0.270 OA
ATOM     30  C   UNL     1       5.253  -8.811   2.969  0.00  0.00    +0.087 C 
ATOM     31  H   UNL     1       4.084  -9.031  -0.003  0.00  0.00    +0.148 HD
ENDBRANCH  20  21
ENDBRANCH   6  20
TORSDOF 4
