REMARK  Name = ZINC58406676
REMARK  9 active torsions:
REMARK  status: ('A' for Active; 'I' for Inactive)
REMARK    1  A    between atoms: C_1  and  C_2
REMARK    2  A    between atoms: C_7  and  C_8
REMARK    3  A    between atoms: N_10  and  C_11
REMARK    4  A    between atoms: C_11  and  C_13
REMARK    5  A    between atoms: C_11  and  C_14
REMARK    6  A    between atoms: C_17  and  S_20
REMARK    7  A    between atoms: S_20  and  N_23
REMARK    8  A    between atoms: N_23  and  C_24
REMARK    9  A    between atoms: N_23  and  C_25
REMARK                            x       y       z     vdW  Elec       q    Type
REMARK                         _______ _______ _______ _____ _____    ______ ____
ROOT
ATOM      1  C   UNL     1       0.032  -0.391   2.496  0.00  0.00    +0.261 C 
ATOM      2  O   UNL     1       0.019   0.795   2.765  0.00  0.00    -0.269 OA
ATOM      3  N   UNL     1       0.055  -1.306   3.486  0.00  0.00    -0.304 N 
ATOM      4  H   UNL     1       0.065  -2.252   3.271  0.00  0.00    +0.150 HD
ENDROOT
BRANCH   1  11
ATOM      5  C   UNL     1      -0.018   1.503   0.010  0.00  0.00    +0.047 C 
ATOM      6  C   UNL     1       0.002  -0.004   0.002  0.00  0.00    -0.010 A 
ATOM      7  C   UNL     1       0.008  -0.834  -1.125  0.00  0.00    +0.042 A 
ATOM      8  C   UNL     1       0.026  -2.155  -0.678  0.00  0.00    +0.027 A 
ATOM      9  N   UNL     1       0.034  -2.137   0.655  0.00  0.00    -0.354 N 
ATOM     10  H   UNL     1       0.048  -2.920   1.227  0.00  0.00    +0.166 HD
ATOM     11  C   UNL     1       0.024  -0.827   1.094  0.00  0.00    +0.106 A 
ATOM     12  C   UNL     1       0.031  -3.337  -1.615  0.00  0.00    +0.054 C 
ATOM     13  C   UNL     1      -0.488  -2.895  -2.987  0.00  0.00    +0.014 C 
ATOM     14  C   UNL     1       0.287  -1.674  -3.491  0.00  0.00    +0.080 C 
ATOM     15  C   UNL     1       0.002  -0.505  -2.559  0.00  0.00    +0.165 C 
ATOM     16  O   UNL     1      -0.215   0.616  -2.969  0.00  0.00    -0.292 OA
ENDBRANCH   1  11
BRANCH   3  17
ATOM     17  C   UNL     1       0.063  -0.872   4.885  0.00  0.00    +0.100 C 
ATOM     18  C   UNL     1      -1.373  -0.620   5.349  0.00  0.00    +0.033 C 
BRANCH  17  19
ATOM     19  C   UNL     1       0.686  -1.944   5.740  0.00  0.00    -0.027 A 
ATOM     20  C   UNL     1       0.413  -3.276   5.487  0.00  0.00    +0.007 A 
ATOM     21  C   UNL     1       0.985  -4.260   6.272  0.00  0.00    +0.029 A 
ATOM     22  C   UNL     1       1.831  -3.912   7.309  0.00  0.00    +0.105 A 
ATOM     23  C   UNL     1       2.104  -2.581   7.561  0.00  0.00    +0.029 A 
ATOM     24  C   UNL     1       1.536  -1.597   6.774  0.00  0.00    +0.007 A 
BRANCH  22  25
ATOM     25  S   UNL     1       2.559  -5.166   8.310  0.00  0.00    +0.060 S 
ATOM     26  O   UNL     1       2.878  -4.559   9.554  0.00  0.00    -0.153 OA
ATOM     27  O   UNL     1       1.714  -6.305   8.213  0.00  0.00    -0.153 OA
BRANCH  25  28
ATOM     28  N   UNL     1       3.997  -5.583   7.603  0.00  0.00    -0.183 NA
ATOM     29  C   UNL     1       5.227  -4.878   7.973  0.00  0.00    +0.131 C 
ATOM     30  C   UNL     1       4.040  -6.657   6.607  0.00  0.00    +0.131 C 
ENDBRANCH  25  28
ENDBRANCH  22  25
ENDBRANCH  17  19
ENDBRANCH   3  17
TORSDOF 5
