REMARK  Name = ZINC21254667
REMARK  8 active torsions:
REMARK  status: ('A' for Active; 'I' for Inactive)
REMARK    1  A    between atoms: C_1  and  C_2
REMARK    2  A    between atoms: C_5  and  C_11
REMARK    3  A    between atoms: C_7  and  N_8
REMARK    4  A    between atoms: C_22  and  C_25
REMARK    5  A    between atoms: C_28  and  O_31
REMARK    6  A    between atoms: O_31  and  C_32
REMARK    7  A    between atoms: C_32  and  C_33
REMARK    8  A    between atoms: C_32  and  C_34
REMARK                            x       y       z     vdW  Elec       q    Type
REMARK                         _______ _______ _______ _____ _____    ______ ____
ROOT
ATOM      1  C   UNL     1       6.893   1.123   2.421  0.00  0.00    +0.063 C 
ATOM      2  C   UNL     1       6.872   0.051   1.330  0.00  0.00    +0.109 C 
ATOM      3  C   UNL     1       6.002   0.521   0.193  0.00  0.00    +0.218 C 
ATOM      4  O   UNL     1       6.277   0.211  -0.946  0.00  0.00    -0.275 OA
ATOM      5  N   UNL     1       4.922   1.282   0.438  0.00  0.00    -0.289 N 
ATOM      6  C   UNL     1       4.572   1.629   1.718  0.00  0.00    +0.018 C 
ATOM      7  C   UNL     1       5.479   1.566   2.716  0.00  0.00    +0.020 C 
ATOM      8  C   UNL     1       5.139   1.908   4.035  0.00  0.00    +0.162 C 
ATOM      9  O   UNL     1       5.986   1.849   4.905  0.00  0.00    -0.292 OA
ATOM     10  C   UNL     1       3.743   2.344   4.389  0.00  0.00    +0.088 C 
ATOM     11  C   UNL     1       2.757   1.698   3.411  0.00  0.00    +0.032 C 
ATOM     12  C   UNL     1       3.159   2.083   1.986  0.00  0.00    +0.059 C 
ATOM     13  H   UNL     1       4.300   1.639  -0.396  0.00  0.00    +0.155 HD
ENDROOT
BRANCH   1  18
ATOM     14  C   UNL     1       9.995   5.651   0.613  0.00  0.00    +0.046 C 
ATOM     15  C   UNL     1       9.186   4.470   1.084  0.00  0.00    -0.020 A 
ATOM     16  C   UNL     1       8.066   4.073   0.378  0.00  0.00    +0.006 A 
ATOM     17  C   UNL     1       7.326   2.988   0.808  0.00  0.00    +0.004 A 
ATOM     18  C   UNL     1       7.702   2.304   1.950  0.00  0.00    -0.037 A 
ATOM     19  C   UNL     1       8.822   2.700   2.655  0.00  0.00    +0.037 A 
ATOM     20  C   UNL     1       9.564   3.784   2.223  0.00  0.00    +0.129 A 
BRANCH  20  21
ATOM     21  N   UNL     1      10.764   4.208   2.979  0.00  0.00    +0.057 N 
ATOM     22  O   UNL     1      11.747   4.613   2.385  0.00  0.00    -0.126 OA
ATOM     23  O   UNL     1      10.768   4.153   4.196  0.00  0.00    -0.126 OA
ENDBRANCH  20  21
ENDBRANCH   1  18
BRANCH  11  24
ATOM     24  C   UNL     1       1.363   2.195   3.695  0.00  0.00    -0.043 A 
ATOM     25  C   UNL     1       0.368   1.300   4.043  0.00  0.00    +0.007 A 
ATOM     26  C   UNL     1      -0.912   1.753   4.299  0.00  0.00    +0.046 A 
ATOM     27  C   UNL     1      -1.196   3.109   4.217  0.00  0.00    +0.121 A 
ATOM     28  C   UNL     1      -0.196   4.005   3.868  0.00  0.00    +0.046 A 
ATOM     29  C   UNL     1       1.081   3.546   3.608  0.00  0.00    +0.007 A 
BRANCH  27  30
ATOM     30  O   UNL     1      -2.453   3.557   4.473  0.00  0.00    -0.489 OA
BRANCH  30  31
ATOM     31  C   UNL     1      -3.458   2.570   4.713  0.00  0.00    +0.167 C 
ATOM     32  C   UNL     1      -3.412   2.142   6.182  0.00  0.00    +0.051 C 
ATOM     33  C   UNL     1      -4.835   3.156   4.395  0.00  0.00    +0.051 C 
ENDBRANCH  30  31
ENDBRANCH  27  30
ENDBRANCH  11  24
TORSDOF 5
