REMARK  Name = ZINC16051072
REMARK  7 active torsions:
REMARK  status: ('A' for Active; 'I' for Inactive)
REMARK    1  A    between atoms: C_4  and  C_7
REMARK    2  A    between atoms: C_7  and  C_8
REMARK    3  A    between atoms: C_8  and  C_9
REMARK    4  A    between atoms: N_13  and  C_17
REMARK    5  A    between atoms: C_17  and  C_18
REMARK    6  A    between atoms: N_20  and  C_21
REMARK    7  A    between atoms: C_22  and  C_30
REMARK                            x       y       z     vdW  Elec       q    Type
REMARK                         _______ _______ _______ _____ _____    ______ ____
ROOT
ATOM      1  C   UNL     1       2.033   8.450  -5.147  0.00  0.00    +0.236 C 
ATOM      2  O   UNL     1       2.289   7.319  -4.792  0.00  0.00    -0.274 OA
ATOM      3  N   UNL     1       2.447   8.889  -6.352  0.00  0.00    -0.278 N 
ATOM      4  H   UNL     1       2.242   9.794  -6.635  0.00  0.00    +0.155 HD
ENDROOT
BRANCH   3   5
ATOM      5  C   UNL     1       3.166   8.047  -7.187  0.00  0.00    +0.084 A 
ATOM      6  C   UNL     1       3.668   8.312  -8.453  0.00  0.00    +0.068 A 
ATOM      7  C   UNL     1       4.396   7.247  -9.123  0.00  0.00    -0.023 A 
ATOM      8  C   UNL     1       4.497   6.094  -8.428  0.00  0.00    -0.004 A 
ATOM      9  S   UNL     1       3.648   6.407  -6.905  0.00  0.00    -0.077 S 
ATOM     10  C   UNL     1       5.179   4.833  -8.863  0.00  0.00    +0.043 C 
ATOM     11  C   UNL     1       5.428   4.917 -10.376  0.00  0.00    +0.005 C 
ATOM     12  C   UNL     1       6.051   6.278 -10.698  0.00  0.00    +0.005 C 
ATOM     13  C   UNL     1       5.011   7.384 -10.510  0.00  0.00    +0.037 C 
BRANCH   6  14
ATOM     14  C   UNL     1       3.474   9.618  -9.090  0.00  0.00    +0.244 C 
ATOM     15  O   UNL     1       4.294  10.502  -8.927  0.00  0.00    -0.270 OA
ATOM     16  N   UNL     1       2.388   9.839  -9.857  0.00  0.00    -0.325 N 
ATOM     17  H   UNL     1       1.734   9.134  -9.988  0.00  0.00    +0.145 HD
ATOM     18  H   UNL     1       2.260  10.703 -10.279  0.00  0.00    +0.145 HD
ENDBRANCH   6  14
ENDBRANCH   3   5
BRANCH   1  19
ATOM     19  C   UNL     1       1.252   9.365  -4.239  0.00  0.00    +0.214 C 
BRANCH  19  23
ATOM     20  C   UNL     1      -0.112   7.394  -1.402  0.00  0.00    +0.161 C 
ATOM     21  C   UNL     1      -0.203   7.934  -2.815  0.00  0.00    +0.244 C 
ATOM     22  O   UNL     1      -1.098   7.751  -3.612  0.00  0.00    -0.273 OA
ATOM     23  N   UNL     1       0.922   8.658  -2.999  0.00  0.00    -0.216 N 
ATOM     24  C   UNL     1       1.698   8.651  -1.909  0.00  0.00    +0.310 C 
ATOM     25  O   UNL     1       2.762   9.234  -1.833  0.00  0.00    -0.252 OA
ATOM     26  N   UNL     1       1.169   7.927  -0.906  0.00  0.00    -0.288 N 
ATOM     27  H   UNL     1       1.555   7.785  -0.028  0.00  0.00    +0.151 HD
BRANCH  20  28
ATOM     28  C   UNL     1      -0.091   5.864  -1.410  0.00  0.00    +0.036 C 
BRANCH  28  29
ATOM     29  C   UNL     1      -0.070   5.347   0.030  0.00  0.00    +0.037 C 
BRANCH  29  33
ATOM     30  C   UNL     1      -0.013   1.076   0.008  0.00  0.00    +0.000 A 
ATOM     31  C   UNL     1      -1.219   1.751   0.017  0.00  0.00    +0.000 A 
ATOM     32  C   UNL     1      -1.238   3.133   0.030  0.00  0.00    +0.003 A 
ATOM     33  C   UNL     1      -0.050   3.840   0.022  0.00  0.00    -0.047 A 
ATOM     34  C   UNL     1       1.156   3.165   0.008  0.00  0.00    +0.003 A 
ATOM     35  C   UNL     1       1.175   1.783   0.000  0.00  0.00    +0.000 A 
ENDBRANCH  29  33
ENDBRANCH  28  29
ENDBRANCH  20  28
ENDBRANCH  19  23
ENDBRANCH   1  19
TORSDOF 7
