REMARK  Name = ZINC00222331
REMARK  2 active torsions:
REMARK  status: ('A' for Active; 'I' for Inactive)
REMARK    1  A    between atoms: C_6  and  C_7
REMARK    2  A    between atoms: C_10  and  C_18
REMARK                            x       y       z     vdW  Elec       q    Type
REMARK                         _______ _______ _______ _____ _____    ______ ____
ROOT
ATOM      1  C   UNL     1      -1.293  -0.775   0.011  0.00  0.00    +0.106 C 
ATOM      2  C   UNL     1      -1.616  -1.253  -1.409  0.00  0.00    +0.059 C 
ATOM      3  C   UNL     1      -2.961  -1.991  -1.415  0.00  0.00    +0.144 C 
ATOM      4  N   UNL     1      -2.962  -2.973  -0.334  0.00  0.00    -0.206 N 
ATOM      5  C   UNL     1      -2.119  -2.946   0.728  0.00  0.00    +0.236 A 
ATOM      6  N   UNL     1      -2.406  -3.973   1.478  0.00  0.00    -0.092 NA
ATOM      7  N   UNL     1      -3.377  -4.645   0.962  0.00  0.00    -0.021 NA
ATOM      8  N   UNL     1      -3.768  -4.096  -0.143  0.00  0.00    -0.042 NA
ATOM      9  N   UNL     1      -1.162  -1.953   0.891  0.00  0.00    -0.305 N 
ATOM     10  H   UNL     1      -0.448  -2.029   1.543  0.00  0.00    +0.150 HD
ENDROOT
BRANCH   1  16
ATOM     11  C   UNL     1      -0.017   1.378   0.010  0.00  0.00    +0.007 A 
ATOM     12  C   UNL     1       1.171   2.086   0.002  0.00  0.00    +0.020 A 
ATOM     13  C   UNL     1       2.378   1.410  -0.013  0.00  0.00    +0.041 A 
ATOM     14  C   UNL     1       2.396   0.027  -0.021  0.00  0.00    +0.020 A 
ATOM     15  C   UNL     1       1.208  -0.679  -0.013  0.00  0.00    +0.007 A 
ATOM     16  C   UNL     1       0.002  -0.004   0.002  0.00  0.00    -0.027 A 
ATOM     17 CL   UNL     1       3.870   2.298  -0.023  0.00  0.00    -0.084 Cl
ENDBRANCH   1  16
BRANCH   3  18
ATOM     18  C   UNL     1      -3.149  -2.690  -2.737  0.00  0.00    -0.023 A 
ATOM     19  C   UNL     1      -2.244  -3.653  -3.144  0.00  0.00    +0.007 A 
ATOM     20  C   UNL     1      -2.416  -4.294  -4.356  0.00  0.00    +0.020 A 
ATOM     21  C   UNL     1      -3.493  -3.972  -5.163  0.00  0.00    +0.041 A 
ATOM     22  C   UNL     1      -4.397  -3.008  -4.755  0.00  0.00    +0.020 A 
ATOM     23  C   UNL     1      -4.228  -2.371  -3.540  0.00  0.00    +0.007 A 
ATOM     24 CL   UNL     1      -3.708  -4.776  -6.686  0.00  0.00    -0.084 Cl
ENDBRANCH   3  18
TORSDOF 2
