REMARK  Name = ZINC30874731
REMARK  5 active torsions:
REMARK  status: ('A' for Active; 'I' for Inactive)
REMARK    1  A    between atoms: C_1  and  C_2
REMARK    2  A    between atoms: C_5  and  C_8
REMARK    3  A    between atoms: C_8  and  N_9
REMARK    4  A    between atoms: N_15  and  S_16
REMARK    5  A    between atoms: S_16  and  C_19
REMARK                            x       y       z     vdW  Elec       q    Type
REMARK                         _______ _______ _______ _____ _____    ______ ____
ROOT
ATOM      1  N   UNL     1      -1.753   2.345   1.408  0.00  0.00    -0.267 NA
ATOM      2  C   UNL     1      -3.130   2.868   1.462  0.00  0.00    +0.193 C 
ATOM      3  N   UNL     1      -3.505   2.975   2.882  0.00  0.00    -0.303 N 
ATOM      4  C   UNL     1      -2.570   3.464   3.767  0.00  0.00    +0.202 C 
ATOM      5  N   UNL     1      -1.328   3.598   3.422  0.00  0.00    -0.303 N 
ATOM      6  C   UNL     1      -0.833   3.264   2.090  0.00  0.00    +0.193 C 
ATOM      7  N   UNL     1      -2.961   3.817   5.037  0.00  0.00    -0.097 NA
ATOM      8  H   UNL     1      -4.509   2.669   3.210  0.00  0.00    +0.150 HD
ATOM      9  H   UNL     1      -0.635   3.981   4.186  0.00  0.00    +0.150 HD
ENDROOT
BRANCH   7  10
ATOM     10  S   UNL     1      -1.848   4.405   6.112  0.00  0.00    +0.102 S 
ATOM     11  O   UNL     1      -2.555   4.698   7.309  0.00  0.00    -0.146 OA
ATOM     12  O   UNL     1      -0.741   3.515   6.080  0.00  0.00    -0.146 OA
BRANCH  10  13
ATOM     13  C   UNL     1      -1.274   5.945   5.477  0.00  0.00    +0.113 A 
ATOM     14  C   UNL     1      -0.173   5.981   4.641  0.00  0.00    +0.030 A 
ATOM     15  C   UNL     1       0.275   7.188   4.139  0.00  0.00    +0.017 A 
ATOM     16  C   UNL     1      -0.372   8.362   4.481  0.00  0.00    +0.018 A 
ATOM     17  C   UNL     1      -1.470   8.326   5.321  0.00  0.00    +0.017 A 
ATOM     18  C   UNL     1      -1.921   7.118   5.819  0.00  0.00    +0.030 A 
ATOM     19 BR   UNL     1       0.243  10.015   3.799  0.00  0.00    -0.050 Br
ENDBRANCH  10  13
ENDBRANCH   7  10
BRANCH   1  20
ATOM     20  C   UNL     1      -1.332   2.114   0.020  0.00  0.00    +0.122 C 
BRANCH  20  25
ATOM     21  C   UNL     1       3.711  -0.707  -0.037  0.00  0.00    +0.044 C 
ATOM     22  C   UNL     1       2.396   0.029  -0.021  0.00  0.00    -0.050 A 
ATOM     23  C   UNL     1       1.208  -0.679  -0.013  0.00  0.00    +0.003 A 
ATOM     24  C   UNL     1       0.002  -0.004   0.002  0.00  0.00    +0.005 A 
ATOM     25  C   UNL     1      -0.017   1.378   0.010  0.00  0.00    -0.033 A 
ATOM     26  C   UNL     1       1.171   2.086   0.002  0.00  0.00    +0.005 A 
ATOM     27  C   UNL     1       2.377   1.411  -0.015  0.00  0.00    +0.003 A 
ENDBRANCH  20  25
ENDBRANCH   1  20
TORSDOF 4
