REMARK  Name = ZINC59116957
REMARK  8 active torsions:
REMARK  status: ('A' for Active; 'I' for Inactive)
REMARK    1  A    between atoms: C_1  and  C_2
REMARK    2  A    between atoms: C_5  and  C_8
REMARK    3  A    between atoms: C_8  and  O_10
REMARK    4  A    between atoms: O_10  and  C_11
REMARK    5  A    between atoms: C_14  and  C_17
REMARK    6  A    between atoms: C_18  and  C_19
REMARK    7  A    between atoms: C_18  and  C_21
REMARK    8  A    between atoms: N_23  and  C_24
REMARK                            x       y       z     vdW  Elec       q    Type
REMARK                         _______ _______ _______ _____ _____    ______ ____
ROOT
ATOM      1  C   UNL     1      -0.822  -6.432   0.593  0.00  0.00    +0.132 A 
ATOM      2  C   UNL     1      -1.001  -7.364  -0.424  0.00  0.00    +0.047 A 
ATOM      3  C   UNL     1      -0.739  -8.690  -0.196  0.00  0.00    +0.011 A 
ATOM      4  C   UNL     1      -0.288  -9.106   1.065  0.00  0.00    -0.023 A 
ATOM      5  C   UNL     1      -0.108  -8.162   2.086  0.00  0.00    +0.011 A 
ATOM      6  C   UNL     1      -0.369  -6.838   1.844  0.00  0.00    +0.047 A 
ENDROOT
BRANCH   4   7
ATOM      7  C   UNL     1      -0.006 -10.522   1.314  0.00  0.00    +0.032 C 
ATOM      8  C   UNL     1       0.738 -11.246   0.408  0.00  0.00    +0.114 C 
BRANCH   8   9
ATOM      9  C   UNL     1       1.435 -10.558  -0.689  0.00  0.00    +0.259 C 
ATOM     10  O   UNL     1       1.463  -9.342  -0.724  0.00  0.00    -0.269 OA
ATOM     11  N   UNL     1       2.044 -11.274  -1.655  0.00  0.00    -0.281 N 
ATOM     12  H   UNL     1       1.962 -12.240  -1.667  0.00  0.00    +0.155 HD
BRANCH  11  13
ATOM     13  C   UNL     1       2.794 -10.623  -2.640  0.00  0.00    +0.034 A 
ATOM     14  C   UNL     1       3.515  -9.479  -2.323  0.00  0.00    +0.025 A 
ATOM     15  C   UNL     1       4.255  -8.839  -3.298  0.00  0.00    +0.022 A 
ATOM     16  C   UNL     1       4.277  -9.335  -4.590  0.00  0.00    +0.041 A 
ATOM     17  C   UNL     1       3.559 -10.475  -4.908  0.00  0.00    +0.022 A 
ATOM     18  C   UNL     1       2.823 -11.123  -3.936  0.00  0.00    +0.025 A 
ATOM     19 CL   UNL     1       5.207  -8.527  -5.813  0.00  0.00    -0.084 Cl
ENDBRANCH  11  13
ENDBRANCH   8   9
BRANCH   8  20
ATOM     20  C   UNL     1       0.831 -12.670   0.534  0.00  0.00    +0.104 C 
ATOM     21  N   UNL     1       0.905 -13.799   0.635  0.00  0.00    -0.191 NA
ENDBRANCH   8  20
ENDBRANCH   4   7
BRANCH   1  22
ATOM     22  O   UNL     1      -1.084  -5.121   0.362  0.00  0.00    -0.422 OA
BRANCH  22  23
ATOM     23  C   UNL     1      -2.374  -4.732   0.313  0.00  0.00    +0.344 C 
ATOM     24  O   UNL     1      -3.260  -5.560   0.383  0.00  0.00    -0.245 OA
BRANCH  23  29
ATOM     25  C   UNL     1      -3.680   0.845  -0.225  0.00  0.00    +0.044 C 
ATOM     26  C   UNL     1      -3.338  -0.616  -0.084  0.00  0.00    -0.050 A 
ATOM     27  C   UNL     1      -4.350  -1.556  -0.005  0.00  0.00    +0.004 A 
ATOM     28  C   UNL     1      -4.044  -2.895   0.123  0.00  0.00    +0.015 A 
ATOM     29  C   UNL     1      -2.709  -3.301   0.175  0.00  0.00    +0.059 A 
ATOM     30  C   UNL     1      -1.692  -2.347   0.095  0.00  0.00    +0.015 A 
ATOM     31  C   UNL     1      -2.013  -1.012  -0.040  0.00  0.00    +0.004 A 
ENDBRANCH  23  29
ENDBRANCH  22  23
ENDBRANCH   1  22
TORSDOF 7
