REMARK  Name = ZINC63295290
REMARK  5 active torsions:
REMARK  status: ('A' for Active; 'I' for Inactive)
REMARK    1  A    between atoms: C_7  and  C_10
REMARK    2  A    between atoms: C_10  and  C_11
REMARK    3  A    between atoms: C_11  and  N_12
REMARK    4  A    between atoms: C_13  and  C_30
REMARK    5  A    between atoms: C_16  and  C_23
REMARK                            x       y       z     vdW  Elec       q    Type
REMARK                         _______ _______ _______ _____ _____    ______ ____
ROOT
ATOM      1  N   UNL     1      -0.502  -4.717  -1.520  0.00  0.00    -0.285 N 
ATOM      2  C   UNL     1      -0.265  -6.163  -1.304  0.00  0.00    +0.173 C 
ATOM      3  C   UNL     1      -1.575  -6.663  -0.753  0.00  0.00    +0.020 C 
ATOM      4  C   UNL     1      -2.419  -7.358  -0.012  0.00  0.00    +0.097 C 
ATOM      5  N   UNL     1      -3.636  -6.737   0.017  0.00  0.00    -0.153 NA
ATOM      6  N   UNL     1      -3.762  -5.847  -0.837  0.00  0.00    -0.170 NA
ATOM      7  C   UNL     1      -2.535  -5.823  -1.625  0.00  0.00    +0.244 C 
ATOM      8  C   UNL     1      -1.833  -4.493  -1.668  0.00  0.00    +0.247 C 
ATOM      9  O   UNL     1      -2.362  -3.412  -1.814  0.00  0.00    -0.273 OA
ENDROOT
BRANCH   4  10
ATOM     10  C   UNL     1      -2.094  -8.626   0.686  0.00  0.00    +0.002 A 
ATOM     11  C   UNL     1      -0.813  -9.168   0.590  0.00  0.00    +0.013 A 
ATOM     12  C   UNL     1      -0.514 -10.347   1.241  0.00  0.00    +0.039 A 
ATOM     13  C   UNL     1      -1.486 -10.993   1.989  0.00  0.00    +0.123 A 
ATOM     14  C   UNL     1      -2.760 -10.458   2.086  0.00  0.00    +0.039 A 
ATOM     15  C   UNL     1      -3.066  -9.276   1.444  0.00  0.00    +0.013 A 
ATOM     16  F   UNL     1      -1.190 -12.148   2.624  0.00  0.00    -0.205 F 
ENDBRANCH   4  10
BRANCH   2  17
ATOM     17  C   UNL     1       0.846  -6.375  -0.308  0.00  0.00    +0.129 A 
ATOM     18  C   UNL     1       1.877  -7.227  -0.449  0.00  0.00    +0.047 A 
ATOM     19  C   UNL     1       2.673  -7.102   0.713  0.00  0.00    +0.041 A 
ATOM     20  C   UNL     1       2.081  -6.181   1.494  0.00  0.00    +0.195 A 
ATOM     21  O   UNL     1       0.978  -5.739   0.868  0.00  0.00    -0.466 OA
ENDBRANCH   2  17
BRANCH   1  22
ATOM     22  C   UNL     1       0.538  -3.687  -1.560  0.00  0.00    +0.113 C 
BRANCH  22  23
ATOM     23  C   UNL     1       0.945  -3.429  -3.013  0.00  0.00    +0.052 C 
BRANCH  23  30
ATOM     24  C   UNL     1       5.531  -3.287  -3.083  0.00  0.00    +0.001 A 
ATOM     25  C   UNL     1       6.052  -1.987  -3.133  0.00  0.00    +0.002 A 
ATOM     26  C   UNL     1       5.269  -0.888  -3.158  0.00  0.00    +0.026 A 
ATOM     27  C   UNL     1       3.853  -1.014  -3.134  0.00  0.00    +0.043 A 
ATOM     28  N   UNL     1       2.896  -0.117  -3.149  0.00  0.00    -0.380 N 
ATOM     29  C   UNL     1       1.604  -0.811  -3.108  0.00  0.00    +0.144 C 
ATOM     30  C   UNL     1       1.927  -2.288  -3.065  0.00  0.00    -0.040 C 
ATOM     31  C   UNL     1       3.277  -2.377  -3.081  0.00  0.00    -0.001 A 
ATOM     32  C   UNL     1       4.199  -3.519  -3.057  0.00  0.00    +0.010 A 
ATOM     33  H   UNL     1       3.022   0.844  -3.182  0.00  0.00    +0.160 HD
ENDBRANCH  23  30
ENDBRANCH  22  23
ENDBRANCH   1  22
TORSDOF 5
