REMARK  Name = ZINC34788798
REMARK  7 active torsions:
REMARK  status: ('A' for Active; 'I' for Inactive)
REMARK    1  A    between atoms: C_1  and  C_2
REMARK    2  A    between atoms: C_6  and  C_8
REMARK    3  A    between atoms: N_20  and  C_23
REMARK    4  A    between atoms: C_23  and  C_24
REMARK    5  A    between atoms: C_24  and  N_25
REMARK    6  A    between atoms: N_25  and  C_26
REMARK    7  A    between atoms: N_25  and  C_27
REMARK                            x       y       z     vdW  Elec       q    Type
REMARK                         _______ _______ _______ _____ _____    ______ ____
ROOT
ATOM      1  C   UNL     1      -0.018   1.503   0.010  0.00  0.00    +0.066 C 
ATOM      2  C   UNL     1       0.002  -0.004   0.002  0.00  0.00    +0.047 A 
ATOM      3  C   UNL     1       0.006  -0.696  -1.203  0.00  0.00    +0.012 A 
ATOM      4  C   UNL     1       0.035  -2.084  -1.151  0.00  0.00    +0.109 A 
ATOM      5  N   UNL     1       0.038  -2.700   0.029  0.00  0.00    -0.220 NA
ATOM      6  C   UNL     1       0.029  -2.001   1.155  0.00  0.00    +0.161 A 
ATOM      7  N   UNL     1       0.022  -0.674   1.141  0.00  0.00    -0.232 NA
ATOM      8  S   UNL     1       0.090  -3.038  -2.628  0.00  0.00    -0.062 S 
ATOM      9  C   UNL     1       0.687  -1.909  -3.839  0.00  0.00    +0.100 A 
ATOM     10  C   UNL     1       0.605  -0.566  -3.659  0.00  0.00    +0.066 A 
ATOM     11  N   UNL     1       1.108   0.242  -4.613  0.00  0.00    -0.240 NA
ATOM     12  C   UNL     1       1.645  -0.220  -5.704  0.00  0.00    +0.202 A 
ATOM     13  N   UNL     1       1.735  -1.545  -5.946  0.00  0.00    -0.300 N 
ATOM     14  C   UNL     1       1.267  -2.418  -5.029  0.00  0.00    +0.268 A 
ATOM     15  O   UNL     1       1.342  -3.620  -5.220  0.00  0.00    -0.266 OA
ATOM     16  C   UNL     1      -0.035   0.080  -2.474  0.00  0.00    +0.096 C 
ENDROOT
BRANCH   6  17
ATOM     17  C   UNL     1       0.034  -2.715   2.455  0.00  0.00    +0.019 A 
ATOM     18  C   UNL     1       0.019  -1.994   3.648  0.00  0.00    +0.013 A 
ATOM     19  C   UNL     1       0.023  -2.663   4.855  0.00  0.00    +0.021 A 
ATOM     20  C   UNL     1       0.042  -4.047   4.882  0.00  0.00    +0.041 A 
ATOM     21  C   UNL     1       0.057  -4.767   3.699  0.00  0.00    +0.021 A 
ATOM     22  C   UNL     1       0.048  -4.108   2.487  0.00  0.00    +0.013 A 
ATOM     23 CL   UNL     1       0.047  -4.883   6.404  0.00  0.00    -0.084 Cl
ENDBRANCH   6  17
BRANCH  13  24
ATOM     24  C   UNL     1       2.333  -2.031  -7.192  0.00  0.00    +0.108 C 
BRANCH  24  25
ATOM     25  C   UNL     1       3.837  -2.228  -6.993  0.00  0.00    -0.058 C 
BRANCH  25  26
ATOM     26  N   UNL     1       4.436  -2.715  -8.243  0.00  0.00    +0.377 N 
ATOM     27  C   UNL     1       4.314  -1.682  -9.280  0.00  0.00    -0.097 C 
ATOM     28  C   UNL     1       5.856  -3.018  -8.019  0.00  0.00    -0.097 C 
ATOM     29  H   UNL     1       3.957  -3.551  -8.542  0.00  0.00    -0.083 HD
ENDBRANCH  25  26
ENDBRANCH  24  25
ENDBRANCH  13  24
TORSDOF 4
