REMARK  Name = ZINC39931507
REMARK  6 active torsions:
REMARK  status: ('A' for Active; 'I' for Inactive)
REMARK    1  A    between atoms: C_1  and  C_2
REMARK    2  A    between atoms: C_2  and  C_24
REMARK    3  A    between atoms: N_14  and  C_19
REMARK    4  A    between atoms: C_15  and  O_18
REMARK    5  A    between atoms: C_19  and  C_20
REMARK    6  A    between atoms: C_20  and  O_21
REMARK                            x       y       z     vdW  Elec       q    Type
REMARK                         _______ _______ _______ _____ _____    ______ ____
ROOT
ATOM      1  C   UNL     1      -0.019   1.526   0.010  0.00  0.00    +0.041 C 
ATOM      2  C   UNL     1       0.002  -0.004   0.002  0.00  0.00    +0.068 C 
ATOM      3  C   UNL     1       0.705  -0.495  -1.267  0.00  0.00    +0.071 C 
ATOM      4  C   UNL     1       0.919  -2.001  -1.136  0.00  0.00    -0.018 A 
ATOM      5  C   UNL     1       0.841  -2.582   0.081  0.00  0.00    +0.021 A 
ATOM      6  S   UNL     1       1.145  -4.301  -0.211  0.00  0.00    -0.071 S 
ATOM      7  C   UNL     1       1.377  -4.236  -1.970  0.00  0.00    +0.118 A 
ATOM      8  C   UNL     1       1.209  -2.873  -2.272  0.00  0.00    +0.076 A 
ATOM      9  C   UNL     1       1.345  -2.528  -3.652  0.00  0.00    +0.264 A 
ATOM     10  O   UNL     1       1.218  -1.369  -4.010  0.00  0.00    -0.267 OA
ATOM     11  N   UNL     1       1.614  -3.494  -4.556  0.00  0.00    -0.276 N 
ATOM     12  C   UNL     1       1.763  -4.794  -4.183  0.00  0.00    +0.204 A 
ATOM     13  N   UNL     1       1.643  -5.135  -2.906  0.00  0.00    -0.208 NA
ATOM     14  N   UNL     1       2.034  -5.616  -5.251  0.00  0.00    -0.272 N 
ATOM     15  C   UNL     1       2.077  -4.819  -6.481  0.00  0.00    +0.225 C 
ATOM     16  C   UNL     1       1.794  -3.381  -6.014  0.00  0.00    +0.179 C 
ATOM     17  C   UNL     1       0.555  -1.889   1.377  0.00  0.00    +0.203 C 
ATOM     18  O   UNL     1       0.694  -0.475   1.161  0.00  0.00    -0.368 OA
ATOM     19  C   UNL     1      -1.434  -0.531   0.020  0.00  0.00    +0.041 C 
ENDROOT
BRANCH  15  20
ATOM     20  O   UNL     1       1.070  -5.257  -7.395  0.00  0.00    -0.372 OA
ATOM     21  H   UNL     1       1.053  -4.764  -8.227  0.00  0.00    +0.212 HD
ENDBRANCH  15  20
BRANCH  14  22
ATOM     22  C   UNL     1       2.246  -7.064  -5.173  0.00  0.00    +0.138 C 
BRANCH  22  23
ATOM     23  C   UNL     1       0.907  -7.785  -5.336  0.00  0.00    +0.175 C 
BRANCH  23  24
ATOM     24  O   UNL     1       0.396  -7.549  -6.649  0.00  0.00    -0.393 OA
ATOM     25  H   UNL     1      -0.454  -7.978  -6.824  0.00  0.00    +0.209 HD
ENDBRANCH  23  24
ENDBRANCH  22  23
ENDBRANCH  14  22
TORSDOF 4
