REMARK  Name = ZINC60880726
REMARK  8 active torsions:
REMARK  status: ('A' for Active; 'I' for Inactive)
REMARK    1  A    between atoms: C_4  and  N_7
REMARK    2  A    between atoms: N_7  and  C_8
REMARK    3  A    between atoms: C_8  and  N_10
REMARK    4  A    between atoms: N_10  and  N_11
REMARK    5  A    between atoms: C_12  and  C_14
REMARK    6  A    between atoms: C_14  and  C_15
REMARK    7  A    between atoms: C_15  and  C_16
REMARK    8  A    between atoms: C_16  and  N_17
REMARK                            x       y       z     vdW  Elec       q    Type
REMARK                         _______ _______ _______ _____ _____    ______ ____
ROOT
ATOM      1  N   UNL     1       4.103  -1.279  -4.734  0.00  0.00    -0.235 N 
ATOM      2  C   UNL     1       4.734  -1.714  -5.843  0.00  0.00    +0.229 C 
ATOM      3  O   UNL     1       5.260  -2.806  -5.852  0.00  0.00    -0.274 OA
ATOM      4  H   UNL     1       3.682  -0.405  -4.727  0.00  0.00    +0.173 HD
ENDROOT
BRANCH   1   5
ATOM      5  N   UNL     1       4.055  -2.089  -3.592  0.00  0.00    -0.246 N 
ATOM      6  H   UNL     1       4.476  -2.963  -3.600  0.00  0.00    +0.172 HD
BRANCH   5   7
ATOM      7  C   UNL     1       3.424  -1.655  -2.483  0.00  0.00    +0.147 C 
ATOM      8  S   UNL     1       3.366  -2.645  -1.088  0.00  0.00    -0.017 S 
BRANCH   7   9
ATOM      9  N   UNL     1       2.839  -0.440  -2.473  0.00  0.00    -0.323 N 
ATOM     10  H   UNL     1       2.872   0.121  -3.264  0.00  0.00    +0.148 HD
BRANCH   9  14
ATOM     11  C   UNL     1      -0.019   1.526   0.010  0.00  0.00    +0.000 C 
ATOM     12  C   UNL     1       1.417   2.055  -0.000  0.00  0.00    +0.002 C 
ATOM     13  C   UNL     1       2.133   1.562  -1.259  0.00  0.00    +0.022 C 
ATOM     14  C   UNL     1       2.154   0.032  -1.268  0.00  0.00    +0.072 C 
ATOM     15  C   UNL     1       0.718  -0.497  -1.257  0.00  0.00    +0.022 C 
ATOM     16  C   UNL     1       0.002  -0.004   0.002  0.00  0.00    +0.002 C 
ENDBRANCH   9  14
ENDBRANCH   7   9
ENDBRANCH   5   7
ENDBRANCH   1   5
BRANCH   2  17
ATOM     17  C   UNL     1       4.785  -0.842  -7.071  0.00  0.00    +0.099 C 
BRANCH  17  18
ATOM     18  C   UNL     1       5.553  -1.566  -8.179  0.00  0.00    +0.029 C 
BRANCH  18  19
ATOM     19  C   UNL     1       5.606  -0.681  -9.426  0.00  0.00    +0.118 C 
BRANCH  19  20
ATOM     20  N   UNL     1       6.341  -1.374 -10.486  0.00  0.00    -0.224 N 
ATOM     21  C   UNL     1       7.676  -1.282 -10.669  0.00  0.00    +0.246 C 
ATOM     22  O   UNL     1       8.465  -0.635 -10.014  0.00  0.00    -0.273 OA
ATOM     23  C   UNL     1       7.976  -2.154 -11.861  0.00  0.00    +0.113 C 
ATOM     24  C   UNL     1       8.950  -3.280 -11.489  0.00  0.00    +0.035 C 
ATOM     25  C   UNL     1       9.815  -3.463 -12.763  0.00  0.00    +0.003 C 
ATOM     26  C   UNL     1       9.982  -2.011 -13.278  0.00  0.00    +0.003 C 
ATOM     27  C   UNL     1       8.616  -1.348 -12.993  0.00  0.00    +0.035 C 
ATOM     28  N   UNL     1       6.673  -2.692 -12.258  0.00  0.00    -0.285 N 
ATOM     29  C   UNL     1       5.775  -2.183 -11.391  0.00  0.00    +0.309 C 
ATOM     30  O   UNL     1       4.585  -2.428 -11.428  0.00  0.00    -0.252 OA
ATOM     31  H   UNL     1       6.493  -3.295 -12.996  0.00  0.00    +0.151 HD
ENDBRANCH  19  20
ENDBRANCH  18  19
ENDBRANCH  17  18
ENDBRANCH   2  17
TORSDOF 8
