REMARK  Name = ZINC17367067
REMARK  4 active torsions:
REMARK  status: ('A' for Active; 'I' for Inactive)
REMARK    1  A    between atoms: C_1  and  C_2
REMARK    2  A    between atoms: C_10  and  C_11
REMARK    3  A    between atoms: N_13  and  C_14
REMARK    4  A    between atoms: C_15  and  C_23
REMARK                            x       y       z     vdW  Elec       q    Type
REMARK                         _______ _______ _______ _____ _____    ______ ____
ROOT
ATOM      1  C   UNL     1       0.154  -0.822   4.787  0.00  0.00    +0.138 A 
ATOM      2  C   UNL     1       0.286  -1.586   5.928  0.00  0.00    +0.112 A 
ATOM      3  N   UNL     1       0.349  -0.754   6.982  0.00  0.00    -0.226 NA
ATOM      4  C   UNL     1       0.263   0.496   6.557  0.00  0.00    +0.140 A 
ATOM      5  N   UNL     1       0.145   0.487   5.187  0.00  0.00    -0.287 N 
ATOM      6  C   UNL     1       0.044   1.661   4.494  0.00  0.00    +0.094 A 
ATOM      7  C   UNL     1       0.061   2.845   5.140  0.00  0.00    +0.018 A 
ATOM      8  C   UNL     1       0.183   2.887   6.540  0.00  0.00    +0.005 A 
ATOM      9  C   UNL     1       0.278   1.728   7.245  0.00  0.00    +0.047 A 
ENDROOT
BRANCH   2  10
ATOM     10  C   UNL     1       0.346  -3.066   5.982  0.00  0.00    +0.004 A 
ATOM     11  C   UNL     1      -0.397  -3.830   5.083  0.00  0.00    +0.010 A 
ATOM     12  C   UNL     1      -0.336  -5.208   5.138  0.00  0.00    +0.001 A 
ATOM     13  C   UNL     1       0.460  -5.831   6.083  0.00  0.00    +0.000 A 
ATOM     14  C   UNL     1       1.198  -5.078   6.978  0.00  0.00    +0.001 A 
ATOM     15  C   UNL     1       1.151  -3.700   6.929  0.00  0.00    +0.010 A 
ENDBRANCH   2  10
BRANCH   1  18
ATOM     16  C   UNL     1      -1.107  -1.169   2.805  0.00  0.00    +0.285 C 
ATOM     17  O   UNL     1      -2.094  -0.736   3.369  0.00  0.00    -0.266 OA
ATOM     18  N   UNL     1       0.054  -1.291   3.478  0.00  0.00    -0.263 N 
ATOM     19  H   UNL     1       0.821  -1.706   3.053  0.00  0.00    +0.157 HD
BRANCH  16  29
ATOM     20  C   UNL     1      -3.654  -0.987   1.030  0.00  0.00    +0.048 C 
ATOM     21  C   UNL     1      -2.291  -1.479   0.614  0.00  0.00    +0.008 A 
ATOM     22  C   UNL     1      -1.897  -1.962  -0.709  0.00  0.00    +0.024 A 
ATOM     23  C   UNL     1      -2.565  -2.123  -1.926  0.00  0.00    +0.012 A 
ATOM     24  C   UNL     1      -1.891  -2.615  -3.008  0.00  0.00    +0.001 A 
ATOM     25  C   UNL     1      -0.549  -2.955  -2.906  0.00  0.00    +0.004 A 
ATOM     26  C   UNL     1       0.128  -2.803  -1.715  0.00  0.00    +0.047 A 
ATOM     27  C   UNL     1      -0.536  -2.305  -0.600  0.00  0.00    +0.136 A 
ATOM     28  O   UNL     1      -0.153  -2.051   0.666  0.00  0.00    -0.450 OA
ATOM     29  C   UNL     1      -1.179  -1.558   1.390  0.00  0.00    +0.194 A 
ENDBRANCH  16  29
ENDBRANCH   1  18
TORSDOF 3
