REMARK  Name = ZINC42306156
REMARK  5 active torsions:
REMARK  status: ('A' for Active; 'I' for Inactive)
REMARK    1  A    between atoms: C_1  and  C_2
REMARK    2  A    between atoms: C_2  and  C_3
REMARK    3  A    between atoms: C_2  and  C_4
REMARK    4  A    between atoms: N_9  and  S_10
REMARK    5  A    between atoms: S_10  and  C_13
REMARK                            x       y       z     vdW  Elec       q    Type
REMARK                         _______ _______ _______ _____ _____    ______ ____
ROOT
ATOM      1  C   UNL     1       0.707  -0.490  -1.238  0.00  0.00    +0.027 A 
ATOM      2  C   UNL     1       1.799  -1.247  -1.128  0.00  0.00    +0.070 A 
ATOM      3  S   UNL     1       2.227  -1.540  -2.836  0.00  0.00    -0.057 S 
ATOM      4  C   UNL     1       0.894  -0.615  -3.584  0.00  0.00    +0.192 A 
ATOM      5  N   UNL     1       0.223  -0.159  -2.470  0.00  0.00    -0.336 N 
ATOM      6  N   UNL     1       0.623  -0.426  -4.852  0.00  0.00    -0.103 NA
ATOM      7  H   UNL     1      -0.573   0.388  -2.559  0.00  0.00    +0.168 HD
ENDROOT
BRANCH   1   9
ATOM      8  C   UNL     1      -0.019   1.526   0.010  0.00  0.00    +0.013 C 
ATOM      9  C   UNL     1       0.002  -0.004   0.002  0.00  0.00    +0.030 C 
ATOM     10  C   UNL     1      -1.433  -0.534   0.013  0.00  0.00    +0.013 C 
ENDBRANCH   1   9
BRANCH   6  11
ATOM     11  S   UNL     1       1.593  -1.096  -6.015  0.00  0.00    +0.103 S 
ATOM     12  O   UNL     1       2.858  -0.458  -5.906  0.00  0.00    -0.146 OA
ATOM     13  O   UNL     1       1.439  -2.505  -5.909  0.00  0.00    -0.146 OA
BRANCH  11  14
ATOM     14  C   UNL     1       0.927  -0.632  -7.579  0.00  0.00    +0.131 A 
ATOM     15  C   UNL     1      -0.024  -1.428  -8.201  0.00  0.00    +0.033 A 
ATOM     16  C   UNL     1      -0.519  -1.024  -9.430  0.00  0.00    +0.042 A 
ATOM     17  C   UNL     1      -0.052   0.151  -9.993  0.00  0.00    +0.129 A 
ATOM     18  N   UNL     1       0.853   0.882  -9.371  0.00  0.00    -0.242 NA
ATOM     19  C   UNL     1       1.342   0.531  -8.198  0.00  0.00    +0.141 A 
ATOM     20 CL   UNL     1      -0.664   0.668 -11.533  0.00  0.00    -0.062 Cl
ENDBRANCH  11  14
ENDBRANCH   6  11
TORSDOF 3
