REMARK  Name = ZINC45154245
REMARK  4 active torsions:
REMARK  status: ('A' for Active; 'I' for Inactive)
REMARK    1  A    between atoms: C_1  and  C_2
REMARK    2  A    between atoms: N_11  and  C_12
REMARK    3  A    between atoms: C_12  and  C_14
REMARK    4  A    between atoms: C_12  and  C_20
REMARK                            x       y       z     vdW  Elec       q    Type
REMARK                         _______ _______ _______ _____ _____    ______ ____
ROOT
ATOM      1  C   UNL     1       3.077   0.789   3.721  0.00  0.00    +0.171 C 
ENDROOT
BRANCH   1  11
ATOM      2  C   UNL     1      -0.028   1.527   0.018  0.00  0.00    +0.030 C 
ATOM      3  C   UNL     1      -0.005  -0.003   0.007  0.00  0.00    +0.100 C 
ATOM      4  C   UNL     1      -1.431  -0.542   0.162  0.00  0.00    +0.182 C 
ATOM      5  O   UNL     1      -1.383  -1.960   0.337  0.00  0.00    -0.376 OA
ATOM      6  C   UNL     1      -0.694  -2.381   1.517  0.00  0.00    +0.179 C 
ATOM      7  C   UNL     1       0.771  -1.936   1.432  0.00  0.00    +0.137 C 
ATOM      8  N   UNL     1       0.802  -0.495   1.135  0.00  0.00    -0.278 N 
ATOM      9  C   UNL     1       1.548   0.350   1.875  0.00  0.00    +0.303 C 
ATOM     10  O   UNL     1       1.494   1.547   1.670  0.00  0.00    -0.253 OA
ATOM     11  N   UNL     1       2.353  -0.133   2.843  0.00  0.00    -0.285 N 
ATOM     12  H   UNL     1       2.452  -1.091   2.958  0.00  0.00    +0.151 HD
ENDBRANCH   1  11
BRANCH   1  13
ATOM     13  C   UNL     1       4.308   0.107   4.260  0.00  0.00    -0.020 A 
ATOM     14  C   UNL     1       4.252  -1.221   4.638  0.00  0.00    +0.006 A 
ATOM     15  C   UNL     1       5.381  -1.847   5.133  0.00  0.00    +0.000 A 
ATOM     16  C   UNL     1       6.566  -1.145   5.250  0.00  0.00    +0.000 A 
ATOM     17  C   UNL     1       6.621   0.184   4.871  0.00  0.00    +0.000 A 
ATOM     18  C   UNL     1       5.494   0.808   4.372  0.00  0.00    +0.006 A 
ENDBRANCH   1  13
BRANCH   1  19
ATOM     19  C   UNL     1       2.186   1.197   4.866  0.00  0.00    +0.129 A 
ATOM     20  C   UNL     1       2.095   2.433   5.390  0.00  0.00    +0.047 A 
ATOM     21  C   UNL     1       1.147   2.364   6.437  0.00  0.00    +0.041 A 
ATOM     22  C   UNL     1       0.716   1.091   6.489  0.00  0.00    +0.195 A 
ATOM     23  O   UNL     1       1.344   0.390   5.532  0.00  0.00    -0.466 OA
ENDBRANCH   1  19
TORSDOF 3
