REMARK  Name = ZINC04193821
REMARK  6 active torsions:
REMARK  status: ('A' for Active; 'I' for Inactive)
REMARK    1  A    between atoms: C_1  and  C_2
REMARK    2  A    between atoms: C_2  and  C_3
REMARK    3  A    between atoms: C_2  and  N_4
REMARK    4  A    between atoms: C_8  and  N_12
REMARK    5  A    between atoms: N_12  and  C_13
REMARK    6  A    between atoms: C_19  and  N_23
REMARK                            x       y       z     vdW  Elec       q    Type
REMARK                         _______ _______ _______ _____ _____    ______ ____
ROOT
ATOM      1  C   UNL     1      -3.866  -3.862  -1.570  0.00  0.00    +0.037 A 
ATOM      2  C   UNL     1      -4.170  -3.271  -2.779  0.00  0.00    +0.023 A 
ATOM      3  C   UNL     1      -4.503  -4.047  -3.885  0.00  0.00    +0.002 A 
ATOM      4  C   UNL     1      -4.535  -5.406  -3.806  0.00  0.00    +0.009 A 
ATOM      5  C   UNL     1      -4.231  -6.046  -2.592  0.00  0.00    -0.014 A 
ATOM      6  C   UNL     1      -3.886  -5.267  -1.461  0.00  0.00    +0.024 A 
ATOM      7  C   UNL     1      -3.576  -5.911  -0.246  0.00  0.00    +0.034 A 
ATOM      8  C   UNL     1      -3.608  -7.288  -0.182  0.00  0.00    +0.023 A 
ATOM      9  C   UNL     1      -3.942  -8.044  -1.301  0.00  0.00    +0.002 A 
ATOM     10  C   UNL     1      -4.258  -7.448  -2.484  0.00  0.00    +0.009 A 
ENDROOT
BRANCH   7  11
ATOM     11  N   UNL     1      -3.239  -5.162   0.879  0.00  0.00    -0.357 N 
ATOM     12  H   UNL     1      -3.744  -5.268   1.701  0.00  0.00    +0.142 HD
ATOM     13  H   UNL     1      -2.499  -4.536   0.842  0.00  0.00    +0.142 HD
ENDBRANCH   7  11
BRANCH   1  14
ATOM     14  N   UNL     1      -3.535  -3.076  -0.468  0.00  0.00    -0.332 N 
ATOM     15  H   UNL     1      -3.446  -3.483   0.408  0.00  0.00    +0.147 HD
BRANCH  14  20
ATOM     16  N   UNL     1      -1.372  -0.568   0.055  0.00  0.00    -0.238 N 
ATOM     17  C   UNL     1      -2.252  -0.256   1.014  0.00  0.00    +0.224 C 
ATOM     18  O   UNL     1      -2.017   0.430   1.986  0.00  0.00    -0.275 OA
ATOM     19  C   UNL     1      -3.586  -0.894   0.693  0.00  0.00    +0.128 C 
ATOM     20  C   UNL     1      -3.321  -1.637  -0.633  0.00  0.00    +0.166 C 
ATOM     21  C   UNL     1      -1.867  -1.336  -0.924  0.00  0.00    +0.243 C 
ATOM     22  O   UNL     1      -1.248  -1.729  -1.889  0.00  0.00    -0.273 OA
BRANCH  16  24
ATOM     23  C   UNL     1       0.043   1.427   0.066  0.00  0.00    +0.028 C 
ATOM     24  C   UNL     1       0.017  -0.103   0.071  0.00  0.00    +0.078 C 
ATOM     25  C   UNL     1       0.714  -0.620   1.332  0.00  0.00    +0.028 C 
ENDBRANCH  16  24
ENDBRANCH  14  20
ENDBRANCH   1  14
TORSDOF 4
