REMARK  Name = ZINC21944683
REMARK  3 active torsions:
REMARK  status: ('A' for Active; 'I' for Inactive)
REMARK    1  A    between atoms: C_1  and  C_2
REMARK    2  A    between atoms: C_2  and  C_3
REMARK    3  A    between atoms: C_3  and  N_4
REMARK                            x       y       z     vdW  Elec       q    Type
REMARK                         _______ _______ _______ _____ _____    ______ ____
ROOT
ATOM      1  N   UNL     1      -5.197   3.137   3.644  0.00  0.00    -0.299 N 
ATOM      2  C   UNL     1      -5.048   3.475   2.347  0.00  0.00    +0.302 C 
ATOM      3  O   UNL     1      -5.923   4.097   1.777  0.00  0.00    -0.253 OA
ATOM      4  N   UNL     1      -3.930   3.123   1.683  0.00  0.00    -0.285 N 
ATOM      5  C   UNL     1      -2.816   2.471   2.386  0.00  0.00    +0.112 C 
ATOM      6  C   UNL     1      -1.533   3.265   2.118  0.00  0.00    +0.051 C 
ATOM      7  C   UNL     1      -1.332   3.409   0.611  0.00  0.00    +0.075 C 
ATOM      8  C   UNL     1      -2.508   4.167  -0.003  0.00  0.00    +0.051 C 
ATOM      9  C   UNL     1      -3.801   3.383   0.243  0.00  0.00    +0.112 C 
ATOM     10  C   UNL     1      -0.048   4.149   0.334  0.00  0.00    +0.047 A 
ATOM     11  C   UNL     1       0.189   5.466   0.314  0.00  0.00    +0.025 A 
ATOM     12  C   UNL     1       1.563   5.644   0.042  0.00  0.00    +0.020 A 
ATOM     13  C   UNL     1       2.112   4.416  -0.099  0.00  0.00    +0.092 A 
ATOM     14  N   UNL     1       1.134   3.494   0.062  0.00  0.00    -0.316 N 
ATOM     15  C   UNL     1       1.192   2.093   0.001  0.00  0.00    +0.067 A 
ATOM     16  C   UNL     1       2.397   1.418  -0.042  0.00  0.00    +0.031 A 
ATOM     17  C   UNL     1       2.409   0.035  -0.056  0.00  0.00    +0.040 A 
ATOM     18  C   UNL     1       1.218  -0.672  -0.025  0.00  0.00    +0.125 A 
ATOM     19  C   UNL     1       0.007  -0.001   0.009  0.00  0.00    +0.063 A 
ATOM     20  C   UNL     1      -0.014   1.385   0.012  0.00  0.00    +0.055 A 
ATOM     21  N   UNL     1      -1.232   2.076  -0.003  0.00  0.00    -0.331 N 
ATOM     22  F   UNL     1       1.237  -2.022  -0.029  0.00  0.00    -0.205 F 
ATOM     23  H   UNL     1      -4.373   2.647   4.182  0.00  0.00    +0.150 HD
ATOM     24  H   UNL     1      -2.115   1.621  -0.474  0.00  0.00    +0.147 HD
ENDROOT
BRANCH   1  25
ATOM     25  C   UNL     1      -6.456   3.423   4.335  0.00  0.00    +0.105 C 
BRANCH  25  27
ATOM     26  C   UNL     1      -7.678   3.241   6.507  0.00  0.00    +0.005 C 
ATOM     27  C   UNL     1      -6.362   2.943   5.785  0.00  0.00    +0.015 C 
ENDBRANCH  25  27
ENDBRANCH   1  25
TORSDOF 2
