REMARK  Name = ZINC65183519
REMARK  6 active torsions:
REMARK  status: ('A' for Active; 'I' for Inactive)
REMARK    1  A    between atoms: C_1  and  C_2
REMARK    2  A    between atoms: C_5  and  S_13
REMARK    3  A    between atoms: C_6  and  C_10
REMARK    4  A    between atoms: C_10  and  C_11
REMARK    5  A    between atoms: C_10  and  C_12
REMARK    6  A    between atoms: S_13  and  N_16
REMARK                            x       y       z     vdW  Elec       q    Type
REMARK                         _______ _______ _______ _____ _____    ______ ____
ROOT
ATOM      1  S   UNL     1      -3.316  -3.495  -0.003  0.00  0.00    +0.079 S 
ATOM      2  O   UNL     1      -3.645  -4.766   0.542  0.00  0.00    -0.151 OA
ATOM      3  O   UNL     1      -3.794  -2.279   0.556  0.00  0.00    -0.151 OA
ENDROOT
BRANCH   1   4
ATOM      4  N   UNL     1      -3.812  -3.516  -1.583  0.00  0.00    -0.175 NA
ATOM      5  C   UNL     1      -4.107  -2.263  -2.292  0.00  0.00    +0.115 C 
ATOM      6  C   UNL     1      -5.517  -2.350  -2.883  0.00  0.00    +0.082 C 
ATOM      7  C   UNL     1      -5.627  -3.607  -3.748  0.00  0.00    +0.173 C 
ATOM      8  C   UNL     1      -5.379  -4.851  -2.894  0.00  0.00    +0.082 C 
ATOM      9  C   UNL     1      -3.961  -4.787  -2.305  0.00  0.00    +0.115 C 
ATOM     10  O   UNL     1      -6.935  -3.677  -4.330  0.00  0.00    -0.346 OA
ATOM     11  C   UNL     1      -6.767  -3.675  -5.763  0.00  0.00    +0.191 C 
ATOM     12  C   UNL     1      -5.305  -4.154  -5.944  0.00  0.00    +0.191 C 
ATOM     13  O   UNL     1      -4.652  -3.548  -4.802  0.00  0.00    -0.346 OA
ENDBRANCH   1   4
BRANCH   1  18
ATOM     14  C   UNL     1      -0.018   1.503   0.010  0.00  0.00    +0.053 C 
ATOM     15  C   UNL     1       0.002  -0.004   0.002  0.00  0.00    +0.007 A 
ATOM     16  C   UNL     1      -1.021  -0.857   0.002  0.00  0.00    +0.105 A 
ATOM     17  N   UNL     1      -0.805  -2.218  -0.007  0.00  0.00    -0.277 N 
ATOM     18  C   UNL     1      -1.558  -3.390  -0.011  0.00  0.00    +0.203 A 
ATOM     19  C   UNL     1      -0.702  -4.425  -0.021  0.00  0.00    +0.090 A 
ATOM     20  N   UNL     1       0.549  -3.940  -0.024  0.00  0.00    -0.224 NA
ATOM     21  C   UNL     1       0.498  -2.639  -0.016  0.00  0.00    +0.179 A 
ATOM     22  S   UNL     1       1.404  -1.110  -0.018  0.00  0.00    -0.054 S 
BRANCH  19  23
ATOM     23  C   UNL     1      -1.082  -5.883  -0.027  0.00  0.00    +0.035 C 
ATOM     24  C   UNL     1      -0.520  -6.552  -1.283  0.00  0.00    +0.014 C 
ATOM     25  C   UNL     1      -0.507  -6.566   1.216  0.00  0.00    +0.014 C 
ENDBRANCH  19  23
ENDBRANCH   1  18
TORSDOF 3
