REMARK  Name = ZINC20227987
REMARK  6 active torsions:
REMARK  status: ('A' for Active; 'I' for Inactive)
REMARK    1  A    between atoms: C_1  and  O_2
REMARK    2  A    between atoms: O_2  and  C_3
REMARK    3  A    between atoms: C_5  and  O_23
REMARK    4  A    between atoms: C_8  and  N_9
REMARK    5  A    between atoms: C_10  and  C_12
REMARK    6  A    between atoms: O_23  and  C_24
REMARK                            x       y       z     vdW  Elec       q    Type
REMARK                         _______ _______ _______ _____ _____    ______ ____
ROOT
ATOM      1  N   UNL     1       1.482   0.067   6.058  0.00  0.00    -0.277 N 
ATOM      2  C   UNL     1       0.959   0.551   7.202  0.00  0.00    +0.270 C 
ATOM      3  O   UNL     1      -0.043   1.238   7.169  0.00  0.00    -0.268 OA
ATOM      4  H   UNL     1       2.345  -0.615   6.093  0.00  0.00    +0.155 HD
ENDROOT
BRANCH   2   5
ATOM      5  C   UNL     1       1.605   0.245   8.501  0.00  0.00    +0.171 A 
ATOM      6  C   UNL     1       1.192   0.675   9.783  0.00  0.00    +0.027 A 
ATOM      7  C   UNL     1       2.098   0.142  10.628  0.00  0.00    +0.141 A 
ATOM      8  O   UNL     1       2.965  -0.544   9.876  0.00  0.00    -0.359 OA
ATOM      9  N   UNL     1       2.684  -0.478   8.699  0.00  0.00    -0.073 NA
ATOM     10  C   UNL     1       2.112   0.327  12.123  0.00  0.00    +0.077 C 
ATOM     11  C   UNL     1       0.706   0.098  12.671  0.00  0.00    +0.008 C 
ATOM     12  C   UNL     1      -0.084   1.404  12.652  0.00  0.00    +0.001 C 
ATOM     13  C   UNL     1       0.319   2.266  11.457  0.00  0.00    +0.005 C 
ATOM     14  C   UNL     1       0.007   1.518  10.156  0.00  0.00    +0.041 C 
ENDBRANCH   2   5
BRANCH   1  20
ATOM     15  C   UNL     1       1.748   0.590   3.709  0.00  0.00    +0.145 A 
ATOM     16  C   UNL     1       1.197   0.952   2.491  0.00  0.00    +0.094 A 
ATOM     17  C   UNL     1      -0.170   1.156   2.382  0.00  0.00    +0.142 A 
ATOM     18  C   UNL     1      -0.987   1.004   3.494  0.00  0.00    +0.084 A 
ATOM     19  C   UNL     1      -0.440   0.637   4.710  0.00  0.00    +0.050 A 
ATOM     20  C   UNL     1       0.927   0.432   4.823  0.00  0.00    +0.077 A 
ATOM     21 CL   UNL     1      -2.697   1.266   3.356  0.00  0.00    -0.080 Cl
BRANCH  15  23
ATOM     22  C   UNL     1       3.869   0.569   2.634  0.00  0.00    +0.277 C 
ATOM     23  O   UNL     1       3.089   0.390   3.818  0.00  0.00    -0.493 OA
ENDBRANCH  15  23
BRANCH  17  24
ATOM     24  O   UNL     1      -0.711   1.511   1.186  0.00  0.00    -0.494 OA
ATOM     25  C   UNL     1       0.189   1.656   0.085  0.00  0.00    +0.277 C 
ENDBRANCH  17  24
ENDBRANCH   1  20
TORSDOF 4
