REMARK  Name = ZINC38703311
REMARK  10 active torsions:
REMARK  status: ('A' for Active; 'I' for Inactive)
REMARK    1  A    between atoms: C_1  and  C_2
REMARK    2  A    between atoms: C_2  and  C_3
REMARK    3  A    between atoms: C_3  and  C_4
REMARK    4  A    between atoms: C_4  and  C_5
REMARK    5  A    between atoms: C_5  and  C_6
REMARK    6  A    between atoms: C_6  and  O_7
REMARK    7  A    between atoms: O_7  and  C_8
REMARK    8  A    between atoms: C_11  and  C_14
REMARK    9  A    between atoms: C_21  and  C_31
REMARK   10  A    between atoms: C_23  and  C_30
REMARK                            x       y       z     vdW  Elec       q    Type
REMARK                         _______ _______ _______ _____ _____    ______ ____
ROOT
ATOM      1  C   UNL     1       2.583 -10.086  -4.382  0.00  0.00    +0.141 C 
ATOM      2  C   UNL     1       1.560 -10.569  -5.357  0.00  0.00    +0.072 A 
ATOM      3  C   UNL     1       0.094 -10.525  -5.322  0.00  0.00    +0.199 A 
ATOM      4  O   UNL     1      -0.534  -9.889  -4.494  0.00  0.00    -0.287 OA
ATOM      5  C   UNL     1      -0.550 -11.328  -6.391  0.00  0.00    +0.065 A 
ATOM      6  C   UNL     1      -1.927 -11.549  -6.375  0.00  0.00    +0.018 A 
ATOM      7  C   UNL     1      -2.506 -12.295  -7.365  0.00  0.00    -0.049 A 
ATOM      8  C   UNL     1      -1.727 -12.831  -8.381  0.00  0.00    +0.010 A 
ATOM      9  C   UNL     1      -0.367 -12.621  -8.413  0.00  0.00    -0.007 A 
ATOM     10  C   UNL     1       0.247 -11.861  -7.417  0.00  0.00    +0.142 A 
ATOM     11  O   UNL     1       1.583 -11.660  -7.473  0.00  0.00    -0.449 OA
ATOM     12  C   UNL     1       2.222 -11.131  -6.411  0.00  0.00    +0.199 A 
ATOM     13  C   UNL     1       3.670 -11.035  -6.152  0.00  0.00    +0.281 C 
ATOM     14  O   UNL     1       4.538 -11.445  -6.896  0.00  0.00    -0.267 OA
ATOM     15  N   UNL     1       3.890 -10.426  -4.967  0.00  0.00    -0.298 N 
ATOM     16  C   UNL     1       0.460 -13.213  -9.525  0.00  0.00    +0.047 C 
ATOM     17  C   UNL     1      -3.993 -12.536  -7.351  0.00  0.00    +0.044 C 
ATOM     18  H   UNL     1       4.757 -10.243  -4.571  0.00  0.00    +0.150 HD
ENDROOT
BRANCH   1  22
ATOM     19  C   UNL     1       2.251  -5.856  -3.871  0.00  0.00    +0.121 A 
ATOM     20  C   UNL     1       1.716  -6.715  -2.921  0.00  0.00    +0.046 A 
ATOM     21  C   UNL     1       1.825  -8.082  -3.088  0.00  0.00    +0.009 A 
ATOM     22  C   UNL     1       2.466  -8.595  -4.202  0.00  0.00    -0.022 A 
ATOM     23  C   UNL     1       2.999  -7.741  -5.149  0.00  0.00    +0.009 A 
ATOM     24  C   UNL     1       2.888  -6.373  -4.989  0.00  0.00    +0.046 A 
BRANCH  19  25
ATOM     25  O   UNL     1       2.145  -4.511  -3.708  0.00  0.00    -0.492 OA
BRANCH  25  26
ATOM     26  C   UNL     1       1.476  -4.051  -2.532  0.00  0.00    +0.229 C 
BRANCH  26  27
ATOM     27  C   UNL     1       1.455  -2.521  -2.524  0.00  0.00    +0.041 C 
BRANCH  27  28
ATOM     28  C   UNL     1       0.739  -2.027  -1.265  0.00  0.00    +0.003 C 
BRANCH  28  29
ATOM     29  C   UNL     1       0.718  -0.497  -1.257  0.00  0.00    -0.000 C 
BRANCH  29  31
ATOM     30  C   UNL     1      -0.019   1.526   0.010  0.00  0.00    +0.004 C 
ATOM     31  C   UNL     1       0.002  -0.004   0.002  0.00  0.00    -0.003 C 
ENDBRANCH  29  31
ENDBRANCH  28  29
ENDBRANCH  27  28
ENDBRANCH  26  27
ENDBRANCH  25  26
ENDBRANCH  19  25
ENDBRANCH   1  22
TORSDOF 7
