REMARK  Name = ZINC12410657
REMARK  8 active torsions:
REMARK  status: ('A' for Active; 'I' for Inactive)
REMARK    1  A    between atoms: C_1  and  C_2
REMARK    2  A    between atoms: C_2  and  O_3
REMARK    3  A    between atoms: O_3  and  C_4
REMARK    4  A    between atoms: C_4  and  C_6
REMARK    5  A    between atoms: C_9  and  O_29
REMARK    6  A    between atoms: C_14  and  C_15
REMARK    7  A    between atoms: C_15  and  N_16
REMARK    8  A    between atoms: N_19  and  C_22
REMARK                            x       y       z     vdW  Elec       q    Type
REMARK                         _______ _______ _______ _____ _____    ______ ____
ROOT
ATOM      1  C   UNL     1      -2.867  -2.394  -0.007  0.00  0.00    +0.106 A 
ATOM      2  C   UNL     1      -3.705  -2.744  -1.172  0.00  0.00    +0.038 A 
ATOM      3  C   UNL     1      -3.536  -2.652  -2.550  0.00  0.00    +0.059 A 
ATOM      4  C   UNL     1      -4.546  -3.080  -3.392  0.00  0.00    +0.132 A 
ATOM      5  C   UNL     1      -5.723  -3.599  -2.861  0.00  0.00    +0.063 A 
ATOM      6  C   UNL     1      -5.896  -3.692  -1.496  0.00  0.00    +0.065 A 
ATOM      7  C   UNL     1      -4.890  -3.266  -0.637  0.00  0.00    +0.137 A 
ATOM      8  O   UNL     1      -4.780  -3.236   0.708  0.00  0.00    -0.461 OA
ATOM      9  C   UNL     1      -3.601  -2.734   1.089  0.00  0.00    +0.104 A 
ATOM     10 BR   UNL     1      -7.098  -4.181  -4.022  0.00  0.00    -0.046 Br
ENDROOT
BRANCH   1  11
ATOM     11  C   UNL     1      -1.521  -1.807  -0.026  0.00  0.00    +0.343 C 
ATOM     12  O   UNL     1      -0.543  -2.530  -0.052  0.00  0.00    -0.245 OA
BRANCH  11  13
ATOM     13  O   UNL     1      -1.369  -0.468  -0.015  0.00  0.00    -0.461 OA
BRANCH  13  15
ATOM     14  C   UNL     1      -0.059   1.563  -0.018  0.00  0.00    +0.048 C 
ATOM     15  C   UNL     1      -0.030   0.033  -0.035  0.00  0.00    +0.229 C 
ENDBRANCH  13  15
ENDBRANCH  11  13
ENDBRANCH   1  11
BRANCH   4  16
ATOM     16  O   UNL     1      -4.388  -2.994  -4.740  0.00  0.00    -0.506 OA
ATOM     17  H   UNL     1      -3.990  -3.779  -5.140  0.00  0.00    +0.292 HD
ENDBRANCH   4  16
BRANCH   9  18
ATOM     18  C   UNL     1      -3.152  -2.565   2.518  0.00  0.00    -0.002 C 
BRANCH  18  19
ATOM     19  N   UNL     1      -3.558  -1.241   3.006  0.00  0.00    +0.386 N 
ATOM     20  C   UNL     1      -2.855  -0.202   2.242  0.00  0.00    -0.059 C 
ATOM     21  C   UNL     1      -3.363   1.178   2.671  0.00  0.00    +0.086 C 
ATOM     22  N   UNL     1      -3.219   1.295   4.131  0.00  0.00    -0.333 N 
ATOM     23  C   UNL     1      -3.754   0.211   4.969  0.00  0.00    +0.086 C 
ATOM     24  C   UNL     1      -3.227  -1.123   4.432  0.00  0.00    -0.059 C 
ATOM     25  H   UNL     1      -4.554  -1.129   2.883  0.00  0.00    -0.081 HD
BRANCH  22  26
ATOM     26  C   UNL     1      -2.592   2.404   4.704  0.00  0.00    +0.030 A 
ATOM     27  C   UNL     1      -1.996   3.362   3.894  0.00  0.00    +0.023 A 
ATOM     28  C   UNL     1      -1.377   4.458   4.464  0.00  0.00    +0.002 A 
ATOM     29  C   UNL     1      -1.351   4.601   5.839  0.00  0.00    +0.000 A 
ATOM     30  C   UNL     1      -1.945   3.650   6.648  0.00  0.00    +0.002 A 
ATOM     31  C   UNL     1      -2.570   2.555   6.085  0.00  0.00    +0.023 A 
ENDBRANCH  22  26
ENDBRANCH  18  19
ENDBRANCH   9  18
TORSDOF 7
