REMARK  Name = ZINC49546805
REMARK  2 active torsions:
REMARK  status: ('A' for Active; 'I' for Inactive)
REMARK    1  A    between atoms: C_2  and  S_7
REMARK    2  A    between atoms: S_7  and  N_10
REMARK                            x       y       z     vdW  Elec       q    Type
REMARK                         _______ _______ _______ _____ _____    ______ ____
ROOT
ATOM      1  N   UNL     1       1.665   4.141   1.590  0.00  0.00    -0.103 NA
ATOM      2  C   UNL     1       1.932   5.390   1.884  0.00  0.00    +0.192 A 
ATOM      3  N   UNL     1       2.143   6.455   1.047  0.00  0.00    -0.336 N 
ATOM      4  C   UNL     1       2.414   7.708   1.581  0.00  0.00    +0.028 A 
ATOM      5  C   UNL     1       2.459   7.812   2.909  0.00  0.00    +0.012 A 
ATOM      6  S   UNL     1       2.112   6.164   3.483  0.00  0.00    -0.053 S 
ATOM      7  C   UNL     1       2.766   9.209   3.369  0.00  0.00    +0.044 C 
ATOM      8  C   UNL     1       3.336   9.912   2.117  0.00  0.00    +0.011 C 
ATOM      9  C   UNL     1       2.689   9.092   0.983  0.00  0.00    +0.054 C 
ATOM     10  H   UNL     1       2.103   6.334   0.085  0.00  0.00    +0.168 HD
ENDROOT
BRANCH   1  11
ATOM     11  S   UNL     1       1.549   3.670   0.006  0.00  0.00    +0.109 S 
ATOM     12  O   UNL     1       2.846   3.813  -0.556  0.00  0.00    -0.146 OA
ATOM     13  O   UNL     1       0.410   4.328  -0.530  0.00  0.00    -0.146 OA
BRANCH  11  15
ATOM     14  C   UNL     1      -0.016   1.315   0.009  0.00  0.00    +0.149 A 
ATOM     15  C   UNL     1       1.185   1.946   0.001  0.00  0.00    +0.170 A 
ATOM     16  S   UNL     1       2.294   0.547  -0.017  0.00  0.00    -0.035 S 
ATOM     17  C   UNL     1       1.131  -0.670  -0.012  0.00  0.00    +0.169 A 
ATOM     18  N   UNL     1       0.002  -0.004   0.002  0.00  0.00    -0.234 NA
ATOM     19 CL   UNL     1       1.369  -2.389  -0.024  0.00  0.00    -0.054 Cl
ENDBRANCH  11  15
ENDBRANCH   1  11
TORSDOF 2
