REMARK  Name = ZINC40553951
REMARK  3 active torsions:
REMARK  status: ('A' for Active; 'I' for Inactive)
REMARK    1  A    between atoms: C_1  and  C_2
REMARK    2  A    between atoms: N_6  and  C_14
REMARK    3  A    between atoms: C_14  and  C_15
REMARK                            x       y       z     vdW  Elec       q    Type
REMARK                         _______ _______ _______ _____ _____    ______ ____
ROOT
ATOM      1  C   UNL     1       2.752  -1.105  -2.430  0.00  0.00    +0.209 C 
ENDROOT
BRANCH   1   6
ATOM      2  C   UNL     1      -0.019   1.526   0.010  0.00  0.00    +0.062 C 
ATOM      3  C   UNL     1       0.002  -0.004   0.002  0.00  0.00    +0.256 C 
ATOM      4  C   UNL     1       0.706  -0.490  -1.239  0.00  0.00    +0.261 C 
ATOM      5  O   UNL     1       0.074  -0.718  -2.249  0.00  0.00    -0.271 OA
ATOM      6  N   UNL     1       2.045  -0.669  -1.223  0.00  0.00    -0.256 N 
ATOM      7  C   UNL     1       2.748  -0.433  -0.033  0.00  0.00    +0.079 A 
ATOM      8  C   UNL     1       4.126  -0.291  -0.041  0.00  0.00    +0.027 A 
ATOM      9  C   UNL     1       4.800  -0.060   1.144  0.00  0.00    +0.002 A 
ATOM     10  C   UNL     1       4.102   0.031   2.335  0.00  0.00    +0.004 A 
ATOM     11  C   UNL     1       2.726  -0.109   2.349  0.00  0.00    +0.047 A 
ATOM     12  C   UNL     1       2.045  -0.340   1.167  0.00  0.00    +0.143 A 
ATOM     13  O   UNL     1       0.692  -0.477   1.161  0.00  0.00    -0.478 OA
ENDBRANCH   1   6
BRANCH   1  14
ATOM     14  C   UNL     1       3.181   0.102  -3.224  0.00  0.00    +0.234 C 
ATOM     15  O   UNL     1       2.922   1.216  -2.821  0.00  0.00    -0.274 OA
ATOM     16  N   UNL     1       3.853  -0.057  -4.382  0.00  0.00    -0.292 N 
ATOM     17  C   UNL     1       4.175  -1.397  -4.898  0.00  0.00    +0.136 C 
ATOM     18  C   UNL     1       3.719  -1.483  -6.358  0.00  0.00    +0.179 C 
ATOM     19  O   UNL     1       4.248  -0.372  -7.087  0.00  0.00    -0.373 OA
ATOM     20  C   UNL     1       3.802   0.898  -6.613  0.00  0.00    +0.139 C 
ATOM     21  C   UNL     1       4.285   1.105  -5.180  0.00  0.00    +0.105 C 
ATOM     22  C   UNL     1       5.815   1.159  -5.161  0.00  0.00    +0.025 C 
ATOM     23  C   UNL     1       6.304   2.297  -6.057  0.00  0.00    +0.002 C 
ATOM     24  C   UNL     1       5.834   2.048  -7.492  0.00  0.00    +0.003 C 
ATOM     25  C   UNL     1       4.327   2.016  -7.508  0.00  0.00    +0.033 C 
ENDBRANCH   1  14
TORSDOF 2
