REMARK  Name = ZINC42736982
REMARK  3 active torsions:
REMARK  status: ('A' for Active; 'I' for Inactive)
REMARK    1  A    between atoms: C_1  and  C_2
REMARK    2  A    between atoms: C_2  and  C_4
REMARK    3  A    between atoms: C_2  and  N_11
REMARK                            x       y       z     vdW  Elec       q    Type
REMARK                         _______ _______ _______ _____ _____    ______ ____
ROOT
ATOM      1  N   UNL     1       0.711  -0.489   1.189  0.00  0.00    -0.293 N 
ATOM      2  C   UNL     1       2.054  -0.600   1.174  0.00  0.00    +0.306 C 
ATOM      3  O   UNL     1       2.677  -0.297   0.175  0.00  0.00    -0.252 OA
ATOM      4  N   UNL     1       2.706  -1.046   2.266  0.00  0.00    -0.248 N 
ATOM      5  C   UNL     1       4.091  -1.160   2.250  0.00  0.00    +0.165 A 
ATOM      6  N   UNL     1       4.923  -0.876   1.272  0.00  0.00    -0.233 NA
ATOM      7  C   UNL     1       6.226  -1.041   1.415  0.00  0.00    +0.120 A 
ATOM      8  C   UNL     1       6.660  -1.513   2.609  0.00  0.00    +0.068 A 
ATOM      9  S   UNL     1       5.111  -1.688   3.480  0.00  0.00    -0.060 S 
ATOM     10  H   UNL     1       0.213  -0.731   1.986  0.00  0.00    +0.151 HD
ATOM     11  H   UNL     1       2.208  -1.288   3.062  0.00  0.00    +0.158 HD
ENDROOT
BRANCH   1  13
ATOM     12  C   UNL     1      -0.019   1.526   0.010  0.00  0.00    +0.033 C 
ATOM     13  C   UNL     1       0.002  -0.004   0.002  0.00  0.00    +0.102 C 
BRANCH  13  14
ATOM     14  C   UNL     1      -1.412  -0.526   0.013  0.00  0.00    -0.027 A 
ATOM     15  C   UNL     1      -2.123  -0.571   1.198  0.00  0.00    +0.006 A 
ATOM     16  C   UNL     1      -3.420  -1.049   1.208  0.00  0.00    +0.015 A 
ATOM     17  C   UNL     1      -4.006  -1.482   0.032  0.00  0.00    +0.018 A 
ATOM     18  C   UNL     1      -3.294  -1.437  -1.153  0.00  0.00    +0.015 A 
ATOM     19  C   UNL     1      -1.999  -0.954  -1.163  0.00  0.00    +0.006 A 
ATOM     20 BR   UNL     1      -5.780  -2.136   0.046  0.00  0.00    -0.050 Br
ENDBRANCH  13  14
ENDBRANCH   1  13
TORSDOF 2
