REMARK  Name = ZINC55734605
REMARK  3 active torsions:
REMARK  status: ('A' for Active; 'I' for Inactive)
REMARK    1  A    between atoms: C_10  and  N_11
REMARK    2  A    between atoms: C_12  and  C_14
REMARK    3  A    between atoms: C_14  and  N_15
REMARK                            x       y       z     vdW  Elec       q    Type
REMARK                         _______ _______ _______ _____ _____    ______ ____
ROOT
ATOM      1  N   UNL     1       3.917   3.054  -0.973  0.00  0.00    -0.307 N 
ATOM      2  C   UNL     1       3.627   4.310  -0.579  0.00  0.00    +0.231 C 
ATOM      3  O   UNL     1       3.268   4.520   0.560  0.00  0.00    -0.274 OA
ATOM      4  H   UNL     1       4.204   2.886  -1.884  0.00  0.00    +0.149 HD
ENDROOT
BRANCH   1  14
ATOM      5  C   UNL     1      -0.017   1.379   0.010  0.00  0.00    +0.020 A 
ATOM      6  C   UNL     1       1.171   2.084   0.002  0.00  0.00    +0.007 A 
ATOM      7  C   UNL     1       2.381   1.412  -0.014  0.00  0.00    -0.024 A 
ATOM      8  C   UNL     1       2.401   0.029  -0.021  0.00  0.00    -0.041 A 
ATOM      9  C   UNL     1       1.210  -0.677  -0.013  0.00  0.00    +0.024 A 
ATOM     10  C   UNL     1       0.002  -0.004   0.002  0.00  0.00    +0.041 A 
ATOM     11 CL   UNL     1      -1.489  -0.894   0.012  0.00  0.00    -0.084 Cl
ATOM     12  C   UNL     1       3.832  -0.462  -0.039  0.00  0.00    +0.037 C 
ATOM     13  C   UNL     1       4.671   0.755  -0.482  0.00  0.00    +0.032 C 
ATOM     14  C   UNL     1       3.798   1.943  -0.026  0.00  0.00    +0.104 C 
ENDBRANCH   1  14
BRANCH   2  15
ATOM     15  C   UNL     1       3.748   5.453  -1.554  0.00  0.00    +0.213 C 
BRANCH  15  16
ATOM     16  N   UNL     1       3.380   6.704  -0.887  0.00  0.00    -0.215 N 
ATOM     17  C   UNL     1       2.126   7.200  -0.845  0.00  0.00    +0.247 C 
ATOM     18  O   UNL     1       1.128   6.715  -1.333  0.00  0.00    -0.273 OA
ATOM     19  C   UNL     1       2.228   8.489  -0.062  0.00  0.00    +0.113 C 
ATOM     20  C   UNL     1       1.378   8.412   1.202  0.00  0.00    +0.035 C 
ATOM     21  C   UNL     1       1.519   9.714   1.994  0.00  0.00    +0.003 C 
ATOM     22  C   UNL     1       1.067  10.890   1.126  0.00  0.00    +0.000 C 
ATOM     23  C   UNL     1       1.944  10.968  -0.125  0.00  0.00    +0.003 C 
ATOM     24  C   UNL     1       1.805   9.671  -0.926  0.00  0.00    +0.035 C 
ATOM     25  N   UNL     1       3.652   8.586   0.281  0.00  0.00    -0.285 N 
ATOM     26  C   UNL     1       4.245   7.495  -0.240  0.00  0.00    +0.310 C 
ATOM     27  O   UNL     1       5.432   7.256  -0.137  0.00  0.00    -0.252 OA
ATOM     28  H   UNL     1       4.081   9.294   0.786  0.00  0.00    +0.151 HD
ENDBRANCH  15  16
ENDBRANCH   2  15
TORSDOF 3
