REMARK  Name = ZINC13570876
REMARK  5 active torsions:
REMARK  status: ('A' for Active; 'I' for Inactive)
REMARK    1  A    between atoms: C_1  and  C_2
REMARK    2  A    between atoms: C_3  and  N_9
REMARK    3  A    between atoms: C_12  and  C_14
REMARK    4  A    between atoms: C_15  and  C_21
REMARK    5  A    between atoms: C_18  and  O_20
REMARK                            x       y       z     vdW  Elec       q    Type
REMARK                         _______ _______ _______ _____ _____    ______ ____
ROOT
ATOM      1  N   UNL     1      -0.161  -0.120  -2.480  0.00  0.00    -0.214 N 
ATOM      2  C   UNL     1      -0.348  -0.725  -3.675  0.00  0.00    +0.164 A 
ATOM      3  C   UNL     1      -0.388   0.277  -4.637  0.00  0.00    +0.027 A 
ATOM      4  C   UNL     1      -0.213   1.489  -3.997  0.00  0.00    +0.066 A 
ATOM      5  N   UNL     1      -0.082   1.264  -2.709  0.00  0.00    -0.169 NA
ATOM      6  C   UNL     1      -0.184   2.841  -4.662  0.00  0.00    +0.068 C 
ATOM      7  C   UNL     1      -0.599  -0.039  -6.097  0.00  0.00    +0.064 C 
ATOM      8  C   UNL     1      -0.028  -1.438  -6.356  0.00  0.00    +0.108 C 
ATOM      9  C   UNL     1      -0.387  -2.392  -5.254  0.00  0.00    +0.190 C 
ATOM     10  N   UNL     1      -0.507  -2.037  -4.009  0.00  0.00    -0.197 NA
ENDROOT
BRANCH   1  13
ATOM     11  C   UNL     1      -1.705   0.910  -0.322  0.00  0.00    +0.047 C 
ATOM     12  C   UNL     1      -0.806  -0.288  -0.157  0.00  0.00    -0.007 A 
ATOM     13  C   UNL     1      -0.069  -0.758  -1.237  0.00  0.00    +0.072 A 
ATOM     14  C   UNL     1       0.758  -1.862  -1.081  0.00  0.00    +0.028 A 
ATOM     15  C   UNL     1       0.847  -2.490   0.146  0.00  0.00    +0.004 A 
ATOM     16  C   UNL     1       0.113  -2.022   1.219  0.00  0.00    +0.020 A 
ATOM     17  C   UNL     1      -0.709  -0.918   1.069  0.00  0.00    +0.046 A 
ATOM     18 CL   UNL     1      -1.624  -0.327   2.421  0.00  0.00    -0.083 Cl
ENDBRANCH   1  13
BRANCH   7  19
ATOM     19  C   UNL     1       0.122   0.974  -6.948  0.00  0.00    -0.032 A 
ATOM     20  C   UNL     1      -0.578   1.767  -7.839  0.00  0.00    +0.012 A 
ATOM     21  C   UNL     1       0.101   2.668  -8.590  0.00  0.00    +0.045 A 
ATOM     22  S   UNL     1       1.781   2.413  -8.044  0.00  0.00    -0.105 S 
ATOM     23  C   UNL     1       1.465   1.127  -6.848  0.00  0.00    +0.049 A 
ENDBRANCH   7  19
BRANCH   9  24
ATOM     24  O   UNL     1      -0.598  -3.685  -5.572  0.00  0.00    -0.495 OA
ATOM     25  H   UNL     1      -0.826  -4.244  -4.817  0.00  0.00    +0.293 HD
ENDBRANCH   9  24
TORSDOF 3
