REMARK  Name = ZINC59293657
REMARK  7 active torsions:
REMARK  status: ('A' for Active; 'I' for Inactive)
REMARK    1  A    between atoms: C_1  and  C_2
REMARK    2  A    between atoms: C_2  and  O_3
REMARK    3  A    between atoms: O_3  and  C_4
REMARK    4  A    between atoms: C_4  and  C_6
REMARK    5  A    between atoms: C_7  and  N_29
REMARK    6  A    between atoms: C_19  and  C_27
REMARK    7  A    between atoms: C_20  and  C_22
REMARK                            x       y       z     vdW  Elec       q    Type
REMARK                         _______ _______ _______ _____ _____    ______ ____
ROOT
ATOM      1  C   UNL     1       1.385  -2.347   2.470  0.00  0.00    +0.085 C 
ATOM      2  C   UNL     1       1.490  -3.698   2.610  0.00  0.00    +0.106 C 
ATOM      3  N   UNL     1       2.196  -4.237   3.672  0.00  0.00    -0.216 N 
ATOM      4  C   UNL     1       2.696  -5.475   3.562  0.00  0.00    +0.258 C 
ATOM      5  O   UNL     1       2.325  -6.148   2.620  0.00  0.00    -0.269 OA
ATOM      6  C   UNL     1       3.655  -6.080   4.487  0.00  0.00    +0.051 A 
ATOM      7  C   UNL     1       4.454  -7.152   4.069  0.00  0.00    +0.014 A 
ATOM      8  C   UNL     1       5.366  -7.710   4.935  0.00  0.00    +0.001 A 
ATOM      9  C   UNL     1       5.508  -7.221   6.225  0.00  0.00    +0.001 A 
ATOM     10  C   UNL     1       4.727  -6.168   6.659  0.00  0.00    +0.016 A 
ATOM     11  C   UNL     1       3.798  -5.603   5.801  0.00  0.00    +0.026 A 
ATOM     12  S   UNL     1       2.758  -4.279   6.336  0.00  0.00    -0.072 S 
ATOM     13  C   UNL     1       2.366  -3.475   4.813  0.00  0.00    +0.095 C 
ATOM     14  C   UNL     1       2.266  -2.120   4.762  0.00  0.00    +0.070 C 
ATOM     15  C   UNL     1       2.072  -1.422   3.439  0.00  0.00    +0.108 C 
ENDROOT
BRANCH  15  16
ATOM     16  C   UNL     1       3.411  -1.016   2.880  0.00  0.00    +0.003 A 
ATOM     17  C   UNL     1       3.874   0.223   2.587  0.00  0.00    +0.012 A 
ATOM     18  C   UNL     1       5.152   0.359   2.078  0.00  0.00    +0.008 A 
ATOM     19  C   UNL     1       5.904  -0.752   1.886  0.00  0.00    +0.045 A 
ATOM     20  S   UNL     1       4.803  -2.044   2.439  0.00  0.00    -0.101 S 
ENDBRANCH  15  16
BRANCH   2  21
ATOM     21  N   UNL     1       0.895  -4.527   1.696  0.00  0.00    -0.345 N 
ATOM     22  H   UNL     1       0.913  -4.301   0.753  0.00  0.00    +0.143 HD
ATOM     23  H   UNL     1       0.454  -5.339   1.992  0.00  0.00    +0.143 HD
ENDBRANCH   2  21
BRANCH   1  24
ATOM     24  C   UNL     1       0.635  -1.813   1.411  0.00  0.00    +0.339 C 
ATOM     25  O   UNL     1      -0.012  -2.552   0.690  0.00  0.00    -0.245 OA
BRANCH  24  26
ATOM     26  O   UNL     1       0.630  -0.481   1.191  0.00  0.00    -0.462 OA
BRANCH  26  28
ATOM     27  C   UNL     1      -0.038   1.516   0.004  0.00  0.00    +0.048 C 
ATOM     28  C   UNL     1      -0.156  -0.007   0.096  0.00  0.00    +0.229 C 
ENDBRANCH  26  28
ENDBRANCH  24  26
ENDBRANCH   1  24
BRANCH  14  29
ATOM     29  C   UNL     1       2.351  -1.353   5.969  0.00  0.00    +0.098 C 
ATOM     30  N   UNL     1       2.417  -0.745   6.926  0.00  0.00    -0.191 NA
ENDBRANCH  14  29
TORSDOF 6
