REMARK  Name = ZINC61788561
REMARK  5 active torsions:
REMARK  status: ('A' for Active; 'I' for Inactive)
REMARK    1  A    between atoms: C_1  and  S_2
REMARK    2  A    between atoms: S_2  and  N_5
REMARK    3  A    between atoms: N_13  and  C_14
REMARK    4  A    between atoms: C_19  and  C_20
REMARK    5  A    between atoms: C_20  and  N_21
REMARK                            x       y       z     vdW  Elec       q    Type
REMARK                         _______ _______ _______ _____ _____    ______ ____
ROOT
ATOM      1  N   UNL     1       0.691   1.523  -2.217  0.00  0.00    -0.178 NA
ATOM      2  C   UNL     1       2.158   1.618  -2.217  0.00  0.00    +0.128 C 
ATOM      3  C   UNL     1       2.737   0.256  -2.623  0.00  0.00    +0.126 C 
ATOM      4  N   UNL     1       2.056  -0.199  -3.844  0.00  0.00    -0.283 N 
ATOM      5  C   UNL     1       0.590  -0.293  -3.843  0.00  0.00    +0.126 C 
ATOM      6  C   UNL     1       0.011   1.063  -3.436  0.00  0.00    +0.128 C 
ATOM      7  C   UNL     1       2.764  -0.523  -4.943  0.00  0.00    +0.307 C 
ATOM      8  O   UNL     1       2.200  -0.986  -5.915  0.00  0.00    -0.252 OA
ATOM      9  N   UNL     1       4.098  -0.333  -4.966  0.00  0.00    -0.269 N 
ATOM     10  H   UNL     1       4.561  -0.043  -4.164  0.00  0.00    +0.156 HD
ENDROOT
BRANCH   9  11
ATOM     11  C   UNL     1       4.817  -0.554  -6.146  0.00  0.00    +0.036 A 
ATOM     12  C   UNL     1       4.149  -0.641  -7.361  0.00  0.00    +0.023 A 
ATOM     13  C   UNL     1       4.861  -0.859  -8.524  0.00  0.00    +0.002 A 
ATOM     14  C   UNL     1       6.237  -0.991  -8.481  0.00  0.00    +0.000 A 
ATOM     15  C   UNL     1       6.904  -0.905  -7.273  0.00  0.00    +0.003 A 
ATOM     16  C   UNL     1       6.199  -0.681  -6.106  0.00  0.00    -0.043 A 
BRANCH  16  17
ATOM     17  C   UNL     1       6.928  -0.581  -4.791  0.00  0.00    -0.041 C 
BRANCH  17  18
ATOM     18  N   UNL     1       6.715  -1.812  -4.019  0.00  0.00    +0.383 N 
ATOM     19  C   UNL     1       7.229  -1.622  -2.661  0.00  0.00    -0.068 C 
ATOM     20  C   UNL     1       6.694  -2.727  -1.742  0.00  0.00    +0.050 C 
ATOM     21  S   UNL     1       7.305  -4.327  -2.359  0.00  0.00    -0.164 S 
ATOM     22  C   UNL     1       6.886  -4.258  -4.129  0.00  0.00    +0.050 C 
ATOM     23  C   UNL     1       7.392  -2.924  -4.691  0.00  0.00    -0.068 C 
ATOM     24  H   UNL     1       5.726  -2.007  -3.973  0.00  0.00    -0.081 HD
ENDBRANCH  17  18
ENDBRANCH  16  17
ENDBRANCH   9  11
BRANCH   1  26
ATOM     25  C   UNL     1      -0.310   0.377   0.076  0.00  0.00    +0.215 C 
ATOM     26  S   UNL     1      -0.179   1.921  -0.866  0.00  0.00    +0.029 S 
ATOM     27  O   UNL     1      -1.456   2.305  -1.357  0.00  0.00    -0.158 OA
ATOM     28  O   UNL     1       0.638   2.852  -0.170  0.00  0.00    -0.158 OA
ENDBRANCH   1  26
TORSDOF 4
