REMARK  Name = ZINC06209108
REMARK  7 active torsions:
REMARK  status: ('A' for Active; 'I' for Inactive)
REMARK    1  A    between atoms: C_1  and  C_2
REMARK    2  A    between atoms: C_2  and  C_21
REMARK    3  A    between atoms: N_5  and  C_9
REMARK    4  A    between atoms: C_9  and  N_56
REMARK    5  A    between atoms: C_12  and  C_15
REMARK    6  A    between atoms: C_21  and  C_22
REMARK    7  A    between atoms: C_22  and  C_23
REMARK                            x       y       z     vdW  Elec       q    Type
REMARK                         _______ _______ _______ _____ _____    ______ ____
ROOT
ATOM      1  C   UNL     1      -0.927  -4.044  -2.802  0.00  0.00    +0.041 C 
ATOM      2  C   UNL     1      -1.862  -3.654  -1.655  0.00  0.00    +0.110 C 
ATOM      3  C   UNL     1      -1.919  -2.147  -1.497  0.00  0.00    +0.245 C 
ATOM      4  O   UNL     1      -2.306  -1.339  -2.314  0.00  0.00    -0.273 OA
ATOM      5  N   UNL     1      -1.448  -1.893  -0.260  0.00  0.00    -0.241 N 
ATOM      6  C   UNL     1      -1.113  -3.018   0.381  0.00  0.00    +0.308 C 
ATOM      7  O   UNL     1      -0.668  -3.044   1.512  0.00  0.00    -0.252 OA
ATOM      8  N   UNL     1      -1.322  -4.117  -0.365  0.00  0.00    -0.285 N 
ATOM      9  H   UNL     1      -1.151  -5.036  -0.105  0.00  0.00    +0.151 HD
ENDROOT
BRANCH   5  10
ATOM     10  C   UNL     1      -1.325  -0.550   0.314  0.00  0.00    +0.043 C 
BRANCH  10  16
ATOM     11  C   UNL     1      -0.018   1.468   0.010  0.00  0.00    -0.071 C 
ATOM     12  C   UNL     1       1.427   1.974  -0.001  0.00  0.00    +0.017 C 
ATOM     13  C   UNL     1       2.201   1.274  -1.083  0.00  0.00    -0.048 C 
ATOM     14  C   UNL     1       1.779   0.169  -1.657  0.00  0.00    -0.041 C 
ATOM     15  C   UNL     1       0.484  -0.499  -1.294  0.00  0.00    -0.049 C 
ATOM     16  N   UNL     1       0.020  -0.009   0.017  0.00  0.00    +0.393 N 
ATOM     17  H   UNL     1       0.674  -0.324   0.744  0.00  0.00    -0.079 HD
BRANCH  13  18
ATOM     18  C   UNL     1       3.488   1.853  -1.521  0.00  0.00    -0.022 A 
ATOM     19  C   UNL     1       4.564   1.920  -0.635  0.00  0.00    +0.008 A 
ATOM     20  C   UNL     1       5.765   2.456  -1.052  0.00  0.00    +0.001 A 
ATOM     21  C   UNL     1       5.901   2.937  -2.342  0.00  0.00    +0.000 A 
ATOM     22  C   UNL     1       4.837   2.879  -3.224  0.00  0.00    +0.001 A 
ATOM     23  C   UNL     1       3.632   2.340  -2.821  0.00  0.00    +0.008 A 
ENDBRANCH  13  18
ENDBRANCH  10  16
ENDBRANCH   5  10
BRANCH   2  24
ATOM     24  C   UNL     1      -3.265  -4.220  -1.887  0.00  0.00    +0.039 C 
BRANCH  24  25
ATOM     25  C   UNL     1      -3.217  -5.747  -1.808  0.00  0.00    +0.037 C 
BRANCH  25  26
ATOM     26  C   UNL     1      -4.599  -6.304  -2.035  0.00  0.00    -0.047 A 
ATOM     27  C   UNL     1      -5.446  -6.511  -0.963  0.00  0.00    +0.003 A 
ATOM     28  C   UNL     1      -6.715  -7.019  -1.172  0.00  0.00    +0.000 A 
ATOM     29  C   UNL     1      -7.133  -7.328  -2.453  0.00  0.00    +0.000 A 
ATOM     30  C   UNL     1      -6.284  -7.125  -3.525  0.00  0.00    +0.000 A 
ATOM     31  C   UNL     1      -5.017  -6.614  -3.316  0.00  0.00    +0.003 A 
ENDBRANCH  25  26
ENDBRANCH  24  25
ENDBRANCH   2  24
TORSDOF 6
