REMARK  Name = ZINC40317323
REMARK  6 active torsions:
REMARK  status: ('A' for Active; 'I' for Inactive)
REMARK    1  A    between atoms: C_1  and  C_2
REMARK    2  A    between atoms: C_8  and  N_10
REMARK    3  A    between atoms: N_10  and  C_11
REMARK    4  A    between atoms: N_10  and  S_12
REMARK    5  A    between atoms: S_12  and  C_15
REMARK    6  A    between atoms: C_18  and  N_22
REMARK                            x       y       z     vdW  Elec       q    Type
REMARK                         _______ _______ _______ _____ _____    ______ ____
ROOT
ATOM      1  S   UNL     1       1.115   1.022   3.386  0.00  0.00    +0.062 S 
ATOM      2  O   UNL     1       1.938   1.734   2.473  0.00  0.00    -0.153 OA
ATOM      3  O   UNL     1       0.210   1.677   4.265  0.00  0.00    -0.153 OA
ENDROOT
BRANCH   1   4
ATOM      4  C   UNL     1       2.194   0.065   4.397  0.00  0.00    +0.124 A 
ATOM      5  C   UNL     1       3.560   0.107   4.182  0.00  0.00    +0.032 A 
ATOM      6  C   UNL     1       4.409  -0.642   4.972  0.00  0.00    +0.025 A 
ATOM      7  C   UNL     1       3.890  -1.440   5.985  0.00  0.00    +0.026 A 
ATOM      8  C   UNL     1       2.519  -1.481   6.199  0.00  0.00    +0.044 A 
ATOM      9  C   UNL     1       1.674  -0.725   5.408  0.00  0.00    +0.069 A 
ATOM     10 CL   UNL     1      -0.040  -0.770   5.678  0.00  0.00    -0.081 Cl
BRANCH   7  11
ATOM     11  N   UNL     1       4.747  -2.199   6.785  0.00  0.00    -0.358 N 
ATOM     12  H   UNL     1       5.705  -2.170   6.634  0.00  0.00    +0.142 HD
ATOM     13  H   UNL     1       4.384  -2.756   7.492  0.00  0.00    +0.142 HD
ENDBRANCH   7  11
ENDBRANCH   1   4
BRANCH   1  14
ATOM     14  N   UNL     1       0.217  -0.039   2.486  0.00  0.00    -0.176 NA
ATOM     15  C   UNL     1      -1.125  -0.425   2.932  0.00  0.00    +0.132 C 
BRANCH  14  22
ATOM     16  C   UNL     1      -0.040   1.419  -0.004  0.00  0.00    +0.009 C 
ATOM     17  C   UNL     1      -0.076  -0.110   0.059  0.00  0.00    +0.005 C 
ATOM     18  C   UNL     1       0.495  -0.687  -1.238  0.00  0.00    +0.005 C 
ATOM     19  C   UNL     1       0.459  -2.215  -1.175  0.00  0.00    +0.000 C 
ATOM     20  C   UNL     1       1.298  -2.697   0.010  0.00  0.00    +0.002 C 
ATOM     21  C   UNL     1       0.728  -2.119   1.307  0.00  0.00    +0.021 C 
ATOM     22  C   UNL     1       0.763  -0.591   1.244  0.00  0.00    +0.082 C 
ENDBRANCH  14  22
ENDBRANCH   1  14
TORSDOF 4
