REMARK  Name = ZINC65074673
REMARK  5 active torsions:
REMARK  status: ('A' for Active; 'I' for Inactive)
REMARK    1  A    between atoms: C_1  and  C_2
REMARK    2  A    between atoms: C_5  and  S_8
REMARK    3  A    between atoms: S_8  and  N_11
REMARK    4  A    between atoms: N_22  and  C_23
REMARK    5  A    between atoms: C_23  and  C_24
REMARK                            x       y       z     vdW  Elec       q    Type
REMARK                         _______ _______ _______ _____ _____    ______ ____
ROOT
ATOM      1  N   UNL     1       1.651  -4.999  -0.034  0.00  0.00    -0.176 NA
ATOM      2  C   UNL     1       2.364  -5.199  -1.303  0.00  0.00    +0.111 C 
ATOM      3  C   UNL     1       3.646  -4.360  -1.286  0.00  0.00    +0.047 C 
ATOM      4  C   UNL     1       4.467  -4.715  -0.043  0.00  0.00    +0.075 C 
ATOM      5  C   UNL     1       3.656  -4.385   1.213  0.00  0.00    +0.047 C 
ATOM      6  C   UNL     1       2.376  -5.218   1.225  0.00  0.00    +0.111 C 
ATOM      7  C   UNL     1       5.742  -3.922  -0.041  0.00  0.00    +0.089 C 
ATOM      8  N   UNL     1       6.885  -4.419   0.248  0.00  0.00    -0.374 N 
ATOM      9  C   UNL     1       7.094  -5.819   0.603  0.00  0.00    +0.129 C 
ATOM     10  C   UNL     1       5.762  -6.468   0.986  0.00  0.00    +0.102 C 
ATOM     11  N   UNL     1       4.772  -6.153  -0.059  0.00  0.00    -0.303 NA
ATOM     12  N   UNL     1       5.679  -2.592  -0.367  0.00  0.00    -0.329 N 
ATOM     13  H   UNL     1       3.934  -6.702   0.060  0.00  0.00    +0.123 HD
ATOM     14  H   UNL     1       4.826  -2.188  -0.591  0.00  0.00    +0.147 HD
ATOM     15  H   UNL     1       7.657  -3.832   0.231  0.00  0.00    +0.161 HD
ENDROOT
BRANCH   1  16
ATOM     16  S   UNL     1       0.063  -4.530  -0.023  0.00  0.00    +0.061 S 
ATOM     17  O   UNL     1      -0.476  -4.950   1.223  0.00  0.00    -0.153 OA
ATOM     18  O   UNL     1      -0.490  -4.937  -1.267  0.00  0.00    -0.153 OA
BRANCH  16  23
ATOM     19  C   UNL     1      -0.018   1.503   0.010  0.00  0.00    +0.044 C 
ATOM     20  C   UNL     1       0.002  -0.004   0.002  0.00  0.00    -0.050 A 
ATOM     21  C   UNL     1       0.006  -0.689  -1.199  0.00  0.00    +0.005 A 
ATOM     22  C   UNL     1       0.025  -2.071  -1.206  0.00  0.00    +0.029 A 
ATOM     23  C   UNL     1       0.040  -2.768  -0.013  0.00  0.00    +0.105 A 
ATOM     24  C   UNL     1       0.037  -2.084   1.188  0.00  0.00    +0.029 A 
ATOM     25  C   UNL     1       0.023  -0.702   1.195  0.00  0.00    +0.005 A 
ENDBRANCH  16  23
ENDBRANCH   1  16
BRANCH  12  26
ATOM     26  C   UNL     1       6.899  -1.781  -0.377  0.00  0.00    +0.138 C 
BRANCH  26  27
ATOM     27  C   UNL     1       6.558  -0.366  -0.765  0.00  0.00    -0.030 A 
ATOM     28  C   UNL     1       6.568   0.008  -2.096  0.00  0.00    +0.005 A 
ATOM     29  C   UNL     1       6.255   1.307  -2.451  0.00  0.00    +0.000 A 
ATOM     30  C   UNL     1       5.931   2.231  -1.476  0.00  0.00    +0.000 A 
ATOM     31  C   UNL     1       5.920   1.857  -0.146  0.00  0.00    +0.000 A 
ATOM     32  C   UNL     1       6.229   0.558   0.210  0.00  0.00    +0.005 A 
ENDBRANCH  26  27
ENDBRANCH  12  26
TORSDOF 4
