REMARK  Name = ZINC32865470
REMARK  7 active torsions:
REMARK  status: ('A' for Active; 'I' for Inactive)
REMARK    1  A    between atoms: C_1  and  C_2
REMARK    2  A    between atoms: C_5  and  O_14
REMARK    3  A    between atoms: C_8  and  C_13
REMARK    4  A    between atoms: O_14  and  C_15
REMARK    5  A    between atoms: C_15  and  C_16
REMARK    6  A    between atoms: N_20  and  C_25
REMARK    7  A    between atoms: N_23  and  C_24
REMARK                            x       y       z     vdW  Elec       q    Type
REMARK                         _______ _______ _______ _____ _____    ______ ____
ROOT
ATOM      1  C   UNL     1       2.404   3.849   0.120  0.00  0.00    +0.044 C 
ATOM      2  C   UNL     1       1.073   3.143   0.090  0.00  0.00    -0.046 A 
ATOM      3  C   UNL     1       1.030   1.758   0.088  0.00  0.00    +0.007 A 
ATOM      4  C   UNL     1      -0.183   1.099   0.061  0.00  0.00    +0.046 A 
ATOM      5  C   UNL     1      -1.365   1.820   0.030  0.00  0.00    +0.132 A 
ATOM      6  C   UNL     1      -1.329   3.229   0.038  0.00  0.00    +0.063 A 
ATOM      7  C   UNL     1      -0.093   3.880   0.065  0.00  0.00    -0.027 A 
ATOM      8  C   UNL     1      -0.309   5.374   0.062  0.00  0.00    +0.024 C 
ATOM      9  C   UNL     1      -1.829   5.588   0.029  0.00  0.00    +0.087 C 
ATOM     10  C   UNL     1      -2.427   4.202   0.015  0.00  0.00    +0.168 C 
ATOM     11  O   UNL     1      -3.611   3.939  -0.011  0.00  0.00    -0.292 OA
ATOM     12  C   UNL     1       0.282   5.994   1.330  0.00  0.00    +0.013 C 
ENDROOT
BRANCH   5  13
ATOM     13  O   UNL     1      -2.555   1.172  -0.001  0.00  0.00    -0.485 OA
BRANCH  13  14
ATOM     14  C   UNL     1      -2.516  -0.257  -0.001  0.00  0.00    +0.282 C 
BRANCH  14  15
ATOM     15  C   UNL     1      -3.922  -0.798  -0.038  0.00  0.00    +0.065 A 
ATOM     16  C   UNL     1      -4.974   0.048  -0.066  0.00  0.00    +0.095 A 
ATOM     17  C   UNL     1      -6.286  -0.484  -0.101  0.00  0.00    +0.257 A 
ATOM     18  O   UNL     1      -7.250   0.259  -0.126  0.00  0.00    -0.268 OA
ATOM     19  N   UNL     1      -6.457  -1.821  -0.106  0.00  0.00    -0.264 N 
ATOM     20  C   UNL     1      -5.391  -2.642  -0.078  0.00  0.00    +0.332 A 
ATOM     21  O   UNL     1      -5.560  -3.846  -0.083  0.00  0.00    -0.246 OA
ATOM     22  N   UNL     1      -4.139  -2.149  -0.050  0.00  0.00    -0.297 N 
ATOM     23  C   UNL     1      -2.998  -3.067  -0.027  0.00  0.00    +0.154 C 
ATOM     24  C   UNL     1      -7.809  -2.383  -0.141  0.00  0.00    +0.157 C 
ENDBRANCH  14  15
ENDBRANCH  13  14
ENDBRANCH   5  13
TORSDOF 3
