REMARK  Name = ZINC04956072
REMARK  5 active torsions:
REMARK  status: ('A' for Active; 'I' for Inactive)
REMARK    1  A    between atoms: C_4  and  O_8
REMARK    2  A    between atoms: O_8  and  C_9
REMARK    3  A    between atoms: C_9  and  C_10
REMARK    4  A    between atoms: N_12  and  C_13
REMARK    5  A    between atoms: C_14  and  C_21
REMARK                            x       y       z     vdW  Elec       q    Type
REMARK                         _______ _______ _______ _____ _____    ______ ____
ROOT
ATOM      1  C   UNL     1       3.610   5.891  -0.001  0.00  0.00    +0.255 C 
ATOM      2  O   UNL     1       4.583   5.166  -0.013  0.00  0.00    -0.272 OA
ATOM      3  N   UNL     1       3.767   7.229   0.005  0.00  0.00    -0.277 N 
ATOM      4  H   UNL     1       2.989   7.809   0.015  0.00  0.00    +0.155 HD
ENDROOT
BRANCH   3   5
ATOM      5  C   UNL     1       5.040   7.778  -0.004  0.00  0.00    +0.084 A 
ATOM      6  C   UNL     1       5.401   9.115  -0.006  0.00  0.00    +0.068 A 
ATOM      7  C   UNL     1       6.829   9.431  -0.012  0.00  0.00    -0.023 A 
ATOM      8  C   UNL     1       7.650   8.366  -0.024  0.00  0.00    -0.004 A 
ATOM      9  S   UNL     1       6.565   6.959  -0.022  0.00  0.00    -0.077 S 
ATOM     10  C   UNL     1       9.099   8.770  -0.033  0.00  0.00    +0.043 C 
ATOM     11  C   UNL     1       9.093  10.249   0.413  0.00  0.00    +0.010 C 
ATOM     12  C   UNL     1       7.682  10.700  -0.015  0.00  0.00    +0.037 C 
BRANCH   6  13
ATOM     13  C   UNL     1       4.388  10.175   0.001  0.00  0.00    +0.244 C 
ATOM     14  O   UNL     1       3.975  10.615   1.058  0.00  0.00    -0.270 OA
ATOM     15  N   UNL     1       3.914  10.662  -1.163  0.00  0.00    -0.325 N 
ATOM     16  H   UNL     1       4.243  10.311  -2.005  0.00  0.00    +0.145 HD
ATOM     17  H   UNL     1       3.244  11.363  -1.158  0.00  0.00    +0.145 HD
ENDBRANCH   6  13
ENDBRANCH   3   5
BRANCH   1  18
ATOM     18  C   UNL     1       2.227   5.294   0.009  0.00  0.00    +0.325 C 
BRANCH  18  19
ATOM     19  O   UNL     1       2.323   3.868   0.001  0.00  0.00    -0.481 OA
BRANCH  19  23
ATOM     20  C   UNL     1      -1.220   1.750   0.017  0.00  0.00    +0.021 A 
ATOM     21  C   UNL     1      -0.013   1.076   0.008  0.00  0.00    +0.025 A 
ATOM     22  C   UNL     1       1.175   1.782   0.000  0.00  0.00    +0.083 A 
ATOM     23  C   UNL     1       1.156   3.171   0.008  0.00  0.00    +0.141 A 
ATOM     24  C   UNL     1      -0.056   3.845   0.022  0.00  0.00    +0.067 A 
ATOM     25  C   UNL     1      -1.242   3.134   0.030  0.00  0.00    +0.045 A 
ATOM     26 CL   UNL     1      -2.759   3.977   0.048  0.00  0.00    -0.083 Cl
ATOM     27 CL   UNL     1       2.690   0.935  -0.019  0.00  0.00    -0.080 Cl
ENDBRANCH  19  23
ENDBRANCH  18  19
ENDBRANCH   1  18
TORSDOF 5
