REMARK  Name = ZINC20160315
REMARK  3 active torsions:
REMARK  status: ('A' for Active; 'I' for Inactive)
REMARK    1  A    between atoms: C_1  and  C_2
REMARK    2  A    between atoms: C_8  and  C_10
REMARK    3  A    between atoms: C_16  and  N_19
REMARK                            x       y       z     vdW  Elec       q    Type
REMARK                         _______ _______ _______ _____ _____    ______ ____
ROOT
ATOM      1  C   UNL     1      -0.022   1.781  -0.000  0.00  0.00    +0.094 A 
ATOM      2  C   UNL     1       1.133   1.870   0.714  0.00  0.00    +0.068 A 
ATOM      3  C   UNL     1       2.140   0.901   0.543  0.00  0.00    +0.010 A 
ATOM      4  C   UNL     1       3.400   0.821   1.189  0.00  0.00    +0.010 A 
ATOM      5  C   UNL     1       4.263  -0.189   0.907  0.00  0.00    +0.003 A 
ATOM      6  C   UNL     1       3.948  -1.179  -0.017  0.00  0.00    +0.034 A 
ATOM      7  C   UNL     1       2.732  -1.139  -0.668  0.00  0.00    +0.140 A 
ATOM      8  C   UNL     1       1.847  -0.119  -0.392  0.00  0.00    +0.052 A 
ATOM      9  S   UNL     1       0.226   0.308  -0.976  0.00  0.00    -0.080 S 
ATOM     10 CL   UNL     1       1.366   3.178   1.832  0.00  0.00    -0.082 Cl
ENDROOT
BRANCH   1  18
ATOM     11  C   UNL     1      -5.965   0.824   1.869  0.00  0.00    +0.007 C 
ATOM     12  C   UNL     1      -4.934   1.198   0.802  0.00  0.00    -0.011 C 
ATOM     13  C   UNL     1      -4.598   2.686   0.916  0.00  0.00    +0.022 C 
ATOM     14  C   UNL     1      -3.592   3.064  -0.176  0.00  0.00    +0.108 C 
ATOM     15  N   UNL     1      -2.428   2.173  -0.075  0.00  0.00    -0.297 N 
ATOM     16  C   UNL     1      -2.647   0.721  -0.089  0.00  0.00    +0.108 C 
ATOM     17  C   UNL     1      -3.664   0.369   1.007  0.00  0.00    +0.022 C 
ATOM     18  C   UNL     1      -1.183   2.679   0.022  0.00  0.00    +0.255 C 
ATOM     19  O   UNL     1      -1.021   3.880   0.130  0.00  0.00    -0.269 OA
ENDBRANCH   1  18
BRANCH   7  20
ATOM     20  N   UNL     1       2.381  -2.185  -1.655  0.00  0.00    +0.058 N 
ATOM     21  O   UNL     1       3.167  -3.084  -1.896  0.00  0.00    -0.126 OA
ATOM     22  O   UNL     1       1.306  -2.146  -2.227  0.00  0.00    -0.126 OA
ENDBRANCH   7  20
TORSDOF 2
