REMARK  Name = ZINC00390214
REMARK  6 active torsions:
REMARK  status: ('A' for Active; 'I' for Inactive)
REMARK    1  A    between atoms: C_1  and  C_2
REMARK    2  A    between atoms: C_2  and  C_3
REMARK    3  A    between atoms: C_8  and  O_9
REMARK    4  A    between atoms: C_12  and  O_15
REMARK    5  A    between atoms: O_15  and  C_16
REMARK    6  A    between atoms: N_19  and  C_21
REMARK                            x       y       z     vdW  Elec       q    Type
REMARK                         _______ _______ _______ _____ _____    ______ ____
ROOT
ATOM      1  C   UNL     1      -1.675   2.998   2.533  0.00  0.00    -0.005 A 
ATOM      2  C   UNL     1      -2.453   3.697   1.655  0.00  0.00    +0.022 A 
ATOM      3  C   UNL     1      -2.512   5.088   1.738  0.00  0.00    +0.068 A 
ATOM      4  C   UNL     1      -1.775   5.772   2.722  0.00  0.00    +0.142 A 
ATOM      5  C   UNL     1      -0.989   5.048   3.607  0.00  0.00    +0.092 A 
ATOM      6  C   UNL     1      -0.945   3.667   3.514  0.00  0.00    +0.124 A 
ATOM      7  O   UNL     1      -1.839   7.117   2.792  0.00  0.00    -0.459 OA
ATOM      8  C   UNL     1      -2.587   7.845   1.953  0.00  0.00    +0.245 A 
ATOM      9  C   UNL     1      -3.333   7.293   0.975  0.00  0.00    +0.210 A 
ATOM     10  C   UNL     1      -3.339   5.879   0.810  0.00  0.00    +0.235 A 
ATOM     11  O   UNL     1      -4.001   5.344  -0.064  0.00  0.00    -0.283 OA
ENDROOT
BRANCH   1  13
ATOM     12  C   UNL     1      -0.331   1.082   1.715  0.00  0.00    +0.009 C 
ATOM     13  C   UNL     1      -1.610   1.495   2.445  0.00  0.00    +0.035 C 
ENDBRANCH   1  13
BRANCH   6  14
ATOM     14  O   UNL     1      -0.180   2.958   4.383  0.00  0.00    -0.506 OA
ATOM     15  H   UNL     1       0.728   2.815   4.082  0.00  0.00    +0.292 HD
ENDBRANCH   6  14
BRANCH   9  16
ATOM     16  O   UNL     1      -4.074   8.082   0.151  0.00  0.00    -0.446 OA
BRANCH  16  17
ATOM     17  C   UNL     1      -3.985   9.432   0.307  0.00  0.00    +0.166 A 
ATOM     18  C   UNL     1      -3.246  10.309  -0.501  0.00  0.00    +0.181 A 
ATOM     19  N   UNL     1      -3.403  11.525  -0.042  0.00  0.00    -0.171 NA
ATOM     20  N   UNL     1      -4.248  11.469   1.074  0.00  0.00    -0.236 N 
ATOM     21  C   UNL     1      -4.599  10.168   1.267  0.00  0.00    +0.160 A 
BRANCH  20  22
ATOM     22  C   UNL     1      -4.663  12.559   1.851  0.00  0.00    +0.065 A 
ATOM     23  C   UNL     1      -5.511  12.361   2.932  0.00  0.00    +0.028 A 
ATOM     24  C   UNL     1      -5.914  13.437   3.699  0.00  0.00    +0.002 A 
ATOM     25  C   UNL     1      -5.482  14.712   3.383  0.00  0.00    +0.000 A 
ATOM     26  C   UNL     1      -4.642  14.914   2.304  0.00  0.00    +0.002 A 
ATOM     27  C   UNL     1      -4.231  13.841   1.537  0.00  0.00    +0.028 A 
ENDBRANCH  20  22
ENDBRANCH  16  17
ENDBRANCH   9  16
TORSDOF 5
