REMARK  Name = ZINC44420963
REMARK  3 active torsions:
REMARK  status: ('A' for Active; 'I' for Inactive)
REMARK    1  A    between atoms: C_8  and  C_11
REMARK    2  A    between atoms: C_13  and  C_16
REMARK    3  A    between atoms: N_21  and  C_23
REMARK                            x       y       z     vdW  Elec       q    Type
REMARK                         _______ _______ _______ _____ _____    ______ ____
ROOT
ATOM      1  C   UNL     1       3.691  -3.410  -0.058  0.00  0.00    +0.275 A 
ATOM      2  N   UNL     1       5.005  -3.493  -0.056  0.00  0.00    -0.190 NA
ATOM      3  C   UNL     1       5.381  -4.773  -0.074  0.00  0.00    +0.177 A 
ATOM      4  N   UNL     1       4.320  -5.530  -0.087  0.00  0.00    -0.060 NA
ATOM      5  O   UNL     1       3.197  -4.662  -0.071  0.00  0.00    -0.331 OA
ENDROOT
BRANCH   1  13
ATOM      6  C   UNL     1      -0.072   1.308   0.007  0.00  0.00    +0.001 A 
ATOM      7  C   UNL     1       1.109   2.040   0.013  0.00  0.00    +0.002 A 
ATOM      8  C   UNL     1       2.329   1.402   0.003  0.00  0.00    +0.026 A 
ATOM      9  C   UNL     1       2.384   0.012  -0.014  0.00  0.00    +0.047 A 
ATOM     10  C   UNL     1       1.185  -0.728  -0.020  0.00  0.00    +0.000 A 
ATOM     11  C   UNL     1      -0.044  -0.056  -0.009  0.00  0.00    +0.010 A 
ATOM     12  C   UNL     1       1.546  -2.098  -0.037  0.00  0.00    +0.041 A 
ATOM     13  C   UNL     1       2.902  -2.168  -0.041  0.00  0.00    +0.106 A 
ATOM     14  N   UNL     1       3.423  -0.890  -0.027  0.00  0.00    -0.350 N 
ATOM     15  H   UNL     1       4.366  -0.665  -0.026  0.00  0.00    +0.166 HD
ENDBRANCH   1  13
BRANCH   3  16
ATOM     16  C   UNL     1       6.805  -5.265  -0.079  0.00  0.00    +0.087 C 
ATOM     17  C   UNL     1       7.063  -6.201  -1.282  0.00  0.00    +0.109 C 
ATOM     18  C   UNL     1       7.995  -7.260  -0.736  0.00  0.00    +0.221 C 
ATOM     19  O   UNL     1       8.658  -8.018  -1.412  0.00  0.00    -0.275 OA
ATOM     20  N   UNL     1       7.983  -7.238   0.608  0.00  0.00    -0.271 N 
ATOM     21  C   UNL     1       7.068  -6.207   1.117  0.00  0.00    +0.125 C 
BRANCH  20  22
ATOM     22  C   UNL     1       8.744  -8.087   1.420  0.00  0.00    +0.039 A 
ATOM     23  C   UNL     1       9.496  -9.105   0.848  0.00  0.00    +0.026 A 
ATOM     24  C   UNL     1      10.247  -9.943   1.649  0.00  0.00    +0.043 A 
ATOM     25  C   UNL     1      10.251  -9.770   3.022  0.00  0.00    +0.159 A 
ATOM     26  C   UNL     1       9.502  -8.754   3.596  0.00  0.00    +0.160 A 
ATOM     27  C   UNL     1       8.753  -7.910   2.796  0.00  0.00    +0.064 A 
ATOM     28  F   UNL     1       9.507  -8.586   4.937  0.00  0.00    -0.202 F 
ATOM     29  F   UNL     1      10.986 -10.591   3.804  0.00  0.00    -0.202 F 
ENDBRANCH  20  22
ENDBRANCH   3  16
TORSDOF 3
