REMARK  Name = ZINC61412790
REMARK  4 active torsions:
REMARK  status: ('A' for Active; 'I' for Inactive)
REMARK    1  A    between atoms: C_1  and  C_2
REMARK    2  A    between atoms: C_7  and  N_8
REMARK    3  A    between atoms: N_8  and  C_9
REMARK    4  A    between atoms: C_10  and  C_12
REMARK                            x       y       z     vdW  Elec       q    Type
REMARK                         _______ _______ _______ _____ _____    ______ ____
ROOT
ATOM      1  N   UNL     1      -0.053   0.300   2.167  0.00  0.00    -0.270 N 
ATOM      2  C   UNL     1       1.173   1.021   2.518  0.00  0.00    +0.138 C 
ATOM      3  C   UNL     1      -1.165   0.461   2.911  0.00  0.00    +0.251 C 
ATOM      4  O   UNL     1      -2.154  -0.208   2.679  0.00  0.00    -0.270 OA
ENDROOT
BRANCH   3   5
ATOM      5  C   UNL     1      -1.184   1.451   4.008  0.00  0.00    +0.042 A 
ATOM      6  C   UNL     1      -0.662   2.729   3.804  0.00  0.00    +0.013 A 
ATOM      7  C   UNL     1      -0.679   3.653   4.828  0.00  0.00    +0.003 A 
ATOM      8  C   UNL     1      -1.211   3.314   6.058  0.00  0.00    +0.023 A 
ATOM      9  C   UNL     1      -1.733   2.042   6.272  0.00  0.00    +0.031 A 
ATOM     10  C   UNL     1      -1.729   1.109   5.250  0.00  0.00    -0.014 A 
ATOM     11  C   UNL     1      -2.300  -0.271   5.440  0.00  0.00    +0.039 C 
ATOM     12  C   UNL     1      -2.372  -0.620   6.926  0.00  0.00    +0.023 C 
ATOM     13  C   UNL     1      -3.087   0.517   7.668  0.00  0.00    +0.102 C 
ATOM     14  N   UNL     1      -2.260   1.726   7.529  0.00  0.00    -0.344 N 
ATOM     15  H   UNL     1      -2.091   2.300   8.293  0.00  0.00    +0.146 HD
ENDBRANCH   3   5
BRANCH   1  22
ATOM     16  C   UNL     1      -0.772   1.387  -0.362  0.00  0.00    +0.045 C 
ATOM     17  C   UNL     1      -0.414  -0.067  -0.192  0.00  0.00    -0.029 A 
ATOM     18  C   UNL     1      -0.424  -0.914  -1.283  0.00  0.00    +0.005 A 
ATOM     19  C   UNL     1      -0.096  -2.248  -1.128  0.00  0.00    +0.000 A 
ATOM     20  C   UNL     1       0.243  -2.739   0.120  0.00  0.00    +0.002 A 
ATOM     21  C   UNL     1       0.255  -1.898   1.215  0.00  0.00    +0.024 A 
ATOM     22  C   UNL     1      -0.069  -0.556   1.061  0.00  0.00    +0.039 A 
ENDBRANCH   1  22
TORSDOF 2
