REMARK  Name = ZINC65000873
REMARK  4 active torsions:
REMARK  status: ('A' for Active; 'I' for Inactive)
REMARK    1  A    between atoms: C_1  and  C_2
REMARK    2  A    between atoms: C_2  and  C_35
REMARK    3  A    between atoms: N_7  and  C_25
REMARK    4  A    between atoms: C_10  and  C_11
REMARK                            x       y       z     vdW  Elec       q    Type
REMARK                         _______ _______ _______ _____ _____    ______ ____
ROOT
ATOM      1  C   UNL     1       1.505   1.632  -1.388  0.00  0.00    +0.011 C 
ATOM      2  C   UNL     1       1.079   0.216  -0.997  0.00  0.00    -0.024 C 
ATOM      3  C   UNL     1       1.475  -0.759  -2.103  0.00  0.00    +0.043 C 
ATOM      4  C   UNL     1       1.199  -2.179  -1.699  0.00  0.00    -0.018 A 
ATOM      5  C   UNL     1       1.095  -2.560  -0.347  0.00  0.00    +0.038 A 
ATOM      6  C   UNL     1       0.849  -3.880  -0.007  0.00  0.00    +0.106 A 
ATOM      7  N   UNL     1       0.699  -4.829  -0.947  0.00  0.00    -0.283 N 
ATOM      8  C   UNL     1       0.779  -4.532  -2.257  0.00  0.00    +0.268 A 
ATOM      9  O   UNL     1       0.633  -5.408  -3.092  0.00  0.00    -0.266 OA
ATOM     10  C   UNL     1       1.041  -3.154  -2.678  0.00  0.00    +0.105 A 
ATOM     11  C   UNL     1       1.244  -1.546   0.711  0.00  0.00    +0.165 C 
ATOM     12  O   UNL     1       0.951  -1.792   1.862  0.00  0.00    -0.292 OA
ATOM     13  C   UNL     1       1.774  -0.185   0.310  0.00  0.00    +0.086 C 
ATOM     14  C   UNL     1      -0.438   0.176  -0.801  0.00  0.00    +0.011 C 
ENDROOT
BRANCH  10  15
ATOM     15  C   UNL     1       1.136  -2.809  -4.105  0.00  0.00    +0.252 C 
ATOM     16  O   UNL     1       0.124  -2.637  -4.758  0.00  0.00    -0.270 OA
ATOM     17  N   UNL     1       2.344  -2.683  -4.689  0.00  0.00    -0.294 N 
ATOM     18  C   UNL     1       3.572  -2.989  -3.942  0.00  0.00    +0.127 C 
ATOM     19  C   UNL     1       4.376  -4.034  -4.725  0.00  0.00    +0.125 C 
ATOM     20  N   UNL     1       4.489  -3.589  -6.122  0.00  0.00    -0.314 N 
ATOM     21  C   UNL     1       3.261  -3.283  -6.869  0.00  0.00    +0.125 C 
ATOM     22  C   UNL     1       2.457  -2.244  -6.087  0.00  0.00    +0.127 C 
ATOM     23  C   UNL     1       5.735  -3.459  -6.724  0.00  0.00    +0.099 A 
ATOM     24  C   UNL     1       6.889  -3.615  -5.962  0.00  0.00    +0.042 A 
ATOM     25  C   UNL     1       8.122  -3.484  -6.574  0.00  0.00    +0.005 A 
ATOM     26  C   UNL     1       8.160  -3.199  -7.933  0.00  0.00    +0.018 A 
ATOM     27  C   UNL     1       6.976  -3.056  -8.628  0.00  0.00    +0.084 A 
ATOM     28  N   UNL     1       5.813  -3.193  -8.018  0.00  0.00    -0.350 N 
ATOM     29  H   UNL     1       4.996  -3.092  -8.531  0.00  0.00    +0.166 HD
ENDBRANCH  10  15
BRANCH   7  30
ATOM     30  C   UNL     1       0.455  -6.151  -0.555  0.00  0.00    +0.050 A 
ATOM     31  C   UNL     1       1.340  -7.158  -0.916  0.00  0.00    +0.027 A 
ATOM     32  C   UNL     1       1.097  -8.461  -0.528  0.00  0.00    +0.022 A 
ATOM     33  C   UNL     1      -0.028  -8.763   0.219  0.00  0.00    +0.041 A 
ATOM     34  C   UNL     1      -0.912  -7.761   0.580  0.00  0.00    +0.022 A 
ATOM     35  C   UNL     1      -0.670  -6.456   0.200  0.00  0.00    +0.027 A 
ATOM     36 CL   UNL     1      -0.331 -10.402   0.704  0.00  0.00    -0.084 Cl
ENDBRANCH   7  30
TORSDOF 2
