REMARK  Name = ZINC48301170
REMARK  4 active torsions:
REMARK  status: ('A' for Active; 'I' for Inactive)
REMARK    1  A    between atoms: C_1  and  C_2
REMARK    2  A    between atoms: N_14  and  C_15
REMARK    3  A    between atoms: C_15  and  C_16
REMARK    4  A    between atoms: C_18  and  C_21
REMARK                            x       y       z     vdW  Elec       q    Type
REMARK                         _______ _______ _______ _____ _____    ______ ____
ROOT
ATOM      1  C   UNL     1      -0.019   1.526   0.010  0.00  0.00    +0.028 C 
ATOM      2  C   UNL     1       0.002  -0.004   0.002  0.00  0.00    +0.080 C 
ATOM      3  C   UNL     1       0.715  -0.496  -1.259  0.00  0.00    +0.118 C 
ATOM      4  C   UNL     1       1.096  -1.944  -1.107  0.00  0.00    +0.219 C 
ATOM      5  O   UNL     1       0.458  -2.799  -1.684  0.00  0.00    -0.275 OA
ATOM      6  N   UNL     1       2.144  -2.297  -0.331  0.00  0.00    -0.284 N 
ATOM      7  C   UNL     1       2.830  -1.333   0.417  0.00  0.00    +0.055 A 
ATOM      8  C   UNL     1       4.212  -1.255   0.379  0.00  0.00    +0.025 A 
ATOM      9  C   UNL     1       4.870  -0.309   1.145  0.00  0.00    +0.002 A 
ATOM     10  C   UNL     1       4.152   0.559   1.948  0.00  0.00    +0.002 A 
ATOM     11  C   UNL     1       2.771   0.493   1.984  0.00  0.00    +0.025 A 
ATOM     12  C   UNL     1       2.105  -0.444   1.212  0.00  0.00    +0.052 A 
ATOM     13  N   UNL     1       0.707  -0.487   1.191  0.00  0.00    -0.316 N 
ATOM     14  H   UNL     1       2.424  -3.225  -0.292  0.00  0.00    +0.155 HD
ENDROOT
BRANCH  13  15
ATOM     15  C   UNL     1      -0.038  -1.007   2.340  0.00  0.00    +0.204 C 
BRANCH  15  16
ATOM     16  C   UNL     1      -0.246  -2.490   2.175  0.00  0.00    +0.245 A 
ATOM     17  N   UNL     1       0.555  -3.426   2.603  0.00  0.00    -0.194 NA
ATOM     18  C   UNL     1       0.064  -4.630   2.286  0.00  0.00    +0.175 A 
ATOM     19  N   UNL     1      -1.061  -4.473   1.649  0.00  0.00    -0.061 NA
ATOM     20  O   UNL     1      -1.288  -3.074   1.570  0.00  0.00    -0.336 OA
BRANCH  18  21
ATOM     21  C   UNL     1       0.709  -5.952   2.611  0.00  0.00    +0.060 C 
ATOM     22  C   UNL     1       0.098  -7.209   1.990  0.00  0.00    +0.012 C 
ATOM     23  C   UNL     1      -0.083  -6.929   3.483  0.00  0.00    +0.012 C 
ENDBRANCH  18  21
ENDBRANCH  15  16
ENDBRANCH  13  15
TORSDOF 3
