REMARK  Name = ZINC67294929
REMARK  7 active torsions:
REMARK  status: ('A' for Active; 'I' for Inactive)
REMARK    1  A    between atoms: C_1  and  C_2
REMARK    2  A    between atoms: C_2  and  C_3
REMARK    3  A    between atoms: C_2  and  O_4
REMARK    4  A    between atoms: O_4  and  C_5
REMARK    5  A    between atoms: C_10  and  N_11
REMARK    6  A    between atoms: C_22  and  C_25
REMARK    7  A    between atoms: C_22  and  C_26
REMARK                            x       y       z     vdW  Elec       q    Type
REMARK                         _______ _______ _______ _____ _____    ______ ____
ROOT
ATOM      1  N   UNL     1      -3.943  -1.436  -0.202  0.00  0.00    -0.266 N 
ATOM      2  C   UNL     1      -5.188  -1.951  -0.239  0.00  0.00    +0.307 C 
ATOM      3  O   UNL     1      -5.407  -2.968  -0.869  0.00  0.00    -0.252 OA
ATOM      4  N   UNL     1      -6.190  -1.339   0.422  0.00  0.00    -0.285 N 
ATOM      5  C   UNL     1      -5.971  -0.046   1.085  0.00  0.00    +0.114 C 
ATOM      6  C   UNL     1      -7.024   0.948   0.587  0.00  0.00    +0.084 C 
ATOM      7  C   UNL     1      -8.420   0.359   0.805  0.00  0.00    +0.173 C 
ATOM      8  C   UNL     1      -8.560  -0.936   0.003  0.00  0.00    +0.084 C 
ATOM      9  C   UNL     1      -7.525  -1.949   0.489  0.00  0.00    +0.114 C 
ATOM     10  O   UNL     1      -8.608   0.082   2.194  0.00  0.00    -0.348 OA
ATOM     11  C   UNL     1      -9.901  -0.445   2.508  0.00  0.00    +0.172 C 
ATOM     12  C   UNL     1     -10.970   0.550   2.044  0.00  0.00    +0.012 C 
ATOM     13  C   UNL     1     -10.751   0.854   0.557  0.00  0.00    +0.172 C 
ATOM     14  O   UNL     1      -9.405   1.298   0.367  0.00  0.00    -0.348 OA
ATOM     15  C   UNL     1     -10.853   1.844   2.853  0.00  0.00    +0.015 C 
ATOM     16  C   UNL     1     -12.359  -0.059   2.244  0.00  0.00    +0.015 C 
ATOM     17  H   UNL     1      -3.780  -0.592   0.247  0.00  0.00    +0.156 HD
ENDROOT
BRANCH   1  23
ATOM     18  C   UNL     1      -1.579  -1.933  -0.362  0.00  0.00    +0.142 A 
ATOM     19  C   UNL     1      -0.535  -2.615  -0.965  0.00  0.00    +0.050 A 
ATOM     20  C   UNL     1      -0.787  -3.476  -2.017  0.00  0.00    +0.042 A 
ATOM     21  C   UNL     1      -2.082  -3.659  -2.470  0.00  0.00    +0.125 A 
ATOM     22  C   UNL     1      -3.130  -2.980  -1.873  0.00  0.00    +0.065 A 
ATOM     23  C   UNL     1      -2.883  -2.120  -0.813  0.00  0.00    +0.080 A 
ATOM     24  F   UNL     1      -2.324  -4.501  -3.499  0.00  0.00    -0.205 F 
BRANCH  18  25
ATOM     25  O   UNL     1      -1.331  -1.085   0.673  0.00  0.00    -0.488 OA
BRANCH  25  27
ATOM     26  C   UNL     1       0.213   0.409   1.779  0.00  0.00    +0.051 C 
ATOM     27  C   UNL     1       0.030  -0.941   1.082  0.00  0.00    +0.167 C 
ATOM     28  C   UNL     1       0.395  -2.068   2.050  0.00  0.00    +0.051 C 
ENDBRANCH  25  27
ENDBRANCH  18  25
ENDBRANCH   1  23
TORSDOF 3
