REMARK  Name = ZINC64101170
REMARK  9 active torsions:
REMARK  status: ('A' for Active; 'I' for Inactive)
REMARK    1  A    between atoms: C_1  and  C_2
REMARK    2  A    between atoms: C_2  and  S_3
REMARK    3  A    between atoms: S_3  and  C_6
REMARK    4  A    between atoms: C_9  and  C_12
REMARK    5  A    between atoms: C_14  and  C_15
REMARK    6  A    between atoms: C_14  and  C_17
REMARK    7  A    between atoms: N_19  and  C_20
REMARK    8  A    between atoms: C_22  and  C_27
REMARK    9  A    between atoms: C_25  and  C_26
REMARK                            x       y       z     vdW  Elec       q    Type
REMARK                         _______ _______ _______ _____ _____    ______ ____
ROOT
ATOM      1  C   UNL     1       0.620  -6.578  -0.945  0.00  0.00    +0.208 C 
ATOM      2  O   UNL     1       1.675  -7.251  -0.440  0.00  0.00    -0.286 OA
ATOM      3  C   UNL     1      -0.465  -7.274  -1.460  0.00  0.00    +0.161 C 
ENDROOT
BRANCH   1   7
ATOM      4  C   UNL     1       0.619  -2.335  -0.956  0.00  0.00    +0.088 A 
ATOM      5  C   UNL     1       1.662  -3.025  -1.549  0.00  0.00    +0.027 A 
ATOM      6  C   UNL     1       1.670  -4.404  -1.549  0.00  0.00    +0.013 A 
ATOM      7  C   UNL     1       0.620  -5.105  -0.948  0.00  0.00    +0.023 A 
ATOM      8  C   UNL     1      -0.430  -4.401  -0.351  0.00  0.00    +0.013 A 
ATOM      9  C   UNL     1      -0.421  -3.022  -0.355  0.00  0.00    +0.027 A 
BRANCH   4  10
ATOM     10  S   UNL     1       0.619  -0.573  -0.961  0.00  0.00    -0.003 S 
ATOM     11  O   UNL     1      -0.752  -0.210  -0.867  0.00  0.00    -0.169 OA
ATOM     12  O   UNL     1       1.387  -0.213  -2.100  0.00  0.00    -0.169 OA
BRANCH  10  14
ATOM     13  C   UNL     1       1.555   1.423   0.659  0.00  0.00    +0.028 C 
ATOM     14  C   UNL     1       1.494  -0.103   0.557  0.00  0.00    +0.168 C 
ENDBRANCH  10  14
ENDBRANCH   4  10
ENDBRANCH   1   7
BRANCH   3  15
ATOM     15  C   UNL     1      -1.545  -6.549  -2.139  0.00  0.00    +0.262 C 
ATOM     16  O   UNL     1      -1.469  -5.344  -2.289  0.00  0.00    -0.269 OA
ATOM     17  N   UNL     1      -2.622  -7.219  -2.596  0.00  0.00    -0.281 N 
ATOM     18  H   UNL     1      -2.650  -8.187  -2.543  0.00  0.00    +0.155 HD
BRANCH  17  19
ATOM     19  C   UNL     1      -3.700  -6.517  -3.146  0.00  0.00    +0.037 A 
ATOM     20  C   UNL     1      -3.864  -5.166  -2.871  0.00  0.00    +0.027 A 
ATOM     21  C   UNL     1      -4.929  -4.476  -3.416  0.00  0.00    -0.049 A 
ATOM     22  C   UNL     1      -5.832  -5.130  -4.235  0.00  0.00    +0.004 A 
ATOM     23  C   UNL     1      -5.671  -6.475  -4.511  0.00  0.00    +0.005 A 
ATOM     24  C   UNL     1      -4.604  -7.169  -3.974  0.00  0.00    -0.029 A 
ATOM     25  C   UNL     1      -4.427  -8.634  -4.280  0.00  0.00    +0.045 C 
ATOM     26  C   UNL     1      -5.108  -3.010  -3.118  0.00  0.00    +0.044 C 
ENDBRANCH  17  19
ENDBRANCH   3  15
BRANCH   3  27
ATOM     27  C   UNL     1      -0.530  -8.698  -1.329  0.00  0.00    +0.108 C 
ATOM     28  N   UNL     1      -0.582  -9.828  -1.226  0.00  0.00    -0.191 NA
ENDBRANCH   3  27
TORSDOF 6
