REMARK  Name = ZINC12302152
REMARK  6 active torsions:
REMARK  status: ('A' for Active; 'I' for Inactive)
REMARK    1  A    between atoms: C_1  and  N_2
REMARK    2  A    between atoms: N_2  and  C_3
REMARK    3  A    between atoms: C_3  and  C_4
REMARK    4  A    between atoms: C_14  and  C_16
REMARK    5  A    between atoms: C_16  and  C_17
REMARK    6  A    between atoms: C_24  and  N_62
REMARK                            x       y       z     vdW  Elec       q    Type
REMARK                         _______ _______ _______ _____ _____    ______ ____
ROOT
ATOM      1  C   UNL     1      -5.074   3.944  -3.507  0.00  0.00    +0.028 C 
ATOM      2  C   UNL     1      -5.296   4.306  -4.949  0.00  0.00    +0.200 C 
ATOM      3  O   UNL     1      -5.075   5.444  -5.303  0.00  0.00    -0.278 OA
ATOM      4  N   UNL     1      -5.728   3.424  -5.857  0.00  0.00    -0.318 N 
ATOM      5  C   UNL     1      -5.989   2.023  -5.542  0.00  0.00    +0.085 C 
ATOM      6  C   UNL     1      -6.139   1.845  -4.030  0.00  0.00    -0.058 C 
ATOM      7  H   UNL     1      -5.875   3.730  -6.766  0.00  0.00    +0.149 HD
ATOM      8  N   UNL     1      -4.976   2.478  -3.377  0.00  0.00    +0.391 N 
ATOM      9  H   UNL     1      -4.116   2.157  -3.838  0.00  0.00    -0.080 HD
ENDROOT
BRANCH   8  10
ATOM     10  C   UNL     1      -4.927   2.099  -1.947  0.00  0.00    -0.059 C 
ATOM     11  C   UNL     1      -3.488   2.242  -1.407  0.00  0.00    +0.020 C 
ATOM     12  C   UNL     1      -3.321   1.097  -0.426  0.00  0.00    -0.046 A 
ATOM     13  C   UNL     1      -2.382   0.903   0.574  0.00  0.00    +0.004 A 
ATOM     14  C   UNL     1      -2.426  -0.232   1.359  0.00  0.00    +0.000 A 
ATOM     15  C   UNL     1      -3.412  -1.179   1.147  0.00  0.00    +0.000 A 
ATOM     16  C   UNL     1      -4.349  -0.987   0.152  0.00  0.00    +0.004 A 
ATOM     17  C   UNL     1      -4.306   0.151  -0.637  0.00  0.00    -0.046 A 
ATOM     18  C   UNL     1      -5.202   0.590  -1.775  0.00  0.00    +0.020 C 
ENDBRANCH   8  10
BRANCH   1  19
ATOM     19  C   UNL     1      -3.767   4.575  -3.022  0.00  0.00    +0.090 C 
BRANCH  19  22
ATOM     20  C   UNL     1      -1.119   5.489  -2.580  0.00  0.00    +0.132 C 
ATOM     21  N   UNL     1      -1.365   4.466  -3.600  0.00  0.00    -0.299 N 
ATOM     22  C   UNL     1      -2.610   3.983  -3.784  0.00  0.00    +0.215 C 
ATOM     23  O   UNL     1      -2.799   3.073  -4.562  0.00  0.00    -0.276 OA
BRANCH  21  24
ATOM     24  C   UNL     1      -0.258   3.967  -4.419  0.00  0.00    +0.164 C 
BRANCH  24  25
ATOM     25  C   UNL     1      -0.056   4.881  -5.601  0.00  0.00    +0.083 A 
ATOM     26  C   UNL     1       0.709   6.045  -5.613  0.00  0.00    -0.002 A 
ATOM     27  C   UNL     1       0.637   6.580  -6.859  0.00  0.00    +0.040 A 
ATOM     28  N   UNL     1      -0.147   5.784  -7.604  0.00  0.00    -0.281 N 
ATOM     29  H   UNL     1      -0.382   5.923  -8.566  0.00  0.00    +0.189 HD
ATOM     30  N   UNL     1      -0.576   4.723  -6.793  0.00  0.00    -0.177 NA
ATOM     31  C   UNL     1       1.336   7.850  -7.276  0.00  0.00    +0.055 C 
ATOM     32  C   UNL     1       1.754   8.609  -6.010  0.00  0.00    +0.006 C 
ATOM     33  C   UNL     1       2.491   7.659  -5.063  0.00  0.00    +0.005 C 
ATOM     34  C   UNL     1       1.499   6.646  -4.478  0.00  0.00    +0.039 C 
ENDBRANCH  24  25
ENDBRANCH  21  24
ENDBRANCH  19  22
ENDBRANCH   1  19
TORSDOF 5
