REMARK  Name = ZINC27748356
REMARK  5 active torsions:
REMARK  status: ('A' for Active; 'I' for Inactive)
REMARK    1  A    between atoms: C_1  and  C_2
REMARK    2  A    between atoms: C_4  and  C_27
REMARK    3  A    between atoms: C_9  and  C_13
REMARK    4  A    between atoms: N_15  and  C_16
REMARK    5  A    between atoms: C_23  and  C_26
REMARK                            x       y       z     vdW  Elec       q    Type
REMARK                         _______ _______ _______ _____ _____    ______ ____
ROOT
ATOM      1  C   UNL     1      -1.456   1.526   5.730  0.00  0.00    +0.286 C 
ATOM      2  O   UNL     1      -0.483   1.267   6.410  0.00  0.00    -0.266 OA
ATOM      3  N   UNL     1      -1.341   1.605   4.389  0.00  0.00    -0.247 N 
ATOM      4  H   UNL     1      -2.222   1.840   3.774  0.00  0.00    +0.158 HD
ENDROOT
BRANCH   1  13
ATOM      5  C   UNL     1      -8.522   3.097   4.828  0.00  0.00    +0.044 C 
ATOM      6  C   UNL     1      -7.378   2.781   5.756  0.00  0.00    -0.047 A 
ATOM      7  C   UNL     1      -7.601   2.722   7.125  0.00  0.00    +0.007 A 
ATOM      8  C   UNL     1      -6.574   2.437   7.981  0.00  0.00    -0.036 A 
ATOM      9  C   UNL     1      -5.296   2.205   7.474  0.00  0.00    +0.067 A 
ATOM     10  C   UNL     1      -4.161   1.895   8.365  0.00  0.00    +0.193 A 
ATOM     11  O   UNL     1      -4.298   1.831   9.574  0.00  0.00    -0.287 OA
ATOM     12  C   UNL     1      -2.858   1.668   7.724  0.00  0.00    +0.103 A 
ATOM     13  C   UNL     1      -2.770   1.755   6.374  0.00  0.00    +0.194 A 
ATOM     14  O   UNL     1      -3.826   2.044   5.600  0.00  0.00    -0.450 OA
ATOM     15  C   UNL     1      -5.062   2.263   6.089  0.00  0.00    +0.140 A 
ATOM     16  C   UNL     1      -6.122   2.554   5.237  0.00  0.00    +0.050 A 
ATOM     17  C   UNL     1      -6.822   2.375   9.467  0.00  0.00    +0.044 C 
ENDBRANCH   1  13
BRANCH   3  18
ATOM     18  C   UNL     1      -0.112   1.391   3.787  0.00  0.00    +0.228 A 
ATOM     19  C   UNL     1       0.166   1.435   2.466  0.00  0.00    +0.037 A 
ATOM     20  C   UNL     1       1.548   1.151   2.384  0.00  0.00    +0.089 A 
ATOM     21  N   UNL     1       1.958   0.969   3.597  0.00  0.00    -0.081 NA
ATOM     22  O   UNL     1       1.054   1.097   4.398  0.00  0.00    -0.339 OA
ATOM     23  C   UNL     1       2.302   1.098   1.082  0.00  0.00    +0.059 C 
ATOM     24  C   UNL     1       1.452   1.792   0.009  0.00  0.00    +0.010 C 
ATOM     25  C   UNL     1       0.030   1.226   0.021  0.00  0.00    -0.009 C 
ATOM     26  C   UNL     1      -0.710   1.706   1.278  0.00  0.00    +0.045 C 
ATOM     27  C   UNL     1      -0.719   1.706  -1.224  0.00  0.00    +0.008 C 
ENDBRANCH   3  18
TORSDOF 2
