REMARK  Name = ZINC63800202
REMARK  7 active torsions:
REMARK  status: ('A' for Active; 'I' for Inactive)
REMARK    1  A    between atoms: C_1  and  C_2
REMARK    2  A    between atoms: C_2  and  N_3
REMARK    3  A    between atoms: C_5  and  C_15
REMARK    4  A    between atoms: C_11  and  C_14
REMARK    5  A    between atoms: N_17  and  C_18
REMARK    6  A    between atoms: C_18  and  C_19
REMARK    7  A    between atoms: C_19  and  C_20
REMARK                            x       y       z     vdW  Elec       q    Type
REMARK                         _______ _______ _______ _____ _____    ______ ____
ROOT
ATOM      1  C   UNL     1       3.632  -2.749   1.398  0.00  0.00    +0.245 C 
ATOM      2  O   UNL     1       3.905  -3.811   1.928  0.00  0.00    -0.270 OA
ATOM      3  N   UNL     1       4.419  -2.263   0.417  0.00  0.00    -0.311 N 
ATOM      4  H   UNL     1       4.202  -1.417  -0.004  0.00  0.00    +0.149 HD
ENDROOT
BRANCH   1   7
ATOM      5  N   UNL     1       0.711  -0.489   1.189  0.00  0.00    -0.312 N 
ATOM      6  C   UNL     1       2.161  -0.713   1.154  0.00  0.00    +0.150 C 
ATOM      7  C   UNL     1       2.494  -2.026   1.812  0.00  0.00    +0.079 C 
ATOM      8  C   UNL     1       1.700  -2.522   2.805  0.00  0.00    +0.199 C 
ATOM      9  O   UNL     1       2.010  -3.690   3.411  0.00  0.00    -0.287 OA
ATOM     10  C   UNL     1       0.503  -1.767   3.208  0.00  0.00    +0.060 A 
ATOM     11  C   UNL     1       0.025  -0.740   2.367  0.00  0.00    +0.110 A 
ATOM     12  N   UNL     1      -1.048  -0.047   2.701  0.00  0.00    -0.346 N 
ATOM     13  C   UNL     1      -1.698  -0.283   3.826  0.00  0.00    +0.014 A 
ATOM     14  C   UNL     1      -1.286  -1.268   4.706  0.00  0.00    +0.021 A 
ATOM     15  C   UNL     1      -0.167  -2.039   4.400  0.00  0.00    +0.017 A 
ATOM     16  C   UNL     1      -2.917   0.539   4.159  0.00  0.00    +0.063 C 
ATOM     17  H   UNL     1      -1.366   0.651   2.108  0.00  0.00    +0.167 HD
BRANCH   5  19
ATOM     18  C   UNL     1      -0.019   1.526   0.010  0.00  0.00    +0.024 C 
ATOM     19  C   UNL     1       0.002  -0.004   0.002  0.00  0.00    +0.103 C 
ENDBRANCH   5  19
ENDBRANCH   1   7
BRANCH   3  20
ATOM     20  C   UNL     1       5.602  -3.013  -0.012  0.00  0.00    +0.109 C 
BRANCH  20  21
ATOM     21  C   UNL     1       6.313  -2.248  -1.130  0.00  0.00    +0.052 C 
BRANCH  21  22
ATOM     22  C   UNL     1       7.529  -3.020  -1.572  0.00  0.00    -0.040 C 
ATOM     23  C   UNL     1       7.612  -3.883  -2.610  0.00  0.00    -0.001 A 
ATOM     24  C   UNL     1       6.631  -4.345  -3.600  0.00  0.00    +0.010 A 
ATOM     25  C   UNL     1       7.019  -5.235  -4.541  0.00  0.00    +0.001 A 
ATOM     26  C   UNL     1       8.330  -5.727  -4.595  0.00  0.00    +0.002 A 
ATOM     27  C   UNL     1       9.287  -5.350  -3.720  0.00  0.00    +0.026 A 
ATOM     28  C   UNL     1       8.990  -4.417  -2.689  0.00  0.00    +0.043 A 
ATOM     29  N   UNL     1       9.731  -3.904  -1.736  0.00  0.00    -0.380 N 
ATOM     30  C   UNL     1       8.907  -2.981  -0.949  0.00  0.00    +0.144 C 
ATOM     31  H   UNL     1      10.668  -4.099  -1.581  0.00  0.00    +0.160 HD
ENDBRANCH  21  22
ENDBRANCH  20  21
ENDBRANCH   3  20
TORSDOF 5
