REMARK  Name = ZINC67613787
REMARK  5 active torsions:
REMARK  status: ('A' for Active; 'I' for Inactive)
REMARK    1  A    between atoms: C_9  and  N_14
REMARK    2  A    between atoms: N_17  and  C_18
REMARK    3  A    between atoms: C_18  and  C_19
REMARK    4  A    between atoms: N_24  and  C_25
REMARK    5  A    between atoms: C_25  and  C_26
REMARK                            x       y       z     vdW  Elec       q    Type
REMARK                         _______ _______ _______ _____ _____    ______ ____
ROOT
ATOM      1  N   UNL     1      -2.256  -0.033  -0.874  0.00  0.00    -0.293 N 
ATOM      2  C   UNL     1      -2.960   1.031  -0.438  0.00  0.00    +0.300 C 
ATOM      3  O   UNL     1      -2.822   1.424   0.705  0.00  0.00    -0.253 OA
ATOM      4  N   UNL     1      -3.816   1.659  -1.268  0.00  0.00    -0.301 N 
ATOM      5  H   UNL     1      -2.366  -0.346  -1.785  0.00  0.00    +0.151 HD
ATOM      6  H   UNL     1      -3.926   1.345  -2.179  0.00  0.00    +0.150 HD
ENDROOT
BRANCH   1  15
ATOM      7  C   UNL     1      -0.017   1.405   0.010  0.00  0.00    +0.012 A 
ATOM      8  C   UNL     1       1.153   2.100   0.002  0.00  0.00    +0.070 A 
ATOM      9  C   UNL     1       2.366   1.391  -0.011  0.00  0.00    +0.249 A 
ATOM     10  O   UNL     1       3.428   1.993  -0.013  0.00  0.00    -0.268 OA
ATOM     11  N   UNL     1       2.353   0.048  -0.022  0.00  0.00    -0.326 N 
ATOM     12  H   UNL     1       3.195  -0.433  -0.031  0.00  0.00    +0.169 HD
ATOM     13  C   UNL     1       1.182  -0.655  -0.020  0.00  0.00    +0.024 A 
ATOM     14  C   UNL     1       0.002  -0.004   0.002  0.00  0.00    -0.008 A 
ATOM     15  C   UNL     1      -1.326  -0.715   0.029  0.00  0.00    +0.106 C 
ATOM     16  C   UNL     1      -1.170  -2.168  -0.416  0.00  0.00    +0.027 C 
ATOM     17  C   UNL     1      -0.030  -2.798   0.395  0.00  0.00    +0.008 C 
ATOM     18  C   UNL     1       1.283  -2.159  -0.051  0.00  0.00    +0.054 C 
ENDBRANCH   1  15
BRANCH   4  19
ATOM     19  C   UNL     1      -4.581   2.815  -0.793  0.00  0.00    +0.090 C 
BRANCH  19  20
ATOM     20  C   UNL     1      -5.471   3.336  -1.924  0.00  0.00    -0.051 C 
ATOM     21  C   UNL     1      -6.403   4.444  -1.390  0.00  0.00    -0.016 C 
ATOM     22  C   UNL     1      -7.734   4.172  -2.138  0.00  0.00    -0.020 C 
ATOM     23  C   UNL     1      -7.742   2.624  -2.209  0.00  0.00    -0.078 C 
ATOM     24  N   UNL     1      -6.327   2.248  -2.431  0.00  0.00    +0.383 N 
ATOM     25  H   UNL     1      -6.119   1.394  -1.935  0.00  0.00    -0.081 HD
BRANCH  24  26
ATOM     26  C   UNL     1      -6.083   2.055  -3.867  0.00  0.00    -0.075 C 
BRANCH  26  27
ATOM     27  C   UNL     1      -6.878   0.846  -4.362  0.00  0.00    -0.028 C 
ATOM     28  C   UNL     1      -6.351  -0.422  -3.688  0.00  0.00    +0.002 C 
ATOM     29  C   UNL     1      -7.147  -1.631  -4.183  0.00  0.00    +0.000 C 
ATOM     30  C   UNL     1      -6.992  -1.758  -5.700  0.00  0.00    +0.000 C 
ATOM     31  C   UNL     1      -7.520  -0.489  -6.373  0.00  0.00    +0.000 C 
ATOM     32  C   UNL     1      -6.724   0.720  -5.879  0.00  0.00    +0.002 C 
ENDBRANCH  26  27
ENDBRANCH  24  26
ENDBRANCH  19  20
ENDBRANCH   4  19
TORSDOF 5
