REMARK  Name = ZINC65182426
REMARK  10 active torsions:
REMARK  status: ('A' for Active; 'I' for Inactive)
REMARK    1  A    between atoms: C_1  and  C_2
REMARK    2  A    between atoms: C_2  and  C_3
REMARK    3  A    between atoms: C_6  and  C_33
REMARK    4  A    between atoms: C_11  and  C_13
REMARK    5  A    between atoms: C_16  and  C_19
REMARK    6  A    between atoms: C_19  and  C_20
REMARK    7  A    between atoms: C_20  and  N_21
REMARK    8  A    between atoms: N_21  and  C_22
REMARK    9  A    between atoms: C_23  and  C_25
REMARK   10  A    between atoms: C_28  and  C_31
REMARK                            x       y       z     vdW  Elec       q    Type
REMARK                         _______ _______ _______ _____ _____    ______ ____
ROOT
ATOM      1  C   UNL     1      -0.573  -2.655  -1.778  0.00  0.00    +0.318 C 
ATOM      2  N   UNL     1      -0.291  -4.062  -2.104  0.00  0.00    -0.291 N 
ATOM      3  C   UNL     1      -0.821  -4.295  -3.352  0.00  0.00    +0.139 C 
ATOM      4  N   UNL     1      -1.381  -3.244  -3.829  0.00  0.00    -0.072 NA
ATOM      5  O   UNL     1      -1.283  -2.158  -2.923  0.00  0.00    -0.367 OA
ATOM      6  H   UNL     1       0.178  -4.702  -1.547  0.00  0.00    +0.151 HD
ENDROOT
BRANCH   1  15
ATOM      7  C   UNL     1       0.435  -0.456  -1.168  0.00  0.00    -0.033 C 
ATOM      8  C   UNL     1       0.966   0.332  -2.131  0.00  0.00    -0.000 A 
ATOM      9  C   UNL     1       1.017   1.788  -2.309  0.00  0.00    +0.013 A 
ATOM     10  C   UNL     1       1.634   2.293  -3.401  0.00  0.00    -0.050 A 
ATOM     11  C   UNL     1       2.223   1.464  -4.365  0.00  0.00    +0.005 A 
ATOM     12  C   UNL     1       2.217   0.118  -4.271  0.00  0.00    +0.026 A 
ATOM     13  C   UNL     1       1.597  -0.522  -3.163  0.00  0.00    +0.043 A 
ATOM     14  N   UNL     1       1.460  -1.788  -2.850  0.00  0.00    -0.373 N 
ATOM     15  C   UNL     1       0.732  -1.880  -1.580  0.00  0.00    +0.169 C 
ATOM     16  C   UNL     1       1.688   3.788  -3.587  0.00  0.00    +0.044 C 
ATOM     17  H   UNL     1       1.788  -2.538  -3.370  0.00  0.00    +0.160 HD
BRANCH   7  19
ATOM     18  C   UNL     1      -0.374   1.524   0.088  0.00  0.00    +0.008 C 
ATOM     19  C   UNL     1      -0.299  -0.004   0.069  0.00  0.00    +0.030 C 
ENDBRANCH   7  19
ENDBRANCH   1  15
BRANCH   3  20
ATOM     20  C   UNL     1      -0.754  -5.619  -4.068  0.00  0.00    +0.094 C 
BRANCH  20  21
ATOM     21  C   UNL     1      -1.448  -5.500  -5.426  0.00  0.00    +0.115 C 
BRANCH  21  22
ATOM     22  N   UNL     1      -1.381  -6.788  -6.122  0.00  0.00    -0.300 N 
ATOM     23  C   UNL     1      -2.448  -7.775  -5.939  0.00  0.00    +0.132 C 
ATOM     24  C   UNL     1      -0.340  -7.064  -6.932  0.00  0.00    +0.246 C 
ATOM     25  O   UNL     1       0.596  -6.291  -7.002  0.00  0.00    -0.270 OA
BRANCH  24  26
ATOM     26  C   UNL     1      -0.335  -8.306  -7.734  0.00  0.00    +0.037 A 
ATOM     27  C   UNL     1      -1.530  -8.802  -8.259  0.00  0.00    +0.014 A 
ATOM     28  C   UNL     1      -1.527  -9.959  -9.007  0.00  0.00    +0.019 A 
ATOM     29  C   UNL     1      -0.327 -10.636  -9.239  0.00  0.00    +0.052 A 
ATOM     30  C   UNL     1       0.868 -10.140  -8.714  0.00  0.00    +0.019 A 
ATOM     31  C   UNL     1       0.865  -8.980  -7.971  0.00  0.00    +0.014 A 
BRANCH  29  32
ATOM     32  C   UNL     1      -0.323 -11.839 -10.016  0.00  0.00    +0.099 C 
ATOM     33  N   UNL     1      -0.320 -12.794 -10.632  0.00  0.00    -0.191 NA
ENDBRANCH  29  32
ENDBRANCH  24  26
ENDBRANCH  21  22
ENDBRANCH  20  21
ENDBRANCH   3  20
TORSDOF 7
