REMARK  Name = ZINC02251380
REMARK  4 active torsions:
REMARK  status: ('A' for Active; 'I' for Inactive)
REMARK    1  A    between atoms: C_1  and  N_2
REMARK    2  A    between atoms: N_7  and  C_10
REMARK    3  A    between atoms: C_19  and  C_21
REMARK    4  A    between atoms: C_24  and  O_27
REMARK                            x       y       z     vdW  Elec       q    Type
REMARK                         _______ _______ _______ _____ _____    ______ ____
ROOT
ATOM      1  C   UNL     1      -6.762   3.582  -3.776  0.00  0.00    +0.157 C 
ATOM      2  N   UNL     1      -5.672   3.639  -2.798  0.00  0.00    -0.264 N 
ATOM      3  C   UNL     1      -5.004   2.521  -2.473  0.00  0.00    +0.265 A 
ATOM      4  O   UNL     1      -5.309   1.463  -2.995  0.00  0.00    -0.267 OA
ATOM      5  C   UNL     1      -3.946   2.559  -1.528  0.00  0.00    +0.102 A 
ATOM      6  C   UNL     1      -3.639   3.743  -0.956  0.00  0.00    +0.216 A 
ATOM      7  N   UNL     1      -4.350   4.873  -1.327  0.00  0.00    -0.267 N 
ATOM      8  C   UNL     1      -5.340   4.812  -2.228  0.00  0.00    +0.334 A 
ATOM      9  O   UNL     1      -5.944   5.823  -2.531  0.00  0.00    -0.246 OA
ATOM     10  C   UNL     1      -4.012   6.163  -0.721  0.00  0.00    +0.157 C 
ATOM     11  O   UNL     1      -2.687   3.940  -0.035  0.00  0.00    -0.437 OA
ATOM     12  C   UNL     1      -1.429   3.462  -0.151  0.00  0.00    +0.151 A 
ATOM     13  C   UNL     1      -0.336   4.301  -0.271  0.00  0.00    +0.048 A 
ATOM     14  C   UNL     1       0.938   3.759  -0.314  0.00  0.00    +0.004 A 
ATOM     15  C   UNL     1       1.116   2.391  -0.226  0.00  0.00    +0.002 A 
ATOM     16  C   UNL     1       0.023   1.549  -0.117  0.00  0.00    +0.026 A 
ATOM     17  C   UNL     1      -1.255   2.088  -0.109  0.00  0.00    +0.071 A 
ATOM     18  N   UNL     1      -2.381   1.265  -0.113  0.00  0.00    -0.330 N 
ATOM     19  C   UNL     1      -3.267   1.241  -1.263  0.00  0.00    +0.142 C 
ATOM     20  H   UNL     1      -2.573   0.703   0.654  0.00  0.00    +0.147 HD
ENDROOT
BRANCH  19  21
ATOM     21  C   UNL     1      -2.467   0.858  -2.481  0.00  0.00    -0.022 A 
ATOM     22  C   UNL     1      -2.786  -0.289  -3.183  0.00  0.00    +0.009 A 
ATOM     23  C   UNL     1      -2.057  -0.640  -4.303  0.00  0.00    +0.046 A 
ATOM     24  C   UNL     1      -0.998   0.155  -4.717  0.00  0.00    +0.117 A 
ATOM     25  C   UNL     1      -0.676   1.302  -4.007  0.00  0.00    +0.046 A 
ATOM     26  C   UNL     1      -1.411   1.652  -2.891  0.00  0.00    +0.009 A 
BRANCH  24  27
ATOM     27  O   UNL     1      -0.277  -0.191  -5.816  0.00  0.00    -0.507 OA
ATOM     28  H   UNL     1       0.482  -0.759  -5.625  0.00  0.00    +0.292 HD
ENDBRANCH  24  27
ENDBRANCH  19  21
TORSDOF 2
