REMARK  Name = ZINC23381132
REMARK  7 active torsions:
REMARK  status: ('A' for Active; 'I' for Inactive)
REMARK    1  A    between atoms: C_1  and  N_2
REMARK    2  A    between atoms: N_2  and  C_3
REMARK    3  A    between atoms: N_2  and  C_4
REMARK    4  A    between atoms: C_4  and  C_10
REMARK    5  A    between atoms: C_10  and  N_11
REMARK    6  A    between atoms: C_19  and  C_21
REMARK    7  A    between atoms: C_21  and  N_22
REMARK                            x       y       z     vdW  Elec       q    Type
REMARK                         _______ _______ _______ _____ _____    ______ ____
ROOT
ATOM      1  N   UNL     1      -0.037   1.555   0.414  0.00  0.00    -0.330 N 
ATOM      2  C   UNL     1      -0.156   0.177   0.406  0.00  0.00    +0.131 A 
ATOM      3  C   UNL     1       1.000  -0.647   0.323  0.00  0.00    +0.051 A 
ATOM      4  C   UNL     1       2.412  -0.238   0.250  0.00  0.00    -0.025 A 
ATOM      5  C   UNL     1       3.326  -1.220   0.190  0.00  0.00    -0.004 A 
ATOM      6  S   UNL     1       2.387  -2.730   0.229  0.00  0.00    -0.073 S 
ATOM      7  C   UNL     1       0.760  -2.033   0.329  0.00  0.00    +0.114 A 
ATOM      8  N   UNL     1      -0.464  -2.521   0.394  0.00  0.00    -0.223 NA
ATOM      9  C   UNL     1      -1.500  -1.707   0.462  0.00  0.00    +0.146 A 
ATOM     10  N   UNL     1      -1.348  -0.395   0.468  0.00  0.00    -0.216 NA
ATOM     11  C   UNL     1       4.731  -0.685   0.117  0.00  0.00    +0.043 C 
ATOM     12  C   UNL     1       4.610   0.785   0.577  0.00  0.00    +0.010 C 
ATOM     13  C   UNL     1       3.146   1.105   0.218  0.00  0.00    +0.037 C 
ATOM     14  H   UNL     1       0.959   2.021   0.367  0.00  0.00    +0.147 HD
ENDROOT
BRANCH   1  15
ATOM     15  C   UNL     1      -1.236   2.394   0.487  0.00  0.00    +0.091 C 
BRANCH  15  16
ATOM     16  C   UNL     1      -0.842   3.862   0.319  0.00  0.00    -0.050 C 
ATOM     17  C   UNL     1       0.246   4.218   1.334  0.00  0.00    -0.010 C 
ATOM     18  C   UNL     1      -0.285   3.992   2.751  0.00  0.00    -0.001 C 
ATOM     19  C   UNL     1      -1.510   4.878   2.984  0.00  0.00    -0.000 C 
ATOM     20  C   UNL     1      -2.598   4.522   1.969  0.00  0.00    -0.001 C 
ATOM     21  C   UNL     1      -2.067   4.749   0.552  0.00  0.00    -0.010 C 
BRANCH  16  23
ATOM     22  C   UNL     1       0.900   3.313  -1.271  0.00  0.00    -0.096 C 
ATOM     23  N   UNL     1      -0.332   4.080  -1.042  0.00  0.00    +0.381 N 
ATOM     24  C   UNL     1      -1.352   3.750  -2.045  0.00  0.00    -0.096 C 
ATOM     25  H   UNL     1      -0.089   5.148  -1.145  0.00  0.00    -0.082 HD
ENDBRANCH  16  23
ENDBRANCH  15  16
ENDBRANCH   1  15
BRANCH   9  26
ATOM     26  C   UNL     1      -2.889  -2.288   0.536  0.00  0.00    +0.160 C 
BRANCH  26  27
ATOM     27  N   UNL     1      -3.419  -2.462  -0.823  0.00  0.00    -0.291 NA
ATOM     28  C   UNL     1      -3.625  -1.161  -1.478  0.00  0.00    +0.113 C 
ATOM     29  C   UNL     1      -4.121  -1.390  -2.908  0.00  0.00    +0.175 C 
ATOM     30  O   UNL     1      -5.317  -2.174  -2.874  0.00  0.00    -0.377 OA
ATOM     31  C   UNL     1      -5.152  -3.447  -2.243  0.00  0.00    +0.175 C 
ATOM     32  C   UNL     1      -4.667  -3.240  -0.806  0.00  0.00    +0.113 C 
ENDBRANCH  26  27
ENDBRANCH   9  26
TORSDOF 5
