REMARK  Name = ZINC42439112
REMARK  4 active torsions:
REMARK  status: ('A' for Active; 'I' for Inactive)
REMARK    1  A    between atoms: C_1  and  C_2
REMARK    2  A    between atoms: C_6  and  C_20
REMARK    3  A    between atoms: C_10  and  C_12
REMARK    4  A    between atoms: C_17  and  O_18
REMARK                            x       y       z     vdW  Elec       q    Type
REMARK                         _______ _______ _______ _____ _____    ______ ____
ROOT
ATOM      1  C   UNL     1       0.034   1.563   0.011  0.00  0.00    +0.028 C 
ATOM      2  C   UNL     1       0.026   0.033   0.001  0.00  0.00    +0.073 C 
ATOM      3  C   UNL     1      -1.420  -0.473   0.016  0.00  0.00    +0.023 C 
ATOM      4  C   UNL     1      -2.081  -0.076   1.339  0.00  0.00    +0.016 C 
ATOM      5  C   UNL     1      -1.330  -0.727   2.502  0.00  0.00    +0.092 C 
ATOM      6  C   UNL     1       0.117  -0.224   2.515  0.00  0.00    +0.121 C 
ATOM      7  N   UNL     1       0.719  -0.472   1.194  0.00  0.00    -0.294 N 
ATOM      8  C   UNL     1       1.879  -1.149   1.080  0.00  0.00    +0.250 C 
ATOM      9  O   UNL     1       2.307  -1.439  -0.020  0.00  0.00    -0.270 OA
ENDROOT
BRANCH   8  10
ATOM     10  C   UNL     1       2.628  -1.537   2.290  0.00  0.00    +0.080 A 
ATOM     11  C   UNL     1       2.974  -0.574   3.241  0.00  0.00    +0.036 A 
ATOM     12  C   UNL     1       3.675  -0.944   4.370  0.00  0.00    +0.042 A 
ATOM     13  C   UNL     1       4.038  -2.268   4.564  0.00  0.00    +0.023 A 
ATOM     14  C   UNL     1       3.703  -3.228   3.631  0.00  0.00    +0.047 A 
ATOM     15  C   UNL     1       2.993  -2.875   2.493  0.00  0.00    +0.129 A 
ATOM     16 CL   UNL     1       4.104   0.253   5.551  0.00  0.00    -0.084 Cl
BRANCH  15  17
ATOM     17  O   UNL     1       2.658  -3.819   1.579  0.00  0.00    -0.506 OA
ATOM     18  H   UNL     1       3.321  -3.950   0.887  0.00  0.00    +0.292 HD
ENDBRANCH  15  17
ENDBRANCH   8  10
BRANCH   5  19
ATOM     19  C   UNL     1      -2.001  -0.363   3.801  0.00  0.00    +0.215 C 
ATOM     20  O   UNL     1      -2.984   0.347   3.797  0.00  0.00    -0.276 OA
ATOM     21  N   UNL     1      -1.509  -0.826   4.967  0.00  0.00    -0.329 N 
ATOM     22  H   UNL     1      -0.723  -1.394   4.970  0.00  0.00    +0.145 HD
ATOM     23  H   UNL     1      -1.941  -0.592   5.803  0.00  0.00    +0.145 HD
ENDBRANCH   5  19
TORSDOF 3
