REMARK  Name = ZINC56055492
REMARK  6 active torsions:
REMARK  status: ('A' for Active; 'I' for Inactive)
REMARK    1  A    between atoms: C_1  and  C_2
REMARK    2  A    between atoms: C_2  and  O_3
REMARK    3  A    between atoms: O_3  and  C_4
REMARK    4  A    between atoms: C_4  and  C_6
REMARK    5  A    between atoms: C_8  and  C_14
REMARK    6  A    between atoms: C_22  and  C_24
REMARK                            x       y       z     vdW  Elec       q    Type
REMARK                         _______ _______ _______ _____ _____    ______ ____
ROOT
ATOM      1  C   UNL     1       1.650  -2.720   2.116  0.00  0.00    +0.148 C 
ATOM      2  C   UNL     1       1.519  -4.026   2.648  0.00  0.00    +0.049 C 
ATOM      3  C   UNL     1       1.966  -4.232   4.084  0.00  0.00    +0.138 C 
ATOM      4  N   UNL     1       2.493  -3.044   4.779  0.00  0.00    -0.314 N 
ATOM      5  C   UNL     1       2.544  -1.877   4.111  0.00  0.00    +0.155 C 
ATOM      6  S   UNL     1       3.156  -0.499   4.920  0.00  0.00    -0.017 S 
ATOM      7  N   UNL     1       2.144  -1.746   2.847  0.00  0.00    -0.186 NA
ATOM      8  C   UNL     1       1.018  -5.043   1.911  0.00  0.00    +0.160 C 
ATOM      9  O   UNL     1       0.475  -4.796   0.703  0.00  0.00    -0.293 OA
ATOM     10  C   UNL     1       1.066  -6.453   2.440  0.00  0.00    +0.091 C 
ATOM     11  H   UNL     1       2.797  -3.103   5.699  0.00  0.00    +0.149 HD
ENDROOT
BRANCH   3  12
ATOM     12  C   UNL     1       0.789  -4.747   4.872  0.00  0.00    -0.020 A 
ATOM     13  C   UNL     1       0.831  -6.012   5.429  0.00  0.00    +0.026 A 
ATOM     14  C   UNL     1      -0.249  -6.486   6.152  0.00  0.00    +0.043 A 
ATOM     15  C   UNL     1      -1.371  -5.694   6.317  0.00  0.00    +0.040 A 
ATOM     16  C   UNL     1      -1.413  -4.429   5.760  0.00  0.00    +0.043 A 
ATOM     17  C   UNL     1      -0.330  -3.954   5.041  0.00  0.00    +0.026 A 
ATOM     18 CL   UNL     1      -2.821  -3.435   5.967  0.00  0.00    -0.083 Cl
ATOM     19 CL   UNL     1      -0.196  -8.074   6.851  0.00  0.00    -0.083 Cl
ENDBRANCH   3  12
BRANCH   1  20
ATOM     20  C   UNL     1       1.231  -2.450   0.715  0.00  0.00    +0.356 C 
ATOM     21  O   UNL     1       1.985  -2.699  -0.203  0.00  0.00    -0.243 OA
BRANCH  20  22
ATOM     22  O   UNL     1       0.015  -1.929   0.465  0.00  0.00    -0.461 OA
BRANCH  22  24
ATOM     23  C   UNL     1      -1.731  -1.106  -0.990  0.00  0.00    +0.048 C 
ATOM     24  C   UNL     1      -0.322  -1.696  -0.904  0.00  0.00    +0.229 C 
ENDBRANCH  22  24
ENDBRANCH  20  22
ENDBRANCH   1  20
TORSDOF 4
