REMARK  Name = ZINC05485759
REMARK  7 active torsions:
REMARK  status: ('A' for Active; 'I' for Inactive)
REMARK    1  A    between atoms: C_1  and  C_2
REMARK    2  A    between atoms: C_2  and  C_3
REMARK    3  A    between atoms: C_2  and  N_4
REMARK    4  A    between atoms: C_5  and  C_7
REMARK    5  A    between atoms: C_7  and  C_9
REMARK    6  A    between atoms: C_7  and  N_16
REMARK    7  A    between atoms: C_9  and  C_10
REMARK                            x       y       z     vdW  Elec       q    Type
REMARK                         _______ _______ _______ _____ _____    ______ ____
ROOT
ATOM      1  N   UNL     1      -3.608   1.789   0.029  0.00  0.00    -0.287 N 
ATOM      2  C   UNL     1      -4.056   2.292   1.196  0.00  0.00    +0.309 C 
ATOM      3  O   UNL     1      -3.525   1.968   2.241  0.00  0.00    -0.252 OA
ATOM      4  N   UNL     1      -5.092   3.154   1.206  0.00  0.00    -0.224 N 
ATOM      5  C   UNL     1      -5.673   3.771   2.403  0.00  0.00    +0.140 C 
ATOM      6  C   UNL     1      -6.811   4.656   1.866  0.00  0.00    +0.144 C 
ATOM      7  N   UNL     1      -6.776   4.464   0.410  0.00  0.00    -0.310 N 
ATOM      8  C   UNL     1      -5.775   3.603   0.085  0.00  0.00    +0.207 A 
ATOM      9  N   UNL     1      -5.756   3.433  -1.224  0.00  0.00    -0.214 NA
ATOM     10  C   UNL     1      -6.732   4.179  -1.800  0.00  0.00    +0.091 A 
ATOM     11  C   UNL     1      -7.401   4.851  -0.765  0.00  0.00    +0.070 A 
ATOM     12  C   UNL     1      -8.459   5.698  -1.057  0.00  0.00    +0.028 A 
ATOM     13  C   UNL     1      -8.852   5.877  -2.368  0.00  0.00    +0.002 A 
ATOM     14  C   UNL     1      -8.195   5.216  -3.395  0.00  0.00    +0.002 A 
ATOM     15  C   UNL     1      -7.142   4.372  -3.122  0.00  0.00    +0.030 A 
ATOM     16  H   UNL     1      -4.032   2.048  -0.805  0.00  0.00    +0.151 HD
ENDROOT
BRANCH   1  17
ATOM     17  C   UNL     1      -2.482   0.853   0.018  0.00  0.00    +0.165 C 
BRANCH  17  19
ATOM     18  N   UNL     1      -0.011   0.966   0.007  0.00  0.00    -0.311 N 
ATOM     19  C   UNL     1      -1.187   1.624   0.017  0.00  0.00    +0.234 C 
ATOM     20  O   UNL     1      -1.204   2.837   0.023  0.00  0.00    -0.274 OA
ATOM     21  H   UNL     1       0.002  -0.004   0.002  0.00  0.00    +0.149 HD
BRANCH  18  23
ATOM     22  C   UNL     1       1.635   2.077   1.435  0.00  0.00    +0.027 C 
ATOM     23  C   UNL     1       1.248   1.716  -0.001  0.00  0.00    +0.067 C 
ATOM     24  C   UNL     1       2.349   0.857  -0.625  0.00  0.00    +0.027 C 
ENDBRANCH  18  23
ENDBRANCH  17  19
BRANCH  17  25
ATOM     25  C   UNL     1      -2.557  -0.021  -1.235  0.00  0.00    +0.067 C 
BRANCH  25  26
ATOM     26  C   UNL     1      -3.792  -0.883  -1.174  0.00  0.00    -0.045 A 
ATOM     27  C   UNL     1      -3.732  -2.136  -0.592  0.00  0.00    +0.004 A 
ATOM     28  C   UNL     1      -4.866  -2.924  -0.531  0.00  0.00    +0.000 A 
ATOM     29  C   UNL     1      -6.057  -2.464  -1.062  0.00  0.00    +0.000 A 
ATOM     30  C   UNL     1      -6.115  -1.214  -1.648  0.00  0.00    +0.000 A 
ATOM     31  C   UNL     1      -4.983  -0.423  -1.704  0.00  0.00    +0.004 A 
ENDBRANCH  25  26
ENDBRANCH  17  25
ENDBRANCH   1  17
TORSDOF 5
