REMARK  Name = ZINC05548654
REMARK  6 active torsions:
REMARK  status: ('A' for Active; 'I' for Inactive)
REMARK    1  A    between atoms: C_1  and  C_2
REMARK    2  A    between atoms: C_2  and  C_3
REMARK    3  A    between atoms: C_2  and  C_4
REMARK    4  A    between atoms: N_8  and  N_9
REMARK    5  A    between atoms: C_10  and  C_11
REMARK    6  A    between atoms: C_20  and  O_21
REMARK                            x       y       z     vdW  Elec       q    Type
REMARK                         _______ _______ _______ _____ _____    ______ ____
ROOT
ATOM      1  N   UNL     1       1.438  -2.693  -0.389  0.00  0.00    -0.171 NA
ATOM      2  C   UNL     1       1.980  -3.840  -0.672  0.00  0.00    +0.145 C 
ENDROOT
BRANCH   2   3
ATOM      3  C   UNL     1       1.984  -4.917   0.328  0.00  0.00    +0.044 A 
ATOM      4  C   UNL     1       2.595  -6.211   0.029  0.00  0.00    -0.006 A 
ATOM      5  C   UNL     1       3.192  -6.468  -1.210  0.00  0.00    +0.009 A 
ATOM      6  C   UNL     1       3.751  -7.689  -1.449  0.00  0.00    +0.001 A 
ATOM      7  C   UNL     1       3.735  -8.685  -0.476  0.00  0.00    +0.001 A 
ATOM      8  C   UNL     1       3.162  -8.468   0.740  0.00  0.00    +0.008 A 
ATOM      9  C   UNL     1       2.577  -7.222   1.021  0.00  0.00    -0.017 A 
ATOM     10  C   UNL     1       1.977  -6.961   2.266  0.00  0.00    +0.012 A 
ATOM     11  C   UNL     1       1.414  -5.752   2.527  0.00  0.00    +0.046 A 
ATOM     12  C   UNL     1       1.411  -4.724   1.585  0.00  0.00    +0.126 A 
BRANCH  12  13
ATOM     13  O   UNL     1       0.843  -3.530   1.892  0.00  0.00    -0.506 OA
ATOM     14  H   UNL     1      -0.097  -3.474   1.671  0.00  0.00    +0.292 HD
ENDBRANCH  12  13
ENDBRANCH   2   3
BRANCH   1  19
ATOM     15  C   UNL     1       0.908  -0.412  -1.178  0.00  0.00    +0.156 A 
ATOM     16  N   UNL     1       0.965   0.223  -2.305  0.00  0.00    -0.156 NA
ATOM     17  N   UNL     1       1.449  -0.660  -3.280  0.00  0.00    -0.253 N 
ATOM     18  C   UNL     1       1.673  -1.844  -2.673  0.00  0.00    +0.196 A 
ATOM     19  N   UNL     1       1.347  -1.699  -1.373  0.00  0.00    -0.192 N 
ATOM     20  S   UNL     1       2.269  -3.267  -3.416  0.00  0.00    -0.010 S 
ATOM     21  H   UNL     1       1.595  -0.458  -4.217  0.00  0.00    +0.191 HD
BRANCH  15  23
ATOM     22  C   UNL     1       0.629   1.685   0.115  0.00  0.00    +0.015 C 
ATOM     23  C   UNL     1       0.442   0.167   0.133  0.00  0.00    +0.053 C 
ATOM     24  C   UNL     1      -1.038  -0.162   0.338  0.00  0.00    +0.015 C 
ENDBRANCH  15  23
ENDBRANCH   1  19
TORSDOF 4
