REMARK  Name = ZINC00242443
REMARK  4 active torsions:
REMARK  status: ('A' for Active; 'I' for Inactive)
REMARK    1  A    between atoms: C_1  and  C_2
REMARK    2  A    between atoms: C_7  and  C_15
REMARK    3  A    between atoms: C_9  and  C_13
REMARK    4  A    between atoms: C_10  and  N_12
REMARK                            x       y       z     vdW  Elec       q    Type
REMARK                         _______ _______ _______ _____ _____    ______ ____
ROOT
ATOM      1  C   UNL     1      -5.026   2.641   4.949  0.00  0.00    +0.008 C 
ATOM      2  C   UNL     1      -4.222   2.975   3.690  0.00  0.00    +0.001 C 
ATOM      3  C   UNL     1      -5.134   2.903   2.464  0.00  0.00    +0.078 C 
ATOM      4  C   UNL     1      -4.348   3.267   1.225  0.00  0.00    +0.115 C 
ATOM      5  C   UNL     1      -3.332   4.147   1.291  0.00  0.00    +0.046 C 
ATOM      6  C   UNL     1      -2.562   4.525   0.049  0.00  0.00    +0.101 C 
ATOM      7  C   UNL     1      -3.352   4.161  -1.177  0.00  0.00    +0.098 C 
ATOM      8  C   UNL     1      -4.369   3.272  -1.101  0.00  0.00    +0.198 C 
ATOM      9  O   UNL     1      -4.700   2.689   0.062  0.00  0.00    -0.445 OA
ATOM     10  C   UNL     1      -2.954   4.738   2.512  0.00  0.00    +0.164 C 
ATOM     11  O   UNL     1      -2.040   5.538   2.529  0.00  0.00    -0.292 OA
ATOM     12  C   UNL     1      -3.662   4.397   3.795  0.00  0.00    +0.083 C 
ENDROOT
BRANCH   6  13
ATOM     13  C   UNL     1      -1.247   3.789   0.033  0.00  0.00    -0.033 A 
ATOM     14  C   UNL     1      -0.059   4.497   0.026  0.00  0.00    +0.006 A 
ATOM     15  C   UNL     1       1.148   3.824   0.011  0.00  0.00    +0.022 A 
ATOM     16  C   UNL     1       1.168   2.441   0.004  0.00  0.00    +0.059 A 
ATOM     17  C   UNL     1      -0.021   1.732   0.012  0.00  0.00    +0.060 A 
ATOM     18  C   UNL     1      -1.229   2.408   0.021  0.00  0.00    +0.026 A 
ATOM     19 CL   UNL     1       0.002  -0.004   0.002  0.00  0.00    -0.082 Cl
ATOM     20 CL   UNL     1       2.683   1.594  -0.015  0.00  0.00    -0.082 Cl
ENDBRANCH   6  13
BRANCH   8  21
ATOM     21  N   UNL     1      -5.077   2.961  -2.235  0.00  0.00    -0.328 N 
ATOM     22  H   UNL     1      -5.808   2.325  -2.191  0.00  0.00    +0.145 HD
ATOM     23  H   UNL     1      -4.846   3.377  -3.080  0.00  0.00    +0.145 HD
ENDBRANCH   8  21
BRANCH   7  24
ATOM     24  C   UNL     1      -3.026   4.758  -2.437  0.00  0.00    +0.101 C 
ATOM     25  N   UNL     1      -2.768   5.232  -3.436  0.00  0.00    -0.191 NA
ENDBRANCH   7  24
TORSDOF 3
