REMARK  Name = ZINC32740945
REMARK  4 active torsions:
REMARK  status: ('A' for Active; 'I' for Inactive)
REMARK    1  A    between atoms: C_1  and  C_2
REMARK    2  A    between atoms: C_2  and  C_4
REMARK    3  A    between atoms: C_2  and  N_13
REMARK    4  A    between atoms: C_14  and  C_16
REMARK                            x       y       z     vdW  Elec       q    Type
REMARK                         _______ _______ _______ _____ _____    ______ ____
ROOT
ATOM      1  N   UNL     1      -5.266   1.245   0.949  0.00  0.00    -0.303 N 
ATOM      2  C   UNL     1      -6.487   1.275   1.521  0.00  0.00    +0.255 C 
ATOM      3  O   UNL     1      -7.236   2.203   1.301  0.00  0.00    -0.272 OA
ATOM      4  H   UNL     1      -4.586   0.404   1.149  0.00  0.00    +0.150 HD
ENDROOT
BRANCH   2   5
ATOM      5  C   UNL     1      -6.919   0.157   2.433  0.00  0.00    +0.266 C 
ATOM      6  C   UNL     1      -7.027  -1.142   1.632  0.00  0.00    +0.090 C 
ATOM      7  C   UNL     1      -7.691  -2.212   2.458  0.00  0.00    -0.029 A 
ATOM      8  C   UNL     1      -7.509  -3.542   2.137  0.00  0.00    +0.004 A 
ATOM      9  C   UNL     1      -8.120  -4.529   2.890  0.00  0.00    +0.000 A 
ATOM     10  C   UNL     1      -8.918  -4.194   3.970  0.00  0.00    +0.001 A 
ATOM     11  C   UNL     1      -9.108  -2.868   4.304  0.00  0.00    +0.015 A 
ATOM     12  C   UNL     1      -8.493  -1.871   3.549  0.00  0.00    +0.062 A 
ATOM     13  C   UNL     1      -8.679  -0.444   3.898  0.00  0.00    +0.340 C 
ATOM     14  O   UNL     1      -9.221  -0.110   4.932  0.00  0.00    -0.245 OA
ATOM     15  O   UNL     1      -8.218   0.475   3.012  0.00  0.00    -0.448 OA
ENDBRANCH   2   5
BRANCH   1  17
ATOM     16  C   UNL     1      -5.355   2.062  -1.355  0.00  0.00    +0.036 C 
ATOM     17  C   UNL     1      -4.846   2.333   0.062  0.00  0.00    +0.136 C 
BRANCH  17  18
ATOM     18  C   UNL     1      -3.341   2.416   0.048  0.00  0.00    +0.126 A 
ATOM     19  C   UNL     1      -2.636   3.555   0.047  0.00  0.00    +0.055 A 
ATOM     20  C   UNL     1      -1.222   3.161   0.031  0.00  0.00    +0.020 A 
ATOM     21  C   UNL     1      -0.015   3.859   0.023  0.00  0.00    +0.011 A 
ATOM     22  C   UNL     1       1.166   3.171   0.007  0.00  0.00    +0.001 A 
ATOM     23  C   UNL     1       1.171   1.783   0.001  0.00  0.00    +0.004 A 
ATOM     24  C   UNL     1      -0.013   1.076   0.008  0.00  0.00    +0.047 A 
ATOM     25  C   UNL     1      -1.224   1.756   0.017  0.00  0.00    +0.135 A 
ATOM     26  O   UNL     1      -2.512   1.357   0.035  0.00  0.00    -0.458 OA
ENDBRANCH  17  18
ENDBRANCH   1  17
TORSDOF 3
