REMARK  Name = ZINC12930024
REMARK  5 active torsions:
REMARK  status: ('A' for Active; 'I' for Inactive)
REMARK    1  A    between atoms: C_1  and  C_2
REMARK    2  A    between atoms: C_2  and  C_3
REMARK    3  A    between atoms: C_13  and  C_15
REMARK    4  A    between atoms: C_16  and  C_17
REMARK    5  A    between atoms: C_22  and  N_23
REMARK                            x       y       z     vdW  Elec       q    Type
REMARK                         _______ _______ _______ _____ _____    ______ ____
ROOT
ATOM      1  C   UNL     1      -0.123   1.121  -0.072  0.00  0.00    +0.107 C 
ATOM      2  C   UNL     1       1.294   1.692  -0.106  0.00  0.00    -0.017 A 
ATOM      3  C   UNL     1       2.279   1.242  -0.983  0.00  0.00    +0.013 A 
ATOM      4  C   UNL     1       3.512   1.797  -0.959  0.00  0.00    +0.046 A 
ATOM      5  S   UNL     1       3.342   3.015   0.337  0.00  0.00    -0.101 S 
ATOM      6  C   UNL     1       1.647   2.692   0.748  0.00  0.00    -0.004 A 
ATOM      7  C   UNL     1       0.801   3.354   1.787  0.00  0.00    +0.062 C 
ATOM      8  C   UNL     1      -0.673   3.028   1.502  0.00  0.00    +0.114 C 
ATOM      9  N   UNL     1      -0.773   1.603   1.154  0.00  0.00    -0.291 N 
ATOM     10  C   UNL     1      -1.451   0.751   1.948  0.00  0.00    +0.240 C 
ATOM     11  O   UNL     1      -1.898   1.137   3.012  0.00  0.00    -0.271 OA
ENDROOT
BRANCH   1  13
ATOM     12  C   UNL     1      -2.284   0.942  -1.312  0.00  0.00    +0.006 C 
ATOM     13  C   UNL     1      -0.904   1.601  -1.298  0.00  0.00    +0.024 C 
ENDBRANCH   1  13
BRANCH  10  14
ATOM     14  C   UNL     1      -1.649  -0.638   1.531  0.00  0.00    +0.068 C 
ATOM     15  C   UNL     1      -2.410  -1.464   2.277  0.00  0.00    +0.015 C 
BRANCH  15  16
ATOM     16  C   UNL     1      -2.609  -2.861   1.858  0.00  0.00    +0.005 A 
ATOM     17  C   UNL     1      -1.915  -3.369   0.755  0.00  0.00    +0.010 A 
ATOM     18  C   UNL     1      -2.107  -4.679   0.369  0.00  0.00    +0.001 A 
ATOM     19  C   UNL     1      -2.983  -5.490   1.070  0.00  0.00    +0.002 A 
ATOM     20  C   UNL     1      -3.672  -4.994   2.162  0.00  0.00    +0.033 A 
ATOM     21  C   UNL     1      -3.488  -3.688   2.564  0.00  0.00    +0.133 A 
BRANCH  21  22
ATOM     22  N   UNL     1      -4.223  -3.161   3.736  0.00  0.00    +0.057 N 
ATOM     23  O   UNL     1      -5.069  -3.846   4.283  0.00  0.00    -0.126 OA
ATOM     24  O   UNL     1      -3.981  -2.043   4.154  0.00  0.00    -0.126 OA
ENDBRANCH  21  22
ENDBRANCH  15  16
ENDBRANCH  10  14
TORSDOF 4
