REMARK  Name = ZINC59474529
REMARK  5 active torsions:
REMARK  status: ('A' for Active; 'I' for Inactive)
REMARK    1  A    between atoms: C_7  and  C_11
REMARK    2  A    between atoms: C_7  and  O_33
REMARK    3  A    between atoms: C_11  and  C_12
REMARK    4  A    between atoms: C_12  and  C_14
REMARK    5  A    between atoms: C_18  and  N_20
REMARK                            x       y       z     vdW  Elec       q    Type
REMARK                         _______ _______ _______ _____ _____    ______ ____
ROOT
ATOM      1  C   UNL     1       1.132  -5.144   2.377  0.00  0.00    +0.019 A 
ATOM      2  C   UNL     1       0.330  -4.658   3.414  0.00  0.00    +0.011 A 
ATOM      3  C   UNL     1      -0.022  -5.487   4.459  0.00  0.00    +0.003 A 
ATOM      4  C   UNL     1       0.417  -6.799   4.486  0.00  0.00    +0.024 A 
ATOM      5  C   UNL     1       1.214  -7.292   3.461  0.00  0.00    +0.045 A 
ATOM      6  C   UNL     1       1.570  -6.471   2.403  0.00  0.00    +0.035 A 
ENDROOT
BRANCH   5   7
ATOM      7  N   UNL     1       1.656  -8.622   3.494  0.00  0.00    -0.210 N 
ATOM      8  C   UNL     1       2.442  -9.173   2.530  0.00  0.00    +0.230 C 
ATOM      9  O   UNL     1       3.041  -8.586   1.654  0.00  0.00    -0.275 OA
ATOM     10  C   UNL     1       2.418 -10.649   2.771  0.00  0.00    +0.088 C 
ATOM     11  C   UNL     1       3.649 -11.473   2.461  0.00  0.00    +0.013 C 
ATOM     12  C   UNL     1       3.307 -12.923   2.857  0.00  0.00    +0.001 C 
ATOM     13  C   UNL     1       2.901 -13.031   4.323  0.00  0.00    +0.001 C 
ATOM     14  C   UNL     1       1.772 -12.048   4.686  0.00  0.00    +0.013 C 
ATOM     15  C   UNL     1       2.242 -10.668   4.319  0.00  0.00    +0.088 C 
ATOM     16  C   UNL     1       1.343  -9.487   4.497  0.00  0.00    +0.230 C 
ATOM     17  O   UNL     1       0.505  -9.334   5.358  0.00  0.00    -0.275 OA
ENDBRANCH   5   7
BRANCH   1  18
ATOM     18  C   UNL     1       1.509  -4.263   1.259  0.00  0.00    +0.167 C 
ATOM     19  O   UNL     1       2.200  -4.689   0.359  0.00  0.00    -0.292 OA
BRANCH  18  20
ATOM     20  C   UNL     1       1.035  -2.833   1.235  0.00  0.00    +0.129 C 
BRANCH  20  27
ATOM     21  C   UNL     1      -0.017   1.380   0.010  0.00  0.00    +0.000 A 
ATOM     22  C   UNL     1       1.174   2.084   0.002  0.00  0.00    +0.002 A 
ATOM     23  C   UNL     1       2.380   1.415  -0.013  0.00  0.00    +0.024 A 
ATOM     24  C   UNL     1       2.407   0.021  -0.021  0.00  0.00    +0.040 A 
ATOM     25  C   UNL     1       1.205  -0.674  -0.013  0.00  0.00    +0.014 A 
ATOM     26  C   UNL     1       0.002  -0.004   0.002  0.00  0.00    +0.009 A 
ATOM     27  C   UNL     1       1.563  -2.143  -0.025  0.00  0.00    +0.175 C 
ATOM     28  C   UNL     1       3.077  -2.152  -0.040  0.00  0.00    +0.254 C 
ATOM     29  O   UNL     1       3.791  -3.132  -0.052  0.00  0.00    -0.272 OA
ATOM     30  N   UNL     1       3.480  -0.870  -0.037  0.00  0.00    -0.282 N 
ATOM     31  H   UNL     1       4.410  -0.596  -0.044  0.00  0.00    +0.155 HD
BRANCH  27  32
ATOM     32  O   UNL     1       1.046  -2.775  -1.197  0.00  0.00    -0.374 OA
ATOM     33  H   UNL     1       1.247  -3.719  -1.256  0.00  0.00    +0.211 HD
ENDBRANCH  27  32
ENDBRANCH  20  27
ENDBRANCH  18  20
ENDBRANCH   1  18
TORSDOF 5
