REMARK  Name = ZINC09925926
REMARK  10 active torsions:
REMARK  status: ('A' for Active; 'I' for Inactive)
REMARK    1  A    between atoms: C_1  and  C_2
REMARK    2  A    between atoms: C_8  and  N_9
REMARK    3  A    between atoms: C_8  and  N_63
REMARK    4  A    between atoms: C_16  and  C_19
REMARK    5  A    between atoms: C_16  and  O_31
REMARK    6  A    between atoms: C_19  and  C_20
REMARK    7  A    between atoms: C_20  and  C_22
REMARK    8  A    between atoms: C_25  and  C_28
REMARK    9  A    between atoms: C_28  and  C_29
REMARK   10  A    between atoms: C_28  and  C_30
REMARK                            x       y       z     vdW  Elec       q    Type
REMARK                         _______ _______ _______ _____ _____    ______ ____
ROOT
ATOM      1  N   UNL     1       3.594   0.264   1.859  0.00  0.00    -0.285 N 
ATOM      2  C   UNL     1       4.593   0.976   1.194  0.00  0.00    +0.041 A 
ATOM      3  C   UNL     1       5.941   1.154   1.498  0.00  0.00    +0.024 A 
ATOM      4  C   UNL     1       6.743   1.914   0.672  0.00  0.00    +0.002 A 
ATOM      5  C   UNL     1       6.217   2.505  -0.463  0.00  0.00    +0.000 A 
ATOM      6  C   UNL     1       4.879   2.332  -0.771  0.00  0.00    +0.009 A 
ATOM      7  C   UNL     1       4.077   1.573   0.051  0.00  0.00    +0.014 A 
ATOM      8  C   UNL     1       2.614   1.198  -0.001  0.00  0.00    +0.175 C 
ATOM      9  C   UNL     1       2.409   0.341   1.230  0.00  0.00    +0.255 C 
ATOM     10  O   UNL     1       1.371  -0.177   1.583  0.00  0.00    -0.272 OA
ENDROOT
BRANCH   8  11
ATOM     11  O   UNL     1       2.328   0.450  -1.184  0.00  0.00    -0.374 OA
ATOM     12  H   UNL     1       1.408   0.158  -1.252  0.00  0.00    +0.211 HD
ENDBRANCH   8  11
BRANCH   1  13
ATOM     13  C   UNL     1       3.812  -0.481   3.102  0.00  0.00    +0.039 C 
BRANCH  13  20
ATOM     14  C   UNL     1       5.528  -1.661   4.994  0.00  0.00    -0.013 C 
ATOM     15  C   UNL     1       4.723  -2.527   4.023  0.00  0.00    -0.070 C 
ATOM     16  C   UNL     1       5.521  -3.787   3.680  0.00  0.00    -0.016 C 
ATOM     17  C   UNL     1       4.719  -4.640   2.693  0.00  0.00    -0.003 C 
ATOM     18  C   UNL     1       4.413  -3.808   1.444  0.00  0.00    -0.019 C 
ATOM     19  C   UNL     1       3.647  -2.548   1.851  0.00  0.00    -0.076 C 
ATOM     20  N   UNL     1       4.482  -1.759   2.783  0.00  0.00    +0.392 N 
ATOM     21  H   UNL     1       5.384  -1.560   2.334  0.00  0.00    -0.079 HD
ENDBRANCH  13  20
ENDBRANCH   1  13
BRANCH   8  22
ATOM     22  C   UNL     1       1.736   2.450   0.066  0.00  0.00    +0.129 C 
BRANCH  22  23
ATOM     23  C   UNL     1       0.295   2.045   0.232  0.00  0.00    +0.167 C 
ATOM     24  O   UNL     1      -0.002   0.870   0.292  0.00  0.00    -0.292 OA
BRANCH  23  25
ATOM     25  C   UNL     1      -0.754   3.074   0.317  0.00  0.00    +0.018 A 
ATOM     26  C   UNL     1      -0.415   4.429   0.254  0.00  0.00    +0.011 A 
ATOM     27  C   UNL     1      -1.404   5.387   0.327  0.00  0.00    +0.004 A 
ATOM     28  C   UNL     1      -2.728   5.011   0.474  0.00  0.00    -0.045 A 
ATOM     29  C   UNL     1      -3.071   3.672   0.543  0.00  0.00    +0.004 A 
ATOM     30  C   UNL     1      -2.094   2.701   0.465  0.00  0.00    +0.011 A 
BRANCH  28  31
ATOM     31  C   UNL     1      -3.802   6.065   0.559  0.00  0.00    +0.013 C 
ATOM     32  C   UNL     1      -3.536   6.968   1.766  0.00  0.00    +0.012 C 
ATOM     33  C   UNL     1      -3.793   6.906  -0.719  0.00  0.00    +0.012 C 
ENDBRANCH  28  31
ENDBRANCH  23  25
ENDBRANCH  22  23
ENDBRANCH   8  22
TORSDOF 7
