REMARK  Name = ZINC09563201
REMARK  6 active torsions:
REMARK  status: ('A' for Active; 'I' for Inactive)
REMARK    1  A    between atoms: C_1  and  S_2
REMARK    2  A    between atoms: S_2  and  C_3
REMARK    3  A    between atoms: C_3  and  C_4
REMARK    4  A    between atoms: C_4  and  N_5
REMARK    5  A    between atoms: N_14  and  C_15
REMARK    6  A    between atoms: C_15  and  C_17
REMARK                            x       y       z     vdW  Elec       q    Type
REMARK                         _______ _______ _______ _____ _____    ______ ____
ROOT
ATOM      1  N   UNL     1      -0.067   1.120  -2.437  0.00  0.00    -0.320 N 
ATOM      2  C   UNL     1       0.931   1.887  -3.009  0.00  0.00    +0.058 A 
ATOM      3  C   UNL     1       1.423   3.132  -2.586  0.00  0.00    +0.027 A 
ATOM      4  C   UNL     1       2.428   3.763  -3.279  0.00  0.00    +0.002 A 
ATOM      5  C   UNL     1       2.986   3.193  -4.411  0.00  0.00    +0.001 A 
ATOM      6  C   UNL     1       2.527   1.962  -4.845  0.00  0.00    +0.017 A 
ATOM      7  C   UNL     1       1.518   1.333  -4.155  0.00  0.00    +0.039 A 
ATOM      8  S   UNL     1       0.641  -0.197  -4.362  0.00  0.00    -0.052 S 
ATOM      9  C   UNL     1      -0.417  -0.069  -2.994  0.00  0.00    +0.167 A 
ATOM     10  N   UNL     1      -1.347  -0.930  -2.587  0.00  0.00    -0.153 NA
ENDROOT
BRANCH  10  11
ATOM     11  C   UNL     1      -1.553  -2.055  -3.264  0.00  0.00    +0.283 C 
ATOM     12  O   UNL     1      -0.891  -2.298  -4.254  0.00  0.00    -0.269 OA
BRANCH  11  13
ATOM     13  C   UNL     1      -2.607  -3.029  -2.803  0.00  0.00    +0.298 C 
ATOM     14  C   UNL     1      -3.996  -2.390  -2.936  0.00  0.00    +0.283 C 
ATOM     15  O   UNL     1      -4.971  -3.345  -2.504  0.00  0.00    -0.484 OA
ATOM     16  C   UNL     1      -4.838  -4.613  -2.979  0.00  0.00    +0.162 A 
ATOM     17  C   UNL     1      -5.915  -5.484  -2.906  0.00  0.00    +0.049 A 
ATOM     18  C   UNL     1      -5.794  -6.776  -3.381  0.00  0.00    +0.004 A 
ATOM     19  C   UNL     1      -4.601  -7.204  -3.932  0.00  0.00    +0.004 A 
ATOM     20  C   UNL     1      -3.524  -6.340  -4.010  0.00  0.00    +0.049 A 
ATOM     21  C   UNL     1      -3.639  -5.042  -3.535  0.00  0.00    +0.163 A 
ATOM     22  O   UNL     1      -2.572  -4.202  -3.624  0.00  0.00    -0.472 OA
ENDBRANCH  11  13
ENDBRANCH  10  11
BRANCH   1  23
ATOM     23  C   UNL     1      -0.753   1.593  -1.232  0.00  0.00    +0.135 C 
BRANCH  23  24
ATOM     24  C   UNL     1      -0.013   1.086   0.008  0.00  0.00    +0.090 C 
BRANCH  24  26
ATOM     25  C   UNL     1       0.127   0.993   2.862  0.00  0.00    +0.084 C 
ATOM     26  S   UNL     1      -0.862   1.671   1.500  0.00  0.00    -0.162 S 
ENDBRANCH  24  26
ENDBRANCH  23  24
ENDBRANCH   1  23
TORSDOF 5
