REMARK  Name = ZINC39596672
REMARK  8 active torsions:
REMARK  status: ('A' for Active; 'I' for Inactive)
REMARK    1  A    between atoms: C_1  and  C_2
REMARK    2  A    between atoms: C_2  and  C_4
REMARK    3  A    between atoms: C_2  and  N_10
REMARK    4  A    between atoms: C_11  and  C_13
REMARK    5  A    between atoms: C_24  and  C_26
REMARK    6  A    between atoms: C_31  and  O_32
REMARK    7  A    between atoms: O_32  and  C_33
REMARK    8  A    between atoms: C_33  and  C_35
REMARK                            x       y       z     vdW  Elec       q    Type
REMARK                         _______ _______ _______ _____ _____    ______ ____
ROOT
ATOM      1  C   UNL     1       0.343  -0.873   3.480  0.00  0.00    +0.100 C 
ATOM      2  C   UNL     1       1.658  -0.112   3.764  0.00  0.00    +0.121 C 
ATOM      3  N   UNL     1       1.328   0.799   4.885  0.00  0.00    -0.296 N 
ATOM      4  C   UNL     1       0.448  -0.005   5.767  0.00  0.00    +0.115 C 
ATOM      5  C   UNL     1      -0.446  -0.804   4.798  0.00  0.00    -0.004 C 
ATOM      6  C   UNL     1      -0.691  -2.208   5.342  0.00  0.00    -0.010 C 
ATOM      7  C   UNL     1      -1.528  -2.116   6.621  0.00  0.00    -0.082 C 
ATOM      8  N   UNL     1      -2.804  -1.454   6.327  0.00  0.00    +0.379 N 
ATOM      9  C   UNL     1      -2.563  -0.072   5.893  0.00  0.00    -0.082 C 
ATOM     10  C   UNL     1      -1.770  -0.078   4.583  0.00  0.00    -0.010 C 
ATOM     11  C   UNL     1       1.736   2.071   5.063  0.00  0.00    +0.250 C 
ATOM     12  O   UNL     1       1.455   2.662   6.088  0.00  0.00    -0.270 OA
ATOM     13  H   UNL     1      -3.281  -1.957   5.594  0.00  0.00    -0.086 HD
ATOM     14  H   UNL     1      -3.378  -1.449   7.157  0.00  0.00    -0.086 HD
ENDROOT
BRANCH  11  15
ATOM     15  C   UNL     1       2.523   2.747   4.014  0.00  0.00    +0.079 A 
ATOM     16  C   UNL     1       3.443   2.024   3.251  0.00  0.00    +0.017 A 
ATOM     17  C   UNL     1       4.176   2.661   2.272  0.00  0.00    +0.001 A 
ATOM     18  C   UNL     1       4.004   4.016   2.041  0.00  0.00    +0.004 A 
ATOM     19  C   UNL     1       3.098   4.742   2.788  0.00  0.00    +0.047 A 
ATOM     20  C   UNL     1       2.349   4.116   3.773  0.00  0.00    +0.144 A 
BRANCH  20  21
ATOM     21  O   UNL     1       1.454   4.828   4.505  0.00  0.00    -0.425 OA
BRANCH  21  22
ATOM     22  C   UNL     1       0.178   4.854   4.088  0.00  0.00    +0.309 C 
ATOM     23  O   UNL     1      -0.163   4.184   3.143  0.00  0.00    -0.251 OA
ATOM     24  C   UNL     1      -0.830   5.719   4.801  0.00  0.00    +0.136 C 
ENDBRANCH  21  22
ENDBRANCH  20  21
ENDBRANCH  11  15
BRANCH   1  26
ATOM     25  N   UNL     1      -1.225  -0.927   1.568  0.00  0.00    -0.308 N 
ATOM     26  C   UNL     1      -0.424  -0.199   2.372  0.00  0.00    +0.219 C 
ATOM     27  O   UNL     1      -0.322   0.997   2.205  0.00  0.00    -0.275 OA
ATOM     28  H   UNL     1      -1.307  -1.884   1.702  0.00  0.00    +0.149 HD
BRANCH  25  30
ATOM     29  C   UNL     1      -1.081  -0.152  -0.748  0.00  0.00    +0.033 C 
ATOM     30  C   UNL     1      -1.971  -0.271   0.491  0.00  0.00    +0.100 C 
BRANCH  30  31
ATOM     31  C   UNL     1      -3.192  -1.090   0.156  0.00  0.00    -0.027 A 
ATOM     32  C   UNL     1      -3.112  -2.470   0.129  0.00  0.00    +0.005 A 
ATOM     33  C   UNL     1      -4.232  -3.220  -0.179  0.00  0.00    +0.000 A 
ATOM     34  C   UNL     1      -5.430  -2.591  -0.459  0.00  0.00    +0.000 A 
ATOM     35  C   UNL     1      -5.510  -1.211  -0.431  0.00  0.00    +0.000 A 
ATOM     36  C   UNL     1      -4.391  -0.461  -0.120  0.00  0.00    +0.005 A 
ENDBRANCH  30  31
ENDBRANCH  25  30
ENDBRANCH   1  26
TORSDOF 6
