REMARK  Name = ZINC04733835
REMARK  5 active torsions:
REMARK  status: ('A' for Active; 'I' for Inactive)
REMARK    1  A    between atoms: C_12  and  C_26
REMARK    2  A    between atoms: C_14  and  C_21
REMARK    3  A    between atoms: C_16  and  C_17
REMARK    4  A    between atoms: C_16  and  C_19
REMARK    5  A    between atoms: C_26  and  C_28
REMARK                            x       y       z     vdW  Elec       q    Type
REMARK                         _______ _______ _______ _____ _____    ______ ____
ROOT
ATOM      1  C   UNL     1       7.756   3.793   2.727  0.00  0.00    +0.001 A 
ATOM      2  C   UNL     1       6.720   3.167   3.399  0.00  0.00    +0.002 A 
ATOM      3  C   UNL     1       5.537   2.872   2.747  0.00  0.00    +0.024 A 
ATOM      4  C   UNL     1       5.383   3.203   1.415  0.00  0.00    +0.038 A 
ATOM      5  C   UNL     1       6.437   3.847   0.729  0.00  0.00    -0.004 A 
ATOM      6  C   UNL     1       7.620   4.134   1.395  0.00  0.00    +0.010 A 
ATOM      7  C   UNL     1       6.242   4.198  -0.698  0.00  0.00    +0.007 C 
ATOM      8  C   UNL     1       5.335   3.493  -1.397  0.00  0.00    -0.002 C 
ATOM      9  C   UNL     1       4.609   2.413  -0.651  0.00  0.00    +0.132 C 
ATOM     10  N   UNL     1       4.247   2.942   0.690  0.00  0.00    -0.309 N 
ATOM     11  C   UNL     1       3.246   2.018   1.220  0.00  0.00    +0.158 C 
ATOM     12  C   UNL     1       2.499   1.455  -0.015  0.00  0.00    +0.119 C 
ATOM     13  C   UNL     1       3.233   2.063  -1.243  0.00  0.00    +0.176 C 
ENDROOT
BRANCH  12  14
ATOM     14  C   UNL     1       1.057   1.892   0.002  0.00  0.00    +0.113 A 
ATOM     15  C   UNL     1      -0.013   1.076   0.008  0.00  0.00    +0.045 A 
ATOM     16  C   UNL     1      -1.159   1.903   0.017  0.00  0.00    +0.041 A 
ATOM     17  C   UNL     1      -0.722   3.175   0.026  0.00  0.00    +0.195 A 
ATOM     18  O   UNL     1       0.621   3.162   0.013  0.00  0.00    -0.467 OA
ENDBRANCH  12  14
BRANCH  13  19
ATOM     19  C   UNL     1       3.362   1.070  -2.322  0.00  0.00    +0.087 C 
ATOM     20  N   UNL     1       3.462   0.304  -3.155  0.00  0.00    -0.195 NA
ENDBRANCH  13  19
BRANCH  13  21
ATOM     21  C   UNL     1       2.543   3.272  -1.722  0.00  0.00    +0.087 C 
ATOM     22  N   UNL     1       2.011   4.205  -2.092  0.00  0.00    -0.195 NA
ENDBRANCH  13  21
BRANCH  11  23
ATOM     23  C   UNL     1       3.917   0.899   1.976  0.00  0.00    +0.184 C 
ATOM     24  O   UNL     1       5.118   0.751   1.899  0.00  0.00    -0.290 OA
BRANCH  23  25
ATOM     25  C   UNL     1       3.115  -0.011   2.806  0.00  0.00    +0.019 A 
ATOM     26  C   UNL     1       1.730   0.161   2.901  0.00  0.00    +0.014 A 
ATOM     27  C   UNL     1       0.984  -0.700   3.676  0.00  0.00    +0.039 A 
ATOM     28  C   UNL     1       1.604  -1.728   4.370  0.00  0.00    +0.123 A 
ATOM     29  C   UNL     1       2.978  -1.901   4.285  0.00  0.00    +0.039 A 
ATOM     30  C   UNL     1       3.735  -1.051   3.509  0.00  0.00    +0.014 A 
ATOM     31  F   UNL     1       0.868  -2.565   5.133  0.00  0.00    -0.205 F 
ENDBRANCH  23  25
ENDBRANCH  11  23
TORSDOF 5
