REMARK  Name = ZINC60354373
REMARK  8 active torsions:
REMARK  status: ('A' for Active; 'I' for Inactive)
REMARK    1  A    between atoms: C_1  and  C_2
REMARK    2  A    between atoms: C_2  and  O_3
REMARK    3  A    between atoms: O_3  and  C_4
REMARK    4  A    between atoms: C_4  and  C_6
REMARK    5  A    between atoms: C_13  and  C_15
REMARK    6  A    between atoms: C_16  and  C_26
REMARK    7  A    between atoms: C_18  and  C_25
REMARK    8  A    between atoms: C_21  and  C_24
REMARK                            x       y       z     vdW  Elec       q    Type
REMARK                         _______ _______ _______ _____ _____    ______ ____
ROOT
ATOM      1  C   UNL     1       1.185  -2.482  -2.762  0.00  0.00    +0.185 C 
ATOM      2  C   UNL     1       0.200  -2.561  -3.932  0.00  0.00    +0.034 C 
ATOM      3  C   UNL     1       0.869  -3.275  -5.109  0.00  0.00    +0.004 C 
ATOM      4  C   UNL     1       1.245  -4.700  -4.697  0.00  0.00    +0.019 C 
ATOM      5  C   UNL     1       2.242  -4.645  -3.534  0.00  0.00    +0.109 C 
ATOM      6  N   UNL     1       1.666  -3.835  -2.452  0.00  0.00    -0.282 N 
ATOM      7  C   UNL     1       1.577  -4.325  -1.200  0.00  0.00    +0.283 C 
ATOM      8  O   UNL     1       0.988  -3.697  -0.341  0.00  0.00    -0.267 OA
ENDROOT
BRANCH   7   9
ATOM      9  C   UNL     1       2.192  -5.620  -0.872  0.00  0.00    +0.194 A 
ATOM     10  C   UNL     1       2.039  -6.282   0.304  0.00  0.00    +0.008 A 
ATOM     11  C   UNL     1       2.823  -7.511   0.181  0.00  0.00    +0.027 A 
ATOM     12  C   UNL     1       3.073  -8.594   1.027  0.00  0.00    -0.039 A 
ATOM     13  C   UNL     1       3.875  -9.615   0.600  0.00  0.00    +0.004 A 
ATOM     14  C   UNL     1       4.443  -9.581  -0.666  0.00  0.00    +0.007 A 
ATOM     15  C   UNL     1       4.209  -8.521  -1.515  0.00  0.00    -0.008 A 
ATOM     16  C   UNL     1       3.395  -7.471  -1.103  0.00  0.00    +0.139 A 
ATOM     17  O   UNL     1       2.988  -6.332  -1.696  0.00  0.00    -0.450 OA
ATOM     18  C   UNL     1       4.833  -8.500  -2.887  0.00  0.00    +0.047 C 
ATOM     19  C   UNL     1       2.461  -8.637   2.403  0.00  0.00    +0.044 C 
ATOM     20  C   UNL     1       1.227  -5.840   1.494  0.00  0.00    +0.048 C 
ENDBRANCH   7   9
BRANCH   1  21
ATOM     21  C   UNL     1       0.491  -1.904  -1.556  0.00  0.00    +0.328 C 
ATOM     22  O   UNL     1      -0.458  -2.476  -1.073  0.00  0.00    -0.249 OA
BRANCH  21  23
ATOM     23  O   UNL     1       0.926  -0.754  -1.017  0.00  0.00    -0.464 OA
BRANCH  23  25
ATOM     24  C   UNL     1       0.857   1.045   0.595  0.00  0.00    +0.048 C 
ATOM     25  C   UNL     1       0.221  -0.265   0.125  0.00  0.00    +0.229 C 
ENDBRANCH  23  25
ENDBRANCH  21  23
ENDBRANCH   1  21
TORSDOF 4
