REMARK  Name = ZINC65181364
REMARK  8 active torsions:
REMARK  status: ('A' for Active; 'I' for Inactive)
REMARK    1  A    between atoms: C_1  and  C_2
REMARK    2  A    between atoms: C_3  and  C_15
REMARK    3  A    between atoms: N_5  and  C_7
REMARK    4  A    between atoms: N_17  and  N_18
REMARK    5  A    between atoms: N_21  and  C_22
REMARK    6  A    between atoms: C_22  and  C_23
REMARK    7  A    between atoms: C_23  and  C_24
REMARK    8  A    between atoms: C_23  and  C_25
REMARK                            x       y       z     vdW  Elec       q    Type
REMARK                         _______ _______ _______ _____ _____    ______ ____
ROOT
ATOM      1  C   UNL     1      -0.018   1.503   0.010  0.00  0.00    +0.068 C 
ATOM      2  C   UNL     1       0.002  -0.004   0.002  0.00  0.00    +0.074 A 
ATOM      3  C   UNL     1       0.008  -0.828  -1.147  0.00  0.00    +0.098 A 
ATOM      4  C   UNL     1       0.028  -2.139  -0.708  0.00  0.00    +0.145 A 
ATOM      5  N   UNL     1       0.034  -2.112   0.638  0.00  0.00    -0.220 N 
ATOM      6  N   UNL     1       0.023  -0.776   1.054  0.00  0.00    -0.170 NA
ATOM      7 CL   UNL     1       0.043  -3.558  -1.708  0.00  0.00    -0.061 Cl
ENDROOT
BRANCH   5   8
ATOM      8  C   UNL     1       0.053  -3.232   1.480  0.00  0.00    +0.067 A 
ATOM      9  C   UNL     1      -0.618  -4.391   1.112  0.00  0.00    +0.030 A 
ATOM     10  C   UNL     1      -0.598  -5.493   1.943  0.00  0.00    +0.040 A 
ATOM     11  C   UNL     1       0.090  -5.444   3.144  0.00  0.00    +0.124 A 
ATOM     12  C   UNL     1       0.759  -4.289   3.514  0.00  0.00    +0.040 A 
ATOM     13  C   UNL     1       0.747  -3.187   2.682  0.00  0.00    +0.030 A 
ATOM     14  F   UNL     1       0.107  -6.523   3.956  0.00  0.00    -0.205 F 
ENDBRANCH   5   8
BRANCH   3  15
ATOM     15  C   UNL     1      -0.005  -0.374  -2.548  0.00  0.00    +0.265 C 
ATOM     16  O   UNL     1       1.043  -0.173  -3.132  0.00  0.00    -0.268 OA
ATOM     17  N   UNL     1      -1.178  -0.183  -3.184  0.00  0.00    -0.229 N 
ATOM     18  H   UNL     1      -2.014  -0.344  -2.718  0.00  0.00    +0.173 HD
BRANCH  17  19
ATOM     19  N   UNL     1      -1.190   0.248  -4.517  0.00  0.00    -0.218 N 
ATOM     20  C   UNL     1      -2.363   0.439  -5.152  0.00  0.00    +0.316 C 
ATOM     21  O   UNL     1      -2.374   0.813  -6.309  0.00  0.00    -0.251 OA
ATOM     22  N   UNL     1      -3.524   0.215  -4.506  0.00  0.00    -0.298 N 
ATOM     23  H   UNL     1      -0.354   0.409  -4.982  0.00  0.00    +0.174 HD
ATOM     24  H   UNL     1      -3.516  -0.083  -3.583  0.00  0.00    +0.150 HD
BRANCH  22  25
ATOM     25  C   UNL     1      -4.799   0.423  -5.197  0.00  0.00    +0.108 C 
BRANCH  25  26
ATOM     26  C   UNL     1      -5.953   0.101  -4.245  0.00  0.00    -0.000 C 
ATOM     27  C   UNL     1      -5.953   1.101  -3.087  0.00  0.00    +0.009 C 
ATOM     28  C   UNL     1      -7.280   0.197  -5.001  0.00  0.00    +0.009 C 
ENDBRANCH  25  26
ENDBRANCH  22  25
ENDBRANCH  17  19
ENDBRANCH   3  15
TORSDOF 5
