REMARK  Name = ZINC64057449
REMARK  3 active torsions:
REMARK  status: ('A' for Active; 'I' for Inactive)
REMARK    1  A    between atoms: N_13  and  C_14
REMARK    2  A    between atoms: C_14  and  C_15
REMARK    3  A    between atoms: C_20  and  C_23
REMARK                            x       y       z     vdW  Elec       q    Type
REMARK                         _______ _______ _______ _____ _____    ______ ____
ROOT
ATOM      1  C   UNL     1       5.312   0.337   1.579  0.00  0.00    +0.236 C 
ATOM      2  O   UNL     1       4.663   0.130   2.583  0.00  0.00    -0.274 OA
ATOM      3  N   UNL     1       6.478   1.009   1.657  0.00  0.00    -0.296 N 
ATOM      4  C   UNL     1       6.993   1.500   2.946  0.00  0.00    +0.113 C 
ATOM      5  C   UNL     1       8.324   0.795   3.224  0.00  0.00    +0.054 C 
ATOM      6  C   UNL     1       9.187   0.805   1.996  0.00  0.00    -0.043 C 
ATOM      7  C   UNL     1       8.731   1.011   0.766  0.00  0.00    -0.004 C 
ATOM      8  C   UNL     1       7.287   1.274   0.459  0.00  0.00    +0.135 C 
ENDROOT
BRANCH   6   9
ATOM      9  C   UNL     1      10.568   0.581   2.159  0.00  0.00    -0.015 C 
ATOM     10  C   UNL     1      11.231   0.233   3.330  0.00  0.00    +0.022 A 
ATOM     11  C   UNL     1      10.785   0.004   4.652  0.00  0.00    +0.013 A 
ATOM     12  C   UNL     1      11.710  -0.330   5.596  0.00  0.00    +0.020 A 
ATOM     13  C   UNL     1      13.059  -0.440   5.260  0.00  0.00    +0.113 A 
ATOM     14  N   UNL     1      13.504  -0.235   4.047  0.00  0.00    -0.238 NA
ATOM     15  C   UNL     1      12.670   0.101   3.039  0.00  0.00    +0.135 A 
ATOM     16  N   UNL     1      12.904   0.347   1.769  0.00  0.00    -0.365 N 
ATOM     17  C   UNL     1      11.640   0.661   1.095  0.00  0.00    +0.150 C 
ATOM     18  H   UNL     1      13.775   0.322   1.343  0.00  0.00    +0.161 HD
ENDBRANCH   6   9
BRANCH   1  19
ATOM     19  C   UNL     1       4.815  -0.159   0.246  0.00  0.00    +0.222 C 
BRANCH  19  32
ATOM     20  C   UNL     1      -0.064   1.224   0.199  0.00  0.00    +0.001 A 
ATOM     21  C   UNL     1       1.135   1.898   0.024  0.00  0.00    +0.002 A 
ATOM     22  C   UNL     1       2.338   1.225   0.096  0.00  0.00    +0.027 A 
ATOM     23  C   UNL     1       2.350  -0.139   0.347  0.00  0.00    +0.059 A 
ATOM     24  C   UNL     1       1.136  -0.823   0.524  0.00  0.00    +0.063 A 
ATOM     25  C   UNL     1      -0.071  -0.133   0.449  0.00  0.00    +0.015 A 
ATOM     26  C   UNL     1       1.185  -2.272   0.789  0.00  0.00    +0.262 A 
ATOM     27  O   UNL     1       0.163  -2.912   0.950  0.00  0.00    -0.267 OA
ATOM     28  N   UNL     1       2.394  -2.872   0.849  0.00  0.00    -0.274 N 
ATOM     29  H   UNL     1       2.444  -3.825   1.022  0.00  0.00    +0.173 HD
ATOM     30  C   UNL     1       3.526  -2.174   0.672  0.00  0.00    +0.330 A 
ATOM     31  O   UNL     1       4.588  -2.763   0.735  0.00  0.00    -0.246 OA
ATOM     32  N   UNL     1       3.537  -0.852   0.428  0.00  0.00    -0.285 N 
ENDBRANCH  19  32
ENDBRANCH   1  19
TORSDOF 3
