REMARK  Name = ZINC39597553
REMARK  7 active torsions:
REMARK  status: ('A' for Active; 'I' for Inactive)
REMARK    1  A    between atoms: C_1  and  C_2
REMARK    2  A    between atoms: C_2  and  C_3
REMARK    3  A    between atoms: C_2  and  C_4
REMARK    4  A    between atoms: C_8  and  C_17
REMARK    5  A    between atoms: N_19  and  C_20
REMARK    6  A    between atoms: C_20  and  C_21
REMARK    7  A    between atoms: C_21  and  C_22
REMARK                            x       y       z     vdW  Elec       q    Type
REMARK                         _______ _______ _______ _____ _____    ______ ____
ROOT
ATOM      1  C   UNL     1       0.850  -0.543   1.330  0.00  0.00    +0.218 C 
ATOM      2  O   UNL     1       1.815  -1.272   1.236  0.00  0.00    -0.275 OA
ATOM      3  N   UNL     1       0.350  -0.240   2.544  0.00  0.00    -0.300 N 
ATOM      4  C   UNL     1      -0.816   0.619   2.858  0.00  0.00    +0.121 C 
ATOM      5  C   UNL     1      -1.530  -0.101   4.023  0.00  0.00    +0.100 C 
ATOM      6  C   UNL     1      -0.437  -0.959   4.683  0.00  0.00    -0.004 C 
ATOM      7  C   UNL     1       0.838  -0.698   3.868  0.00  0.00    +0.115 C 
ATOM      8  C   UNL     1      -0.809  -2.437   4.610  0.00  0.00    -0.010 C 
ATOM      9  C   UNL     1       0.265  -3.264   5.322  0.00  0.00    -0.082 C 
ATOM     10  N   UNL     1       0.368  -2.834   6.722  0.00  0.00    +0.379 N 
ATOM     11  C   UNL     1       0.816  -1.438   6.784  0.00  0.00    -0.082 C 
ATOM     12  C   UNL     1      -0.234  -0.533   6.134  0.00  0.00    -0.010 C 
ATOM     13  H   UNL     1      -0.535  -2.916   7.165  0.00  0.00    -0.086 HD
ATOM     14  H   UNL     1       1.032  -3.421   7.204  0.00  0.00    -0.086 HD
ENDROOT
BRANCH   5  15
ATOM     15  C   UNL     1      -2.076   0.903   5.005  0.00  0.00    +0.218 C 
ATOM     16  O   UNL     1      -1.512   1.965   5.164  0.00  0.00    -0.275 OA
ATOM     17  N   UNL     1      -3.192   0.621   5.707  0.00  0.00    -0.315 N 
ATOM     18  H   UNL     1      -3.643  -0.228   5.580  0.00  0.00    +0.149 HD
BRANCH  17  19
ATOM     19  C   UNL     1      -3.723   1.597   6.661  0.00  0.00    +0.109 C 
BRANCH  19  20
ATOM     20  C   UNL     1      -4.985   1.034   7.318  0.00  0.00    +0.056 C 
BRANCH  20  21
ATOM     21  C   UNL     1      -5.531   2.038   8.300  0.00  0.00    -0.021 A 
ATOM     22  C   UNL     1      -6.425   3.158   7.995  0.00  0.00    +0.003 A 
ATOM     23  C   UNL     1      -7.017   3.635   6.825  0.00  0.00    +0.010 A 
ATOM     24  C   UNL     1      -7.826   4.736   6.874  0.00  0.00    +0.001 A 
ATOM     25  C   UNL     1      -8.062   5.384   8.079  0.00  0.00    +0.002 A 
ATOM     26  C   UNL     1      -7.487   4.930   9.245  0.00  0.00    +0.026 A 
ATOM     27  C   UNL     1      -6.661   3.811   9.219  0.00  0.00    +0.047 A 
ATOM     28  N   UNL     1      -5.958   3.129  10.186  0.00  0.00    -0.360 N 
ATOM     29  C   UNL     1      -5.295   2.072   9.621  0.00  0.00    +0.087 A 
ATOM     30  H   UNL     1      -5.938   3.360  11.128  0.00  0.00    +0.165 HD
ENDBRANCH  20  21
ENDBRANCH  19  20
ENDBRANCH  17  19
ENDBRANCH   5  15
BRANCH   1  32
ATOM     31  C   UNL     1       0.265   1.553   0.141  0.00  0.00    +0.017 C 
ATOM     32  C   UNL     1       0.211   0.025   0.089  0.00  0.00    +0.069 C 
ATOM     33  C   UNL     1       0.966  -0.471  -1.146  0.00  0.00    +0.017 C 
ENDBRANCH   1  32
TORSDOF 5
