REMARK  Name = ZINC38744780
REMARK  3 active torsions:
REMARK  status: ('A' for Active; 'I' for Inactive)
REMARK    1  A    between atoms: C_4  and  C_7
REMARK    2  A    between atoms: C_9  and  C_13
REMARK    3  A    between atoms: C_17  and  C_22
REMARK                            x       y       z     vdW  Elec       q    Type
REMARK                         _______ _______ _______ _____ _____    ______ ____
ROOT
ATOM      1  C   UNL     1       5.782  -3.012   1.181  0.00  0.00    +0.182 C 
ATOM      2  N   UNL     1       7.263  -3.136   1.246  0.00  0.00    -0.265 N 
ATOM      3  N   UNL     1       7.895  -2.137   1.924  0.00  0.00    -0.224 N 
ATOM      4  C   UNL     1       9.169  -1.600   1.987  0.00  0.00    +0.154 A 
ATOM      5  N   UNL     1       9.164  -0.660   2.886  0.00  0.00    -0.132 NA
ATOM      6  N   UNL     1       7.988  -0.541   3.394  0.00  0.00    -0.121 NA
ATOM      7  C   UNL     1       7.188  -1.393   2.834  0.00  0.00    +0.210 A 
ATOM      8  S   UNL     1       5.524  -2.021   2.717  0.00  0.00    -0.058 S 
ATOM      9  H   UNL     1       7.534  -4.041   1.599  0.00  0.00    +0.168 HD
ENDROOT
BRANCH   4  10
ATOM     10  C   UNL     1      10.353  -2.028   1.159  0.00  0.00    +0.059 C 
ATOM     11  C   UNL     1      11.472  -2.514   2.083  0.00  0.00    +0.011 C 
ATOM     12  C   UNL     1      12.674  -2.949   1.243  0.00  0.00    +0.001 C 
ATOM     13  C   UNL     1      13.174  -1.763   0.416  0.00  0.00    +0.000 C 
ATOM     14  C   UNL     1      12.055  -1.278  -0.508  0.00  0.00    +0.001 C 
ATOM     15  C   UNL     1      10.853  -0.842   0.332  0.00  0.00    +0.011 C 
ENDBRANCH   4  10
BRANCH   1  18
ATOM     16  C   UNL     1       3.699  -0.689  -0.037  0.00  0.00    +0.091 C 
ATOM     17  C   UNL     1       3.832  -2.029  -0.051  0.00  0.00    +0.034 C 
ATOM     18  C   UNL     1       5.335  -2.245  -0.065  0.00  0.00    +0.185 C 
ATOM     19  N   UNL     1       5.871  -0.874  -0.056  0.00  0.00    -0.177 NA
ATOM     20  N   UNL     1       4.919  -0.090  -0.047  0.00  0.00    -0.154 NA
BRANCH  16  24
ATOM     21  C   UNL     1      -0.017   1.379   0.010  0.00  0.00    +0.000 A 
ATOM     22  C   UNL     1       1.169   2.092   0.002  0.00  0.00    +0.001 A 
ATOM     23  C   UNL     1       2.377   1.426  -0.013  0.00  0.00    +0.010 A 
ATOM     24  C   UNL     1       2.402   0.033  -0.021  0.00  0.00    +0.002 A 
ATOM     25  C   UNL     1       1.205  -0.680  -0.013  0.00  0.00    +0.010 A 
ATOM     26  C   UNL     1       0.002  -0.004   0.002  0.00  0.00    +0.001 A 
ENDBRANCH  16  24
ENDBRANCH   1  18
TORSDOF 3
