REMARK  Name = ZINC03238511
REMARK  10 active torsions:
REMARK  status: ('A' for Active; 'I' for Inactive)
REMARK    1  A    between atoms: C_1  and  C_2
REMARK    2  A    between atoms: C_3  and  C_20
REMARK    3  A    between atoms: C_10  and  C_11
REMARK    4  A    between atoms: C_11  and  C_13
REMARK    5  A    between atoms: N_21  and  N_22
REMARK    6  A    between atoms: C_23  and  O_25
REMARK    7  A    between atoms: O_25  and  C_26
REMARK    8  A    between atoms: C_26  and  C_27
REMARK    9  A    between atoms: C_26  and  C_28
REMARK   10  A    between atoms: C_26  and  C_29
REMARK                            x       y       z     vdW  Elec       q    Type
REMARK                         _______ _______ _______ _____ _____    ______ ____
ROOT
ATOM      1  C   UNL     1      -1.266   4.895   0.025  0.00  0.00    +0.047 C 
ATOM      2  C   UNL     1      -0.510   3.591   0.020  0.00  0.00    -0.012 A 
ATOM      3  C   UNL     1      -1.071   2.312   0.017  0.00  0.00    +0.023 A 
ATOM      4  C   UNL     1      -0.002   1.388   0.015  0.00  0.00    +0.056 A 
ATOM      5  C   UNL     1       0.023  -0.013   0.013  0.00  0.00    +0.027 A 
ATOM      6  C   UNL     1       1.225  -0.661   0.006  0.00  0.00    +0.003 A 
ATOM      7  C   UNL     1       2.411   0.086   0.000  0.00  0.00    +0.018 A 
ATOM      8  C   UNL     1       2.364   1.438   0.002  0.00  0.00    +0.092 A 
ATOM      9  N   UNL     1       1.169   2.094   0.010  0.00  0.00    -0.312 N 
ATOM     10  C   UNL     1       0.869   3.443   0.012  0.00  0.00    +0.098 A 
ENDROOT
BRANCH  10  11
ATOM     11  C   UNL     1       1.812   4.498   0.008  0.00  0.00    +0.210 C 
ATOM     12  O   UNL     1       2.157   5.011   1.059  0.00  0.00    -0.285 OA
BRANCH  11  13
ATOM     13  C   UNL     1       2.378   4.978  -1.270  0.00  0.00    +0.024 A 
ATOM     14  C   UNL     1       1.908   4.466  -2.481  0.00  0.00    +0.014 A 
ATOM     15  C   UNL     1       2.437   4.920  -3.670  0.00  0.00    +0.039 A 
ATOM     16  C   UNL     1       3.440   5.877  -3.665  0.00  0.00    +0.123 A 
ATOM     17  C   UNL     1       3.914   6.385  -2.465  0.00  0.00    +0.039 A 
ATOM     18  C   UNL     1       3.389   5.941  -1.270  0.00  0.00    +0.014 A 
ATOM     19  F   UNL     1       3.958   6.316  -4.833  0.00  0.00    -0.205 F 
ENDBRANCH  11  13
ENDBRANCH  10  11
BRANCH   3  20
ATOM     20  C   UNL     1      -2.505   1.988   0.017  0.00  0.00    +0.140 C 
ATOM     21  N   UNL     1      -2.890   0.747   0.017  0.00  0.00    -0.185 NA
BRANCH  21  22
ATOM     22  N   UNL     1      -4.257   0.438   0.017  0.00  0.00    -0.172 N 
ATOM     23  C   UNL     1      -4.657  -0.849   0.017  0.00  0.00    +0.420 C 
ATOM     24  O   UNL     1      -5.842  -1.117   0.017  0.00  0.00    -0.225 OA
ATOM     25  H   UNL     1      -4.915   1.150   0.018  0.00  0.00    +0.181 HD
BRANCH  23  26
ATOM     26  O   UNL     1      -3.743  -1.839   0.016  0.00  0.00    -0.444 OA
BRANCH  26  27
ATOM     27  C   UNL     1      -4.246  -3.201   0.015  0.00  0.00    +0.107 C 
ATOM     28  C   UNL     1      -5.099  -3.429  -1.233  0.00  0.00    +0.055 C 
ATOM     29  C   UNL     1      -3.069  -4.179   0.015  0.00  0.00    +0.055 C 
ATOM     30  C   UNL     1      -5.098  -3.430   1.265  0.00  0.00    +0.055 C 
ENDBRANCH  26  27
ENDBRANCH  23  26
ENDBRANCH  21  22
ENDBRANCH   3  20
TORSDOF 6
