REMARK  Name = ZINC05782581
REMARK  9 active torsions:
REMARK  status: ('A' for Active; 'I' for Inactive)
REMARK    1  A    between atoms: C_1  and  C_2
REMARK    2  A    between atoms: C_3  and  N_15
REMARK    3  A    between atoms: N_6  and  C_9
REMARK    4  A    between atoms: N_7  and  C_8
REMARK    5  A    between atoms: C_16  and  C_18
REMARK    6  A    between atoms: C_18  and  C_20
REMARK    7  A    between atoms: C_18  and  O_21
REMARK    8  A    between atoms: O_21  and  C_22
REMARK    9  A    between atoms: C_22  and  C_24
REMARK                            x       y       z     vdW  Elec       q    Type
REMARK                         _______ _______ _______ _____ _____    ______ ____
ROOT
ATOM      1  N   UNL     1      -2.503   1.761  -0.058  0.00  0.00    -0.277 N 
ATOM      2  C   UNL     1      -2.891   1.127  -1.182  0.00  0.00    +0.258 C 
ATOM      3  O   UNL     1      -2.121   1.016  -2.113  0.00  0.00    -0.271 OA
ATOM      4  H   UNL     1      -3.140   1.913   0.658  0.00  0.00    +0.155 HD
ENDROOT
BRANCH   1   7
ATOM      5  C   UNL     1      -1.671   4.665   0.478  0.00  0.00    +0.067 C 
ATOM      6  C   UNL     1      -0.767   3.470   0.315  0.00  0.00    +0.059 A 
ATOM      7  C   UNL     1      -1.172   2.202   0.079  0.00  0.00    +0.121 A 
ATOM      8  C   UNL     1       0.031   1.372  -0.005  0.00  0.00    +0.293 A 
ATOM      9  O   UNL     1       0.071   0.171  -0.205  0.00  0.00    -0.264 OA
ATOM     10  N   UNL     1       1.087   2.192   0.176  0.00  0.00    -0.216 N 
ATOM     11  N   UNL     1       0.601   3.489   0.374  0.00  0.00    -0.282 N 
ATOM     12  C   UNL     1       1.425   4.678   0.607  0.00  0.00    +0.171 C 
BRANCH  10  13
ATOM     13  C   UNL     1       2.433   1.811   0.167  0.00  0.00    +0.067 A 
ATOM     14  C   UNL     1       3.356   2.536  -0.577  0.00  0.00    +0.028 A 
ATOM     15  C   UNL     1       4.685   2.161  -0.579  0.00  0.00    +0.002 A 
ATOM     16  C   UNL     1       5.095   1.058   0.148  0.00  0.00    +0.000 A 
ATOM     17  C   UNL     1       4.178   0.332   0.885  0.00  0.00    +0.002 A 
ATOM     18  C   UNL     1       2.848   0.705   0.896  0.00  0.00    +0.028 A 
ENDBRANCH  10  13
ENDBRANCH   1   7
BRANCH   2  19
ATOM     19  C   UNL     1      -4.282   0.555  -1.283  0.00  0.00    +0.259 C 
ATOM     20  C   UNL     1      -4.444  -0.574  -0.263  0.00  0.00    +0.062 C 
BRANCH  19  21
ATOM     21  O   UNL     1      -4.494   0.032  -2.621  0.00  0.00    -0.449 OA
BRANCH  21  22
ATOM     22  C   UNL     1      -5.755   0.061  -3.095  0.00  0.00    +0.340 C 
ATOM     23  O   UNL     1      -6.652   0.510  -2.410  0.00  0.00    -0.245 OA
BRANCH  22  24
ATOM     24  C   UNL     1      -6.046  -0.453  -4.448  0.00  0.00    +0.059 A 
ATOM     25  C   UNL     1      -5.016  -0.965  -5.241  0.00  0.00    +0.016 A 
ATOM     26  C   UNL     1      -5.296  -1.449  -6.501  0.00  0.00    +0.021 A 
ATOM     27  C   UNL     1      -6.593  -1.418  -6.986  0.00  0.00    +0.041 A 
ATOM     28  C   UNL     1      -7.618  -0.906  -6.207  0.00  0.00    +0.021 A 
ATOM     29  C   UNL     1      -7.352  -0.424  -4.943  0.00  0.00    +0.016 A 
ATOM     30 CL   UNL     1      -6.936  -2.023  -8.577  0.00  0.00    -0.084 Cl
ENDBRANCH  22  24
ENDBRANCH  21  22
ENDBRANCH  19  21
ENDBRANCH   2  19
TORSDOF 6
