REMARK  Name = ZINC57351862
REMARK  3 active torsions:
REMARK  status: ('A' for Active; 'I' for Inactive)
REMARK    1  A    between atoms: C_1  and  C_2
REMARK    2  A    between atoms: C_5  and  C_20
REMARK    3  A    between atoms: C_6  and  N_8
REMARK                            x       y       z     vdW  Elec       q    Type
REMARK                         _______ _______ _______ _____ _____    ______ ____
ROOT
ATOM      1  N   UNL     1       0.051  -2.798   2.394  0.00  0.00    -0.228 N 
ATOM      2  C   UNL     1       1.230  -3.119   2.973  0.00  0.00    +0.275 A 
ATOM      3  O   UNL     1       2.283  -2.796   2.453  0.00  0.00    -0.266 OA
ATOM      4  C   UNL     1       1.222  -3.827   4.179  0.00  0.00    +0.101 A 
ATOM      5  C   UNL     1       0.025  -4.207   4.793  0.00  0.00    +0.063 A 
ATOM      6  C   UNL     1       0.203  -4.904   5.984  0.00  0.00    +0.034 A 
ATOM      7  C   UNL     1       1.453  -5.149   6.435  0.00  0.00    +0.048 A 
ATOM      8  S   UNL     1       2.459  -4.455   5.281  0.00  0.00    -0.090 S 
ATOM      9  N   UNL     1      -1.155  -3.837   4.131  0.00  0.00    -0.306 N 
ATOM     10  H   UNL     1      -2.014  -4.075   4.513  0.00  0.00    +0.170 HD
ATOM     11  C   UNL     1      -1.107  -3.153   2.978  0.00  0.00    +0.334 A 
ATOM     12  O   UNL     1      -2.152  -2.846   2.436  0.00  0.00    -0.246 OA
ENDROOT
BRANCH   1  18
ATOM     13  C   UNL     1      -0.018   1.503   0.010  0.00  0.00    +0.044 C 
ATOM     14  C   UNL     1       0.002  -0.004   0.002  0.00  0.00    -0.048 A 
ATOM     15  C   UNL     1       0.006  -0.688  -1.200  0.00  0.00    +0.004 A 
ATOM     16  C   UNL     1       0.024  -2.071  -1.212  0.00  0.00    +0.005 A 
ATOM     17  C   UNL     1       0.040  -2.773  -0.022  0.00  0.00    -0.026 A 
ATOM     18  C   UNL     1       0.036  -2.089   1.186  0.00  0.00    +0.058 A 
ATOM     19  C   UNL     1       0.023  -0.700   1.194  0.00  0.00    +0.030 A 
ATOM     20  C   UNL     1       0.059  -4.279  -0.036  0.00  0.00    +0.046 C 
ENDBRANCH   1  18
TORSDOF 1
