REMARK  Name = ZINC09601247
REMARK  8 active torsions:
REMARK  status: ('A' for Active; 'I' for Inactive)
REMARK    1  A    between atoms: C_1  and  C_2
REMARK    2  A    between atoms: N_5  and  C_9
REMARK    3  A    between atoms: C_9  and  C_11
REMARK    4  A    between atoms: C_9  and  C_19
REMARK    5  A    between atoms: C_11  and  C_13
REMARK    6  A    between atoms: C_26  and  C_27
REMARK    7  A    between atoms: C_26  and  N_63
REMARK    8  A    between atoms: C_28  and  C_29
REMARK                            x       y       z     vdW  Elec       q    Type
REMARK                         _______ _______ _______ _____ _____    ______ ____
ROOT
ATOM      1  C   UNL     1       0.263  -0.412   1.423  0.00  0.00    +0.246 C 
ATOM      2  O   UNL     1      -0.652  -0.793   2.121  0.00  0.00    -0.273 OA
ATOM      3  N   UNL     1       1.508  -0.324   1.932  0.00  0.00    -0.303 N 
ATOM      4  C   UNL     1       2.648   0.046   1.080  0.00  0.00    +0.089 C 
ATOM      5  C   UNL     1       3.405   1.198   1.761  0.00  0.00    -0.059 C 
ATOM      6  C   UNL     1       2.557   0.568   3.944  0.00  0.00    -0.059 C 
ATOM      7  C   UNL     1       1.764  -0.603   3.353  0.00  0.00    +0.089 C 
ATOM      8  N   UNL     1       3.774   0.776   3.130  0.00  0.00    +0.384 N 
ATOM      9  H   UNL     1       4.294  -0.108   3.077  0.00  0.00    -0.081 HD
ENDROOT
BRANCH   1  10
ATOM     10  C   UNL     1       0.009  -0.036  -0.014  0.00  0.00    +0.247 C 
BRANCH  10  15
ATOM     11  C   UNL     1       2.752  -3.680  -3.463  0.00  0.00    +0.044 C 
ATOM     12  C   UNL     1       2.023  -2.729  -2.550  0.00  0.00    -0.044 A 
ATOM     13  C   UNL     1       2.308  -1.357  -2.583  0.00  0.00    +0.021 A 
ATOM     14  C   UNL     1       1.648  -0.510  -1.758  0.00  0.00    +0.090 A 
ATOM     15  N   UNL     1       0.709  -0.974  -0.895  0.00  0.00    -0.296 N 
ATOM     16  C   UNL     1       0.417  -2.287  -0.837  0.00  0.00    +0.253 A 
ATOM     17  O   UNL     1      -0.427  -2.690  -0.051  0.00  0.00    -0.268 OA
ATOM     18  C   UNL     1       1.079  -3.193  -1.682  0.00  0.00    +0.073 A 
ENDBRANCH  10  15
BRANCH  10  19
ATOM     19  C   UNL     1      -1.471  -0.093  -0.294  0.00  0.00    +0.195 C 
ATOM     20  O   UNL     1      -1.931  -1.008  -0.942  0.00  0.00    -0.289 OA
BRANCH  19  21
ATOM     21  C   UNL     1      -2.357   0.966   0.215  0.00  0.00    +0.020 A 
ATOM     22  C   UNL     1      -1.819   2.078   0.872  0.00  0.00    +0.011 A 
ATOM     23  C   UNL     1      -2.656   3.068   1.341  0.00  0.00    +0.001 A 
ATOM     24  C   UNL     1      -4.025   2.960   1.173  0.00  0.00    +0.000 A 
ATOM     25  C   UNL     1      -4.566   1.860   0.529  0.00  0.00    +0.001 A 
ATOM     26  C   UNL     1      -3.742   0.864   0.049  0.00  0.00    +0.011 A 
ENDBRANCH  19  21
ENDBRANCH  10  19
ENDBRANCH   1  10
BRANCH   8  27
ATOM     27  C   UNL     1       4.633   1.801   3.759  0.00  0.00    -0.051 C 
BRANCH  27  28
ATOM     28  C   UNL     1       5.720   2.195   2.793  0.00  0.00    -0.045 C 
ATOM     29  C   UNL     1       5.900   3.471   2.482  0.00  0.00    +0.002 C 
BRANCH  29  30
ATOM     30  C   UNL     1       6.966   3.857   1.534  0.00  0.00    -0.025 A 
ATOM     31  C   UNL     1       7.789   2.882   0.970  0.00  0.00    +0.008 A 
ATOM     32  C   UNL     1       8.779   3.249   0.081  0.00  0.00    +0.001 A 
ATOM     33  C   UNL     1       8.964   4.581  -0.241  0.00  0.00    +0.000 A 
ATOM     34  C   UNL     1       8.155   5.553   0.319  0.00  0.00    +0.001 A 
ATOM     35  C   UNL     1       7.158   5.199   1.204  0.00  0.00    +0.008 A 
ENDBRANCH  29  30
ENDBRANCH  27  28
ENDBRANCH   8  27
TORSDOF 7
