REMARK  Name = ZINC06828630
REMARK  2 active torsions:
REMARK  status: ('A' for Active; 'I' for Inactive)
REMARK    1  A    between atoms: C_3  and  C_9
REMARK    2  A    between atoms: N_10  and  C_11
REMARK                            x       y       z     vdW  Elec       q    Type
REMARK                         _______ _______ _______ _____ _____    ______ ____
ROOT
ATOM      1  C   UNL     1       4.808   0.158   0.055  0.00  0.00    +0.066 A 
ATOM      2  C   UNL     1       3.830  -0.561   0.751  0.00  0.00    +0.030 A 
ATOM      3  C   UNL     1       3.850  -1.938   0.746  0.00  0.00    +0.030 A 
ATOM      4  C   UNL     1       4.841  -2.617   0.050  0.00  0.00    +0.067 A 
ATOM      5  C   UNL     1       5.821  -1.905  -0.648  0.00  0.00    +0.069 A 
ATOM      6  C   UNL     1       5.802  -0.522  -0.651  0.00  0.00    +0.055 A 
ATOM      7  N   UNL     1       6.660  -2.849  -1.237  0.00  0.00    -0.306 N 
ATOM      8  H   UNL     1       7.435  -2.654  -1.787  0.00  0.00    +0.170 HD
ATOM      9  C   UNL     1       6.212  -4.076  -0.912  0.00  0.00    +0.325 A 
ATOM     10  O   UNL     1       6.720  -5.124  -1.266  0.00  0.00    -0.247 OA
ATOM     11  N   UNL     1       5.117  -3.969  -0.138  0.00  0.00    -0.306 N 
ATOM     12  H   UNL     1       4.606  -4.708   0.228  0.00  0.00    +0.170 HD
ENDROOT
BRANCH   1  14
ATOM     13  C   UNL     1       3.720   2.163  -0.328  0.00  0.00    +0.120 C 
ATOM     14  N   UNL     1       4.787   1.526   0.062  0.00  0.00    -0.255 NA
BRANCH  13  17
ATOM     15  C   UNL     1       1.815  -0.454  -2.225  0.00  0.00    +0.002 A 
ATOM     16  C   UNL     1       2.859   0.232  -1.639  0.00  0.00    +0.011 A 
ATOM     17  C   UNL     1       2.611   1.426  -0.956  0.00  0.00    +0.013 A 
ATOM     18  C   UNL     1       1.303   1.917  -0.871  0.00  0.00    +0.068 A 
ATOM     19  C   UNL     1       0.268   1.218  -1.462  0.00  0.00    +0.060 A 
ATOM     20  C   UNL     1       0.524   0.036  -2.138  0.00  0.00    +0.021 A 
ATOM     21 CL   UNL     1      -1.356   1.823  -1.359  0.00  0.00    -0.082 Cl
ATOM     22 CL   UNL     1       0.982   3.397  -0.024  0.00  0.00    -0.081 Cl
ENDBRANCH  13  17
ENDBRANCH   1  14
TORSDOF 2
