REMARK  Name = ZINC44479281
REMARK  5 active torsions:
REMARK  status: ('A' for Active; 'I' for Inactive)
REMARK    1  A    between atoms: C_1  and  C_2
REMARK    2  A    between atoms: C_7  and  C_9
REMARK    3  A    between atoms: C_7  and  C_10
REMARK    4  A    between atoms: C_11  and  C_13
REMARK    5  A    between atoms: C_18  and  O_19
REMARK                            x       y       z     vdW  Elec       q    Type
REMARK                         _______ _______ _______ _____ _____    ______ ____
ROOT
ATOM      1  C   UNL     1       0.338   1.597  -0.075  0.00  0.00    +0.039 C 
ATOM      2  C   UNL     1       0.338   0.068  -0.037  0.00  0.00    +0.133 C 
ATOM      3  C   UNL     1       0.872  -0.477  -1.367  0.00  0.00    +0.139 C 
ATOM      4  N   UNL     1       1.038  -1.934  -1.238  0.00  0.00    -0.292 N 
ATOM      5  C   UNL     1       1.784  -2.445  -0.076  0.00  0.00    +0.142 C 
ATOM      6  C   UNL     1       1.205  -1.804   1.190  0.00  0.00    +0.080 C 
ATOM      7  O   UNL     1       1.177  -0.384   1.029  0.00  0.00    -0.368 OA
ATOM      8  C   UNL     1      -0.217  -2.320   1.420  0.00  0.00    +0.043 C 
ATOM      9  C   UNL     1       2.081  -2.164   2.391  0.00  0.00    +0.043 C 
ATOM     10  C   UNL     1       0.523  -2.775  -2.156  0.00  0.00    +0.250 C 
ATOM     11  O   UNL     1      -0.175  -2.342  -3.053  0.00  0.00    -0.270 OA
ENDROOT
BRANCH  10  12
ATOM     12  C   UNL     1       0.805  -4.220  -2.073  0.00  0.00    +0.078 A 
ATOM     13  C   UNL     1       2.110  -4.669  -1.856  0.00  0.00    +0.018 A 
ATOM     14  C   UNL     1       2.368  -6.020  -1.779  0.00  0.00    +0.021 A 
ATOM     15  C   UNL     1       1.337  -6.938  -1.917  0.00  0.00    +0.044 A 
ATOM     16  C   UNL     1       0.042  -6.506  -2.133  0.00  0.00    +0.066 A 
ATOM     17  C   UNL     1      -0.235  -5.150  -2.207  0.00  0.00    +0.130 A 
ATOM     18 CL   UNL     1       1.675  -8.638  -1.819  0.00  0.00    -0.083 Cl
BRANCH  17  19
ATOM     19  O   UNL     1      -1.507  -4.725  -2.413  0.00  0.00    -0.506 OA
ATOM     20  H   UNL     1      -1.742  -4.625  -3.346  0.00  0.00    +0.292 HD
ENDBRANCH  17  19
ENDBRANCH  10  12
TORSDOF 2
