REMARK  Name = ZINC37329203
REMARK  3 active torsions:
REMARK  status: ('A' for Active; 'I' for Inactive)
REMARK    1  A    between atoms: C_3  and  N_9
REMARK    2  A    between atoms: N_9  and  C_10
REMARK    3  A    between atoms: C_10  and  C_11
REMARK                            x       y       z     vdW  Elec       q    Type
REMARK                         _______ _______ _______ _____ _____    ______ ____
ROOT
ATOM      1  C   UNL     1       3.562   3.591  -0.014  0.00  0.00    +0.176 C 
ENDROOT
BRANCH   1   2
ATOM      2  C   UNL     1       4.976   4.112  -0.025  0.00  0.00    +0.128 A 
ATOM      3  N   UNL     1       5.169   5.458  -0.014  0.00  0.00    -0.309 N 
ATOM      4  H   UNL     1       4.410   6.061   0.000  0.00  0.00    +0.170 HD
ATOM      5  C   UNL     1       6.432   5.948  -0.024  0.00  0.00    +0.266 A 
ATOM      6  O   UNL     1       6.638   7.150  -0.015  0.00  0.00    -0.267 OA
ATOM      7  C   UNL     1       7.490   5.039  -0.045  0.00  0.00    +0.102 A 
ATOM      8  C   UNL     1       7.263   3.651  -0.055  0.00  0.00    +0.085 A 
ATOM      9  N   UNL     1       5.948   3.257  -0.038  0.00  0.00    -0.232 NA
ATOM     10  C   UNL     1       8.414   2.852  -0.076  0.00  0.00    +0.036 A 
ATOM     11  C   UNL     1       9.638   3.423  -0.084  0.00  0.00    +0.048 A 
ATOM     12  S   UNL     1       9.258   5.167  -0.063  0.00  0.00    -0.090 S 
ENDBRANCH   1   2
BRANCH   1  13
ATOM     13  N   UNL     1       3.582   2.126  -0.021  0.00  0.00    -0.336 N 
ATOM     14  H   UNL     1       4.429   1.653  -0.032  0.00  0.00    +0.147 HD
BRANCH  13  17
ATOM     15  C   UNL     1      -0.017   1.378   0.010  0.00  0.00    +0.003 A 
ATOM     16  C   UNL     1       1.169   2.087   0.002  0.00  0.00    +0.024 A 
ATOM     17  C   UNL     1       2.382   1.411  -0.013  0.00  0.00    +0.047 A 
ATOM     18  C   UNL     1       2.399   0.021  -0.021  0.00  0.00    +0.080 A 
ATOM     19  C   UNL     1       1.208  -0.683  -0.013  0.00  0.00    +0.061 A 
ATOM     20  C   UNL     1       0.002  -0.004   0.002  0.00  0.00    +0.021 A 
ATOM     21 CL   UNL     1       1.227  -2.419  -0.023  0.00  0.00    -0.082 Cl
ATOM     22 CL   UNL     1       3.912  -0.830  -0.040  0.00  0.00    -0.080 Cl
ENDBRANCH  13  17
ENDBRANCH   1  13
TORSDOF 3
