REMARK  Name = ZINC03445654
REMARK  7 active torsions:
REMARK  status: ('A' for Active; 'I' for Inactive)
REMARK    1  A    between atoms: C_1  and  C_2
REMARK    2  A    between atoms: C_3  and  N_11
REMARK    3  A    between atoms: C_7  and  N_8
REMARK    4  A    between atoms: C_12  and  C_14
REMARK    5  A    between atoms: C_14  and  O_15
REMARK    6  A    between atoms: O_15  and  C_16
REMARK    7  A    between atoms: C_16  and  C_18
REMARK                            x       y       z     vdW  Elec       q    Type
REMARK                         _______ _______ _______ _____ _____    ______ ____
ROOT
ATOM      1  N   UNL     1       0.840   3.388   0.543  0.00  0.00    -0.282 N 
ATOM      2  C   UNL     1      -0.356   3.922   0.857  0.00  0.00    +0.255 C 
ATOM      3  O   UNL     1      -1.355   3.233   0.826  0.00  0.00    -0.272 OA
ATOM      4  H   UNL     1       1.629   3.951   0.508  0.00  0.00    +0.155 HD
ENDROOT
BRANCH   1   7
ATOM      5  C   UNL     1       3.238   2.047   1.289  0.00  0.00    +0.048 C 
ATOM      6  C   UNL     1       2.099   1.327   0.615  0.00  0.00    +0.001 A 
ATOM      7  C   UNL     1       0.946   2.020   0.268  0.00  0.00    +0.039 A 
ATOM      8  C   UNL     1      -0.102   1.352  -0.352  0.00  0.00    +0.024 A 
ATOM      9  C   UNL     1       0.005   0.002  -0.622  0.00  0.00    +0.004 A 
ATOM     10  C   UNL     1       1.154  -0.685  -0.276  0.00  0.00    +0.033 A 
ATOM     11  C   UNL     1       2.200  -0.023   0.342  0.00  0.00    +0.131 A 
BRANCH  11  12
ATOM     12  N   UNL     1       3.428  -0.762   0.710  0.00  0.00    +0.057 N 
ATOM     13  O   UNL     1       3.468  -1.974   0.594  0.00  0.00    -0.126 OA
ATOM     14  O   UNL     1       4.399  -0.158   1.130  0.00  0.00    -0.126 OA
ENDBRANCH  11  12
ENDBRANCH   1   7
BRANCH   2  15
ATOM     15  C   UNL     1      -0.455   5.374   1.248  0.00  0.00    +0.328 C 
BRANCH  15  16
ATOM     16  O   UNL     1      -1.839   5.705   1.536  0.00  0.00    -0.452 OA
BRANCH  16  17
ATOM     17  C   UNL     1      -2.100   6.975   1.903  0.00  0.00    +0.341 C 
ATOM     18  O   UNL     1      -1.196   7.783   1.980  0.00  0.00    -0.245 OA
BRANCH  17  19
ATOM     19  C   UNL     1      -3.483   7.383   2.212  0.00  0.00    +0.080 A 
ATOM     20  C   UNL     1      -4.525   6.455   2.125  0.00  0.00    +0.057 A 
ATOM     21  C   UNL     1      -5.816   6.844   2.415  0.00  0.00    +0.159 A 
ATOM     22  C   UNL     1      -6.082   8.154   2.793  0.00  0.00    +0.160 A 
ATOM     23  C   UNL     1      -5.054   9.077   2.882  0.00  0.00    +0.062 A 
ATOM     24  C   UNL     1      -3.757   8.699   2.599  0.00  0.00    +0.058 A 
ATOM     25 CL   UNL     1      -2.468   9.856   2.717  0.00  0.00    -0.083 Cl
ATOM     26  F   UNL     1      -7.349   8.528   3.076  0.00  0.00    -0.202 F 
ATOM     27  F   UNL     1      -6.824   5.948   2.332  0.00  0.00    -0.202 F 
ENDBRANCH  17  19
ENDBRANCH  16  17
ENDBRANCH  15  16
ENDBRANCH   2  15
TORSDOF 6
