REMARK  Name = ZINC12774580
REMARK  6 active torsions:
REMARK  status: ('A' for Active; 'I' for Inactive)
REMARK    1  A    between atoms: C_5  and  C_7
REMARK    2  A    between atoms: C_7  and  C_9
REMARK    3  A    between atoms: C_7  and  N_56
REMARK    4  A    between atoms: C_9  and  N_10
REMARK    5  A    between atoms: C_11  and  C_13
REMARK    6  A    between atoms: C_13  and  N_14
REMARK                            x       y       z     vdW  Elec       q    Type
REMARK                         _______ _______ _______ _____ _____    ______ ____
ROOT
ATOM      1  N   UNL     1      -1.120  -5.674  -1.948  0.00  0.00    -0.315 N 
ATOM      2  C   UNL     1      -0.908  -4.347  -1.843  0.00  0.00    +0.232 C 
ATOM      3  O   UNL     1      -0.575  -3.707  -2.818  0.00  0.00    -0.274 OA
ATOM      4  H   UNL     1      -1.386  -6.186  -1.168  0.00  0.00    +0.149 HD
ENDROOT
BRANCH   1   5
ATOM      5  C   UNL     1      -0.947  -6.343  -3.240  0.00  0.00    +0.093 C 
BRANCH   5   6
ATOM      6  C   UNL     1      -1.119  -7.853  -3.059  0.00  0.00    -0.019 C 
BRANCH   6  11
ATOM      7  C   UNL     1       0.774  -9.116  -0.046  0.00  0.00    +0.000 A 
ATOM      8  C   UNL     1       2.023  -9.358  -0.586  0.00  0.00    +0.001 A 
ATOM      9  C   UNL     1       2.256  -9.114  -1.926  0.00  0.00    +0.020 A 
ATOM     10  C   UNL     1       1.238  -8.631  -2.729  0.00  0.00    +0.043 A 
ATOM     11  C   UNL     1      -0.011  -8.384  -2.187  0.00  0.00    -0.041 A 
ATOM     12  C   UNL     1      -0.243  -8.629  -0.846  0.00  0.00    +0.003 A 
ATOM     13 CL   UNL     1       1.528  -8.331  -4.414  0.00  0.00    -0.083 Cl
ENDBRANCH   6  11
BRANCH   6  18
ATOM     14  C   UNL     1      -3.525  -7.506  -3.191  0.00  0.00    -0.078 C 
ATOM     15  C   UNL     1      -4.769  -8.302  -2.722  0.00  0.00    -0.020 C 
ATOM     16  C   UNL     1      -4.222  -9.740  -2.573  0.00  0.00    -0.020 C 
ATOM     17  C   UNL     1      -2.701  -9.577  -2.402  0.00  0.00    -0.078 C 
ATOM     18  N   UNL     1      -2.441  -8.136  -2.423  0.00  0.00    +0.385 N 
ATOM     19  H   UNL     1      -2.438  -7.771  -1.463  0.00  0.00    -0.081 HD
ENDBRANCH   6  18
ENDBRANCH   5   6
ENDBRANCH   1   5
BRANCH   2  20
ATOM     20  C   UNL     1      -1.085  -3.659  -0.514  0.00  0.00    +0.227 C 
BRANCH  20  21
ATOM     21  N   UNL     1      -0.799  -2.230  -0.662  0.00  0.00    -0.194 N 
ATOM     22  C   UNL     1       0.457  -1.604  -0.602  0.00  0.00    +0.061 A 
ATOM     23  C   UNL     1       1.699  -2.199  -0.388  0.00  0.00    +0.025 A 
ATOM     24  C   UNL     1       2.859  -1.435  -0.356  0.00  0.00    +0.002 A 
ATOM     25  C   UNL     1       2.847  -0.081  -0.528  0.00  0.00    +0.009 A 
ATOM     26  C   UNL     1       1.619   0.564  -0.747  0.00  0.00    -0.014 A 
ATOM     27  C   UNL     1       0.447  -0.222  -0.778  0.00  0.00    +0.031 A 
ATOM     28  C   UNL     1      -0.795   0.385  -0.992  0.00  0.00    +0.118 A 
ATOM     29  C   UNL     1      -0.886   1.715  -1.171  0.00  0.00    +0.029 A 
ATOM     30  C   UNL     1       0.271   2.504  -1.142  0.00  0.00    +0.003 A 
ATOM     31  C   UNL     1       1.500   1.951  -0.935  0.00  0.00    +0.009 A 
ATOM     32  S   UNL     1      -1.901  -0.997  -0.941  0.00  0.00    +0.076 S 
ATOM     33  O   UNL     1      -2.706  -0.865   0.223  0.00  0.00    -0.150 OA
ATOM     34  O   UNL     1      -2.432  -1.177  -2.246  0.00  0.00    -0.150 OA
ENDBRANCH  20  21
ENDBRANCH   2  20
TORSDOF 6
