REMARK  Name = ZINC56860729
REMARK  8 active torsions:
REMARK  status: ('A' for Active; 'I' for Inactive)
REMARK    1  A    between atoms: C_1  and  C_2
REMARK    2  A    between atoms: C_7  and  O_8
REMARK    3  A    between atoms: O_8  and  C_9
REMARK    4  A    between atoms: C_9  and  C_10
REMARK    5  A    between atoms: C_10  and  C_12
REMARK    6  A    between atoms: C_10  and  N_13
REMARK    7  A    between atoms: N_16  and  N_17
REMARK    8  A    between atoms: C_18  and  C_20
REMARK                            x       y       z     vdW  Elec       q    Type
REMARK                         _______ _______ _______ _____ _____    ______ ____
ROOT
ATOM      1  N   UNL     1      -1.214   0.848   4.843  0.00  0.00    -0.292 N 
ATOM      2  C   UNL     1      -1.674   1.318   6.019  0.00  0.00    +0.316 C 
ATOM      3  O   UNL     1      -1.042   1.125   7.039  0.00  0.00    -0.251 OA
ATOM      4  N   UNL     1      -2.834   2.002   6.064  0.00  0.00    -0.218 N 
ATOM      5  H   UNL     1      -1.719   1.001   4.028  0.00  0.00    +0.151 HD
ATOM      6  H   UNL     1      -3.165   2.341   6.911  0.00  0.00    +0.174 HD
ENDROOT
BRANCH   4   7
ATOM      7  N   UNL     1      -3.563   2.224   4.888  0.00  0.00    -0.228 N 
ATOM      8  C   UNL     1      -4.723   2.908   4.933  0.00  0.00    +0.276 C 
ATOM      9  O   UNL     1      -5.138   3.333   5.995  0.00  0.00    -0.267 OA
ATOM     10  H   UNL     1      -3.232   1.885   4.041  0.00  0.00    +0.173 HD
BRANCH   8  11
ATOM     11  C   UNL     1      -5.486   3.140   3.702  0.00  0.00    +0.104 A 
ATOM     12  C   UNL     1      -6.678   3.825   3.599  0.00  0.00    +0.047 A 
ATOM     13  C   UNL     1      -7.048   3.806   2.251  0.00  0.00    +0.036 A 
ATOM     14  C   UNL     1      -6.096   3.126   1.568  0.00  0.00    +0.098 A 
ATOM     15  N   UNL     1      -5.138   2.720   2.438  0.00  0.00    -0.356 N 
ATOM     16  H   UNL     1      -4.342   2.217   2.209  0.00  0.00    +0.166 HD
ATOM     17 BR   UNL     1      -8.602   4.590   1.511  0.00  0.00    -0.049 Br
ENDBRANCH   8  11
ENDBRANCH   4   7
BRANCH   1  18
ATOM     18  C   UNL     1       0.047   0.104   4.793  0.00  0.00    +0.109 C 
ATOM     19  C   UNL     1       1.215   1.087   4.689  0.00  0.00    +0.031 C 
BRANCH  18  20
ATOM     20  C   UNL     1       0.048  -0.820   3.574  0.00  0.00    +0.251 C 
BRANCH  20  21
ATOM     21  O   UNL     1       0.025  -0.033   2.381  0.00  0.00    -0.490 OA
BRANCH  21  28
ATOM     22  C   UNL     1      -0.018   1.503   0.010  0.00  0.00    +0.047 C 
ATOM     23  C   UNL     1       0.002  -0.004   0.002  0.00  0.00    -0.009 A 
ATOM     24  C   UNL     1       0.006  -0.689  -1.198  0.00  0.00    +0.007 A 
ATOM     25  C   UNL     1       0.024  -2.071  -1.206  0.00  0.00    +0.000 A 
ATOM     26  C   UNL     1       0.039  -2.772  -0.014  0.00  0.00    +0.004 A 
ATOM     27  C   UNL     1       0.036  -2.092   1.188  0.00  0.00    +0.046 A 
ATOM     28  C   UNL     1       0.023  -0.705   1.199  0.00  0.00    +0.123 A 
ENDBRANCH  21  28
ENDBRANCH  20  21
ENDBRANCH  18  20
ENDBRANCH   1  18
TORSDOF 6
