REMARK  Name = ZINC27653224
REMARK  7 active torsions:
REMARK  status: ('A' for Active; 'I' for Inactive)
REMARK    1  A    between atoms: C_1  and  O_2
REMARK    2  A    between atoms: O_2  and  C_3
REMARK    3  A    between atoms: C_6  and  C_9
REMARK    4  A    between atoms: C_9  and  N_10
REMARK    5  A    between atoms: N_10  and  C_11
REMARK    6  A    between atoms: N_10  and  C_23
REMARK    7  A    between atoms: C_11  and  C_12
REMARK                            x       y       z     vdW  Elec       q    Type
REMARK                         _______ _______ _______ _____ _____    ______ ____
ROOT
ATOM      1  N   UNL     1      -0.844   1.475  -1.870  0.00  0.00    +0.388 N 
ATOM      2  H   UNL     1      -0.515   1.125  -2.860  0.00  0.00    -0.080 HD
ENDROOT
BRANCH   1   3
ATOM      3  C   UNL     1       0.077   0.924  -0.867  0.00  0.00    -0.045 C 
ATOM      4  C   UNL     1       0.039   1.790   0.403  0.00  0.00    +0.009 C 
ATOM      5  C   UNL     1       1.221   1.417   1.331  0.00  0.00    +0.164 C 
ATOM      6  S   UNL     1       2.490   0.813   0.145  0.00  0.00    -0.033 S 
ATOM      7  O   UNL     1       2.759  -0.556   0.413  0.00  0.00    -0.174 OA
ATOM      8  O   UNL     1       3.565   1.743   0.105  0.00  0.00    -0.174 OA
ATOM      9  C   UNL     1       1.530   0.940  -1.422  0.00  0.00    +0.151 C 
ENDBRANCH   1   3
BRANCH   1  10
ATOM     10  C   UNL     1      -0.801   2.943  -1.874  0.00  0.00    -0.042 C 
BRANCH  10  14
ATOM     11  C   UNL     1       2.977   4.254  -3.381  0.00  0.00    +0.120 A 
ATOM     12  C   UNL     1       1.992   3.820  -4.257  0.00  0.00    +0.046 A 
ATOM     13  C   UNL     1       0.772   3.397  -3.767  0.00  0.00    +0.005 A 
ATOM     14  C   UNL     1       0.531   3.405  -2.405  0.00  0.00    -0.064 A 
ATOM     15  C   UNL     1       1.509   3.843  -1.531  0.00  0.00    +0.005 A 
ATOM     16  C   UNL     1       2.733   4.261  -2.016  0.00  0.00    +0.046 A 
BRANCH  11  18
ATOM     17  C   UNL     1       5.145   5.103  -2.901  0.00  0.00    +0.277 C 
ATOM     18  O   UNL     1       4.178   4.670  -3.861  0.00  0.00    -0.495 OA
ENDBRANCH  11  18
ENDBRANCH  10  14
ENDBRANCH   1  10
BRANCH   1  19
ATOM     19  C   UNL     1      -2.213   0.989  -1.652  0.00  0.00    -0.038 C 
BRANCH  19  20
ATOM     20  C   UNL     1      -2.328  -0.429  -2.149  0.00  0.00    -0.019 A 
ATOM     21  C   UNL     1      -2.740  -0.675  -3.445  0.00  0.00    +0.043 A 
ATOM     22  C   UNL     1      -2.840  -1.977  -3.904  0.00  0.00    +0.124 A 
ATOM     23  C   UNL     1      -2.540  -3.034  -3.061  0.00  0.00    +0.047 A 
ATOM     24  C   UNL     1      -2.134  -2.791  -1.762  0.00  0.00    +0.023 A 
ATOM     25  C   UNL     1      -2.025  -1.487  -1.304  0.00  0.00    +0.130 A 
ATOM     26  O   UNL     1      -1.617  -1.234  -0.031  0.00  0.00    -0.466 OA
ATOM     27  C   UNL     1      -1.669  -2.325   0.893  0.00  0.00    +0.394 C 
ATOM     28  O   UNL     1      -1.076  -3.474   0.278  0.00  0.00    -0.339 OA
ATOM     29  C   UNL     1      -1.816  -3.949  -0.851  0.00  0.00    +0.202 C 
ATOM     30  F   UNL     1      -3.236  -2.217  -5.173  0.00  0.00    -0.205 F 
ENDBRANCH  19  20
ENDBRANCH   1  19
TORSDOF 6
