REMARK  Name = ZINC12409484
REMARK  5 active torsions:
REMARK  status: ('A' for Active; 'I' for Inactive)
REMARK    1  A    between atoms: C_1  and  C_2
REMARK    2  A    between atoms: N_8  and  C_9
REMARK    3  A    between atoms: C_9  and  C_10
REMARK    4  A    between atoms: C_10  and  C_11
REMARK    5  A    between atoms: N_23  and  C_26
REMARK                            x       y       z     vdW  Elec       q    Type
REMARK                         _______ _______ _______ _____ _____    ______ ____
ROOT
ATOM      1  C   UNL     1      -1.198   5.582   0.042  0.00  0.00    +0.064 C 
ATOM      2  C   UNL     1      -1.637   4.141   0.038  0.00  0.00    +0.033 A 
ATOM      3  C   UNL     1      -0.699   3.140   0.025  0.00  0.00    +0.085 A 
ATOM      4  C   UNL     1      -1.146   1.739   0.016  0.00  0.00    +0.075 A 
ATOM      5  C   UNL     1      -2.500   1.486   0.032  0.00  0.00    +0.098 A 
ATOM      6  C   UNL     1      -3.390   2.567   0.046  0.00  0.00    +0.254 A 
ATOM      7  O   UNL     1      -4.591   2.351   0.055  0.00  0.00    -0.268 OA
ATOM      8  N   UNL     1      -2.951   3.836   0.049  0.00  0.00    -0.311 N 
ATOM      9  N   UNL     1      -0.011   0.966   0.007  0.00  0.00    -0.289 N 
ATOM     10  H   UNL     1       0.002  -0.004   0.002  0.00  0.00    +0.187 HD
ATOM     11  N   UNL     1       1.122   1.784   0.001  0.00  0.00    -0.219 N 
ATOM     12  C   UNL     1       0.769   3.086   0.011  0.00  0.00    +0.281 A 
ATOM     13  O   UNL     1       1.527   4.038   0.009  0.00  0.00    -0.265 OA
ENDROOT
BRANCH  11  14
ATOM     14  C   UNL     1       2.441   1.317  -0.014  0.00  0.00    +0.067 A 
ATOM     15  C   UNL     1       3.498   2.218  -0.024  0.00  0.00    +0.030 A 
ATOM     16  C   UNL     1       4.799   1.755  -0.032  0.00  0.00    +0.040 A 
ATOM     17  C   UNL     1       5.050   0.393  -0.043  0.00  0.00    +0.124 A 
ATOM     18  C   UNL     1       3.998  -0.507  -0.038  0.00  0.00    +0.040 A 
ATOM     19  C   UNL     1       2.695  -0.048  -0.024  0.00  0.00    +0.030 A 
ATOM     20  F   UNL     1       6.324  -0.058  -0.057  0.00  0.00    -0.205 F 
ENDBRANCH  11  14
BRANCH   8  21
ATOM     21  C   UNL     1      -3.930   4.925   0.063  0.00  0.00    +0.130 C 
BRANCH  21  22
ATOM     22  C   UNL     1      -4.284   5.312  -1.375  0.00  0.00    +0.059 C 
BRANCH  22  23
ATOM     23  C   UNL     1      -5.292   6.432  -1.360  0.00  0.00    -0.021 A 
ATOM     24  C   UNL     1      -6.626   6.307  -1.442  0.00  0.00    +0.087 A 
ATOM     25  N   UNL     1      -7.214   7.542  -1.397  0.00  0.00    -0.360 N 
ATOM     26  H   UNL     1      -8.169   7.706  -1.440  0.00  0.00    +0.165 HD
ATOM     27  C   UNL     1      -6.248   8.516  -1.281  0.00  0.00    +0.047 A 
ATOM     28  C   UNL     1      -5.002   7.863  -1.247  0.00  0.00    +0.003 A 
ATOM     29  C   UNL     1      -3.828   8.609  -1.127  0.00  0.00    +0.010 A 
ATOM     30  C   UNL     1      -3.896   9.971  -1.040  0.00  0.00    +0.001 A 
ATOM     31  C   UNL     1      -5.122  10.620  -1.070  0.00  0.00    +0.002 A 
ATOM     32  C   UNL     1      -6.293   9.904  -1.195  0.00  0.00    +0.026 A 
ENDBRANCH  22  23
ENDBRANCH  21  22
ENDBRANCH   8  21
TORSDOF 4
