REMARK  Name = ZINC12635533
REMARK  11 active torsions:
REMARK  status: ('A' for Active; 'I' for Inactive)
REMARK    1  A    between atoms: C_1  and  C_2
REMARK    2  A    between atoms: C_2  and  N_3
REMARK    3  A    between atoms: C_8  and  C_21
REMARK    4  A    between atoms: C_10  and  C_15
REMARK    5  A    between atoms: C_10  and  C_16
REMARK    6  A    between atoms: C_16  and  O_18
REMARK    7  A    between atoms: O_18  and  C_19
REMARK    8  A    between atoms: C_19  and  C_20
REMARK    9  A    between atoms: C_24  and  C_27
REMARK   10  A    between atoms: C_27  and  C_28
REMARK   11  A    between atoms: C_27  and  C_29
REMARK                            x       y       z     vdW  Elec       q    Type
REMARK                         _______ _______ _______ _____ _____    ______ ____
ROOT
ATOM      1  N   UNL     1      -3.461  -5.985  -0.547  0.00  0.00    -0.242 N 
ATOM      2  C   UNL     1      -4.454  -5.372  -1.270  0.00  0.00    +0.224 C 
ATOM      3  O   UNL     1      -5.192  -5.877  -2.088  0.00  0.00    -0.275 OA
ATOM      4  C   UNL     1      -4.424  -3.968  -0.857  0.00  0.00    +0.077 C 
ATOM      5  C   UNL     1      -4.761  -2.680  -1.515  0.00  0.00    -0.027 C 
ATOM      6  C   UNL     1      -2.902  -2.434   0.017  0.00  0.00    +0.041 C 
ATOM      7  C   UNL     1      -2.869  -3.798  -0.632  0.00  0.00    +0.085 C 
ATOM      8  C   UNL     1      -2.613  -5.088   0.048  0.00  0.00    +0.225 C 
ATOM      9  O   UNL     1      -1.823  -5.304   0.941  0.00  0.00    -0.275 OA
ATOM     10  C   UNL     1      -3.442  -2.525   1.445  0.00  0.00    +0.002 C 
ATOM     11  N   UNL     1      -3.852  -1.690  -0.864  0.00  0.00    +0.395 N 
ATOM     12  H   UNL     1      -4.402  -1.030  -0.302  0.00  0.00    -0.083 HD
ATOM     13  H   UNL     1      -3.328  -1.175  -1.581  0.00  0.00    -0.083 HD
ENDROOT
BRANCH   5  14
ATOM     14  C   UNL     1      -4.491  -2.759  -2.995  0.00  0.00    -0.061 A 
ATOM     15  C   UNL     1      -3.203  -2.606  -3.472  0.00  0.00    +0.002 A 
ATOM     16  C   UNL     1      -2.955  -2.683  -4.830  0.00  0.00    +0.004 A 
ATOM     17  C   UNL     1      -3.996  -2.904  -5.711  0.00  0.00    -0.045 A 
ATOM     18  C   UNL     1      -5.286  -3.052  -5.235  0.00  0.00    +0.004 A 
ATOM     19  C   UNL     1      -5.533  -2.979  -3.877  0.00  0.00    +0.002 A 
BRANCH  17  20
ATOM     20  C   UNL     1      -3.727  -2.985  -7.192  0.00  0.00    +0.013 C 
ATOM     21  C   UNL     1      -3.111  -1.668  -7.670  0.00  0.00    +0.012 C 
ATOM     22  C   UNL     1      -2.755  -4.133  -7.471  0.00  0.00    +0.012 C 
ENDBRANCH  17  20
ENDBRANCH   5  14
BRANCH   1  24
ATOM     23  C   UNL     1      -4.117  -7.926   0.789  0.00  0.00    +0.025 C 
ATOM     24  C   UNL     1      -3.323  -7.438  -0.425  0.00  0.00    +0.113 C 
ENDBRANCH   1  24
BRANCH   6  25
ATOM     25  C   UNL     1      -1.535  -1.801   0.003  0.00  0.00    +0.297 C 
ATOM     26  O   UNL     1      -0.547  -2.497  -0.001  0.00  0.00    -0.252 OA
BRANCH  25  27
ATOM     27  O   UNL     1      -1.415  -0.464  -0.006  0.00  0.00    -0.466 OA
BRANCH  27  28
ATOM     28  C   UNL     1      -0.067   0.076  -0.019  0.00  0.00    +0.228 C 
ATOM     29  C   UNL     1      -0.131   1.605  -0.027  0.00  0.00    +0.048 C 
ENDBRANCH  27  28
ENDBRANCH  25  27
ENDBRANCH   6  25
TORSDOF 6
