REMARK  Name = ZINC20599025
REMARK  7 active torsions:
REMARK  status: ('A' for Active; 'I' for Inactive)
REMARK    1  A    between atoms: C_1  and  C_2
REMARK    2  A    between atoms: C_7  and  C_11
REMARK    3  A    between atoms: C_11  and  N_12
REMARK    4  A    between atoms: C_13  and  C_15
REMARK    5  A    between atoms: C_15  and  C_16
REMARK    6  A    between atoms: N_23  and  C_24
REMARK    7  A    between atoms: C_24  and  C_25
REMARK                            x       y       z     vdW  Elec       q    Type
REMARK                         _______ _______ _______ _____ _____    ______ ____
ROOT
ATOM      1  C   UNL     1       4.280   4.575  -1.494  0.00  0.00    +0.028 C 
ATOM      2  C   UNL     1       2.896   3.991  -1.515  0.00  0.00    +0.200 C 
ATOM      3  O   UNL     1       2.760   2.831  -1.842  0.00  0.00    -0.278 OA
ATOM      4  N   UNL     1       1.808   4.697  -1.189  0.00  0.00    -0.318 N 
ATOM      5  C   UNL     1       1.867   6.087  -0.748  0.00  0.00    +0.085 C 
ATOM      6  C   UNL     1       3.208   6.707  -1.145  0.00  0.00    -0.058 C 
ATOM      7  N   UNL     1       4.291   5.813  -0.703  0.00  0.00    +0.391 N 
ATOM      8  H   UNL     1       0.838   4.184  -1.264  0.00  0.00    +0.149 HD
ATOM      9  H   UNL     1       4.122   5.553   0.352  0.00  0.00    -0.080 HD
ENDROOT
BRANCH   1  10
ATOM     10  C   UNL     1       5.248   3.567  -0.872  0.00  0.00    +0.089 C 
BRANCH  10  12
ATOM     11  N   UNL     1       5.589   2.480   1.323  0.00  0.00    -0.310 N 
ATOM     12  C   UNL     1       4.834   3.284   0.549  0.00  0.00    +0.212 C 
ATOM     13  O   UNL     1       3.822   3.780   0.996  0.00  0.00    -0.276 OA
ATOM     14  H   UNL     1       6.508   2.030   0.918  0.00  0.00    +0.149 HD
BRANCH  11  15
ATOM     15  C   UNL     1       5.187   2.205   2.705  0.00  0.00    +0.161 C 
BRANCH  15  22
ATOM     16  C   UNL     1      10.698  -1.128   6.330  0.00  0.00    +0.045 C 
ATOM     17  C   UNL     1       9.467  -0.920   5.486  0.00  0.00    -0.034 A 
ATOM     18  C   UNL     1       8.794  -2.028   4.946  0.00  0.00    +0.008 A 
ATOM     19  C   UNL     1       7.683  -1.836   4.185  0.00  0.00    +0.047 A 
ATOM     20  C   UNL     1       7.225  -0.524   3.950  0.00  0.00    +0.138 A 
ATOM     21  N   UNL     1       6.196  -0.047   3.264  0.00  0.00    -0.231 NA
ATOM     22  C   UNL     1       6.193   1.286   3.348  0.00  0.00    +0.077 A 
ATOM     23  C   UNL     1       7.247   1.673   4.100  0.00  0.00    +0.117 A 
ATOM     24  N   UNL     1       7.903   0.538   4.491  0.00  0.00    -0.306 N 
ATOM     25  C   UNL     1       9.017   0.331   5.252  0.00  0.00    +0.096 A 
ENDBRANCH  15  22
ENDBRANCH  11  15
ENDBRANCH  10  12
ENDBRANCH   1  10
BRANCH   7  26
ATOM     26  C   UNL     1       5.596   6.483  -0.791  0.00  0.00    -0.040 C 
BRANCH  26  27
ATOM     27  C   UNL     1       5.630   7.643   0.170  0.00  0.00    -0.045 A 
ATOM     28  C   UNL     1       5.419   8.929  -0.292  0.00  0.00    +0.006 A 
ATOM     29  C   UNL     1       5.451   9.994   0.588  0.00  0.00    +0.038 A 
ATOM     30  C   UNL     1       5.688   9.773   1.934  0.00  0.00    +0.125 A 
ATOM     31  C   UNL     1       5.905   8.486   2.396  0.00  0.00    +0.058 A 
ATOM     32  C   UNL     1       5.873   7.421   1.513  0.00  0.00    +0.045 A 
ATOM     33 CL   UNL     1       6.139   5.806   2.092  0.00  0.00    -0.083 Cl
ATOM     34  F   UNL     1       5.713  10.813   2.796  0.00  0.00    -0.205 F 
ENDBRANCH  26  27
ENDBRANCH   7  26
TORSDOF 6
