REMARK  Name = ZINC22521381
REMARK  8 active torsions:
REMARK  status: ('A' for Active; 'I' for Inactive)
REMARK    1  A    between atoms: C_1  and  C_2
REMARK    2  A    between atoms: C_5  and  C_8
REMARK    3  A    between atoms: C_8  and  N_9
REMARK    4  A    between atoms: N_9  and  C_10
REMARK    5  A    between atoms: C_11  and  C_13
REMARK    6  A    between atoms: N_18  and  S_20
REMARK    7  A    between atoms: S_20  and  C_23
REMARK    8  A    between atoms: C_23  and  C_24
REMARK                            x       y       z     vdW  Elec       q    Type
REMARK                         _______ _______ _______ _____ _____    ______ ____
ROOT
ATOM      1  C   UNL     1      -6.590   0.979   2.973  0.00  0.00    +0.091 C 
ATOM      2  C   UNL     1      -6.346  -0.423   2.411  0.00  0.00    +0.015 C 
ATOM      3  C   UNL     1      -4.918  -0.865   2.738  0.00  0.00    +0.018 C 
ATOM      4  C   UNL     1      -3.926   0.099   2.080  0.00  0.00    +0.109 C 
ATOM      5  N   UNL     1      -4.246   1.469   2.503  0.00  0.00    -0.180 NA
ATOM      6  C   UNL     1      -5.618   1.962   2.322  0.00  0.00    +0.121 C 
ENDROOT
BRANCH   1   9
ATOM      7  N   UNL     1      -9.034   0.796   3.308  0.00  0.00    -0.300 N 
ATOM      8  C   UNL     1      -8.771  -0.192   4.356  0.00  0.00    +0.132 C 
ATOM      9  C   UNL     1      -8.006   1.401   2.679  0.00  0.00    +0.220 C 
ATOM     10  O   UNL     1      -8.222   2.283   1.875  0.00  0.00    -0.275 OA
BRANCH   7  11
ATOM     11  C   UNL     1     -10.413   1.128   2.943  0.00  0.00    +0.142 C 
BRANCH  11  16
ATOM     12  C   UNL     1     -12.191  -2.394  -1.279  0.00  0.00    +0.044 C 
ATOM     13  C   UNL     1     -11.727  -1.476  -0.178  0.00  0.00    -0.050 A 
ATOM     14  C   UNL     1     -11.917  -1.831   1.144  0.00  0.00    +0.003 A 
ATOM     15  C   UNL     1     -11.492  -0.988   2.154  0.00  0.00    +0.005 A 
ATOM     16  C   UNL     1     -10.876   0.209   1.841  0.00  0.00    -0.030 A 
ATOM     17  C   UNL     1     -10.691   0.567   0.519  0.00  0.00    +0.005 A 
ATOM     18  C   UNL     1     -11.111  -0.278  -0.491  0.00  0.00    +0.003 A 
ENDBRANCH  11  16
ENDBRANCH   7  11
ENDBRANCH   1   9
BRANCH   5  19
ATOM     19  S   UNL     1      -3.083   2.436   3.178  0.00  0.00    +0.036 S 
ATOM     20  O   UNL     1      -2.152   1.534   3.757  0.00  0.00    -0.158 OA
ATOM     21  O   UNL     1      -3.802   3.355   3.989  0.00  0.00    -0.158 OA
BRANCH  19  22
ATOM     22  C   UNL     1      -2.325   3.302   1.775  0.00  0.00    +0.223 C 
BRANCH  22  23
ATOM     23  C   UNL     1      -1.241   4.220   2.278  0.00  0.00    +0.012 A 
ATOM     24  C   UNL     1      -1.545   5.524   2.626  0.00  0.00    +0.047 A 
ATOM     25  C   UNL     1      -0.549   6.368   3.082  0.00  0.00    +0.020 A 
ATOM     26  C   UNL     1       0.750   5.907   3.195  0.00  0.00    +0.003 A 
ATOM     27  C   UNL     1       1.053   4.603   2.853  0.00  0.00    +0.020 A 
ATOM     28  C   UNL     1       0.057   3.758   2.396  0.00  0.00    +0.047 A 
ATOM     29 CL   UNL     1       0.438   2.120   1.966  0.00  0.00    -0.083 Cl
ATOM     30 CL   UNL     1      -3.176   6.103   2.483  0.00  0.00    -0.083 Cl
ENDBRANCH  22  23
ENDBRANCH  19  22
ENDBRANCH   5  19
TORSDOF 6
