REMARK  Name = ZINC01306805
REMARK  6 active torsions:
REMARK  status: ('A' for Active; 'I' for Inactive)
REMARK    1  A    between atoms: C_1  and  C_2
REMARK    2  A    between atoms: C_2  and  C_22
REMARK    3  A    between atoms: C_3  and  N_10
REMARK    4  A    between atoms: N_5  and  C_9
REMARK    5  A    between atoms: C_11  and  C_12
REMARK    6  A    between atoms: C_16  and  N_18
REMARK                            x       y       z     vdW  Elec       q    Type
REMARK                         _______ _______ _______ _____ _____    ______ ____
ROOT
ATOM      1  N   UNL     1       1.340   4.738  -1.189  0.00  0.00    -0.149 N 
ATOM      2  C   UNL     1       2.438   5.407  -1.054  0.00  0.00    +0.137 C 
ATOM      3  O   UNL     1       0.719   4.644  -2.458  0.00  0.00    -0.167 OA
ENDROOT
BRANCH   1   6
ATOM      4  C   UNL     1      -0.653   5.317   1.688  0.00  0.00    +0.027 C 
ATOM      5  C   UNL     1      -0.621   4.741   0.271  0.00  0.00    +0.057 C 
ATOM      6  C   UNL     1       0.738   4.076  -0.029  0.00  0.00    +0.230 C 
ATOM      7  N   UNL     1       0.633   2.662  -0.303  0.00  0.00    -0.298 N 
ATOM      8  C   UNL     1      -0.557   2.044  -0.285  0.00  0.00    +0.111 C 
ATOM      9  S   UNL     1      -0.866   0.388  -0.586  0.00  0.00    -0.028 S 
ATOM     10  S   UNL     1      -1.750   3.306   0.109  0.00  0.00    -0.093 S 
ATOM     11  C   UNL     1       1.842   1.893  -0.606  0.00  0.00    +0.132 C 
ATOM     12  C   UNL     1      -0.950   5.817  -0.765  0.00  0.00    +0.027 C 
ENDBRANCH   1   6
BRANCH   2  13
ATOM     13  C   UNL     1       3.159   5.890  -2.249  0.00  0.00    -0.004 A 
ATOM     14  C   UNL     1       2.763   5.477  -3.522  0.00  0.00    +0.009 A 
ATOM     15  C   UNL     1       3.441   5.933  -4.634  0.00  0.00    +0.003 A 
ATOM     16  C   UNL     1       4.511   6.798  -4.489  0.00  0.00    +0.033 A 
ATOM     17  C   UNL     1       4.909   7.211  -3.230  0.00  0.00    +0.127 A 
ATOM     18  C   UNL     1       4.236   6.767  -2.110  0.00  0.00    +0.042 A 
BRANCH  17  19
ATOM     19  N   UNL     1       6.055   8.137  -3.085  0.00  0.00    +0.056 N 
ATOM     20  O   UNL     1       6.646   8.534  -4.073  0.00  0.00    -0.126 OA
ATOM     21  O   UNL     1       6.406   8.502  -1.977  0.00  0.00    -0.126 OA
ENDBRANCH  17  19
ENDBRANCH   2  13
TORSDOF 3
