REMARK  Name = ZINC31844819
REMARK  5 active torsions:
REMARK  status: ('A' for Active; 'I' for Inactive)
REMARK    1  A    between atoms: C_1  and  C_2
REMARK    2  A    between atoms: N_8  and  C_13
REMARK    3  A    between atoms: C_13  and  C_14
REMARK    4  A    between atoms: N_16  and  C_17
REMARK    5  A    between atoms: C_23  and  C_25
REMARK                            x       y       z     vdW  Elec       q    Type
REMARK                         _______ _______ _______ _____ _____    ______ ____
ROOT
ATOM      1  C   UNL     1      -4.571   4.657  -0.244  0.00  0.00    +0.044 C 
ATOM      2  C   UNL     1      -5.422   3.429  -0.052  0.00  0.00    -0.048 A 
ATOM      3  C   UNL     1      -6.477   3.179  -0.911  0.00  0.00    +0.007 A 
ATOM      4  C   UNL     1      -7.255   2.051  -0.739  0.00  0.00    +0.048 A 
ATOM      5  C   UNL     1      -6.983   1.165   0.294  0.00  0.00    +0.153 A 
ATOM      6  C   UNL     1      -5.929   1.416   1.163  0.00  0.00    +0.074 A 
ATOM      7  C   UNL     1      -5.147   2.555   0.979  0.00  0.00    +0.030 A 
ATOM      8  N   UNL     1      -5.616   0.566   2.228  0.00  0.00    -0.308 N 
ATOM      9  C   UNL     1      -6.147  -0.789   2.034  0.00  0.00    +0.226 C 
ATOM     10  C   UNL     1      -7.578  -0.661   1.551  0.00  0.00    +0.330 C 
ATOM     11  O   UNL     1      -8.498  -1.175   2.143  0.00  0.00    -0.249 OA
ATOM     12  O   UNL     1      -7.769   0.059   0.425  0.00  0.00    -0.423 OA
ENDROOT
BRANCH   8  13
ATOM     13  C   UNL     1      -4.168   0.535   2.470  0.00  0.00    +0.201 C 
BRANCH  13  14
ATOM     14  C   UNL     1      -3.462   0.049   1.230  0.00  0.00    +0.231 C 
ATOM     15  O   UNL     1      -4.103  -0.242   0.242  0.00  0.00    -0.274 OA
ATOM     16  N   UNL     1      -2.119  -0.061   1.218  0.00  0.00    -0.311 N 
ATOM     17  H   UNL     1      -1.538   0.203   2.114  0.00  0.00    +0.149 HD
BRANCH  16  18
ATOM     18  C   UNL     1      -1.433  -0.534   0.013  0.00  0.00    +0.076 C 
ATOM     19  C   UNL     1      -1.413  -2.063   0.004  0.00  0.00    +0.022 C 
ATOM     20  C   UNL     1      -0.673  -2.570   1.244  0.00  0.00    +0.002 C 
ATOM     21  C   UNL     1       0.763  -2.041   1.233  0.00  0.00    +0.000 C 
ATOM     22  C   UNL     1       0.742  -0.511   1.242  0.00  0.00    +0.005 C 
ATOM     23  C   UNL     1       0.002  -0.004   0.002  0.00  0.00    +0.006 C 
ATOM     24  C   UNL     1      -0.019   1.526   0.010  0.00  0.00    +0.009 C 
ENDBRANCH  16  18
ENDBRANCH  13  14
ENDBRANCH   8  13
TORSDOF 3
