REMARK  Name = ZINC33283332
REMARK  9 active torsions:
REMARK  status: ('A' for Active; 'I' for Inactive)
REMARK    1  A    between atoms: C_1  and  C_2
REMARK    2  A    between atoms: C_2  and  N_3
REMARK    3  A    between atoms: C_7  and  C_9
REMARK    4  A    between atoms: C_9  and  N_10
REMARK    5  A    between atoms: C_11  and  C_13
REMARK    6  A    between atoms: C_13  and  C_14
REMARK    7  A    between atoms: C_14  and  C_15
REMARK    8  A    between atoms: C_17  and  C_20
REMARK    9  A    between atoms: C_23  and  N_26
REMARK                            x       y       z     vdW  Elec       q    Type
REMARK                         _______ _______ _______ _____ _____    ______ ____
ROOT
ATOM      1  C   UNL     1       0.819   8.982   0.154  0.00  0.00    +0.228 A 
ATOM      2  N   UNL     1       0.710   7.677   0.128  0.00  0.00    -0.191 NA
ATOM      3  C   UNL     1       1.978   7.206   0.160  0.00  0.00    +0.202 A 
ATOM      4  N   UNL     1       2.774   8.243   0.208  0.00  0.00    -0.056 NA
ATOM      5  O   UNL     1       2.124   9.268   0.200  0.00  0.00    -0.338 OA
ENDROOT
BRANCH   3   6
ATOM      6  C   UNL     1       2.388   5.781   0.149  0.00  0.00    +0.023 A 
ATOM      7  C   UNL     1       3.740   5.443   0.186  0.00  0.00    +0.013 A 
ATOM      8  C   UNL     1       4.119   4.118   0.175  0.00  0.00    +0.024 A 
ATOM      9  C   UNL     1       3.154   3.118   0.128  0.00  0.00    +0.030 A 
ATOM     10  C   UNL     1       1.804   3.453   0.085  0.00  0.00    +0.024 A 
ATOM     11  C   UNL     1       1.421   4.777   0.102  0.00  0.00    +0.013 A 
BRANCH   9  12
ATOM     12  N   UNL     1       3.539   1.778   0.116  0.00  0.00    -0.330 N 
ATOM     13  C   UNL     1       3.048   1.073   1.328  0.00  0.00    +0.105 C 
ATOM     14  C   UNL     1       3.088  -0.418   0.911  0.00  0.00    +0.020 C 
ATOM     15  C   UNL     1       2.652  -0.374  -0.572  0.00  0.00    +0.020 C 
ATOM     16  C   UNL     1       2.943   1.065  -1.034  0.00  0.00    +0.105 C 
ENDBRANCH   9  12
ENDBRANCH   3   6
BRANCH   1  17
ATOM     17  C   UNL     1      -0.314   9.976   0.135  0.00  0.00    +0.108 C 
BRANCH  17  18
ATOM     18  C   UNL     1      -0.743  10.287   1.570  0.00  0.00    +0.105 C 
BRANCH  18  20
ATOM     19  N   UNL     1      -2.420  11.705   2.709  0.00  0.00    -0.317 N 
ATOM     20  C   UNL     1      -1.876  11.281   1.551  0.00  0.00    +0.213 C 
ATOM     21  O   UNL     1      -2.299  11.698   0.493  0.00  0.00    -0.276 OA
ATOM     22  H   UNL     1      -2.037  11.326   3.668  0.00  0.00    +0.149 HD
BRANCH  19  23
ATOM     23  C   UNL     1      -3.521  12.671   2.690  0.00  0.00    +0.089 C 
BRANCH  23  28
ATOM     24  N   UNL     1      -4.895  14.133   4.113  0.00  0.00    +0.382 N 
ATOM     25  C   UNL     1      -6.109  13.631   4.792  0.00  0.00    -0.078 C 
ATOM     26  C   UNL     1      -5.601  12.507   5.729  0.00  0.00    -0.020 C 
ATOM     27  C   UNL     1      -4.485  11.861   4.868  0.00  0.00    -0.016 C 
ATOM     28  C   UNL     1      -3.876  13.068   4.124  0.00  0.00    -0.051 C 
ATOM     29  H   UNL     1      -4.511  15.018   4.641  0.00  0.00    -0.081 HD
BRANCH  24  31
ATOM     30  C   UNL     1      -6.327  15.589   2.761  0.00  0.00    -0.017 C 
ATOM     31  C   UNL     1      -5.198  14.557   2.739  0.00  0.00    -0.082 C 
ENDBRANCH  24  31
ENDBRANCH  23  28
ENDBRANCH  19  23
ENDBRANCH  18  20
ENDBRANCH  17  18
ENDBRANCH   1  17
TORSDOF 8
