REMARK  Name = ZINC05342764
REMARK  3 active torsions:
REMARK  status: ('A' for Active; 'I' for Inactive)
REMARK    1  A    between atoms: C_1  and  O_2
REMARK    2  A    between atoms: O_2  and  C_3
REMARK    3  A    between atoms: C_6  and  C_9
REMARK                            x       y       z     vdW  Elec       q    Type
REMARK                         _______ _______ _______ _____ _____    ______ ____
ROOT
ATOM      1  C   UNL     1      -4.981  -2.629   0.035  0.00  0.00    +0.032 C 
ATOM      2  C   UNL     1      -5.087  -3.482   1.298  0.00  0.00    +0.064 C 
ATOM      3  C   UNL     1      -6.448  -4.161   1.282  0.00  0.00    +0.048 C 
ATOM      4  N   UNL     1      -7.208  -4.011   2.305  0.00  0.00    -0.282 NA
ATOM      5  C   UNL     1      -8.579  -4.529   2.396  0.00  0.00    +0.126 C 
ATOM      6  C   UNL     1      -9.092  -4.165   3.807  0.00  0.00    +0.028 C 
ATOM      7  C   UNL     1      -8.058  -4.652   4.827  0.00  0.00    +0.002 C 
ATOM      8  C   UNL     1      -7.887  -6.167   4.735  0.00  0.00    +0.002 C 
ATOM      9  C   UNL     1      -7.470  -6.565   3.313  0.00  0.00    +0.024 C 
ATOM     10  C   UNL     1      -8.528  -6.060   2.327  0.00  0.00    +0.094 C 
ATOM     11  N   UNL     1      -8.364  -6.522   0.974  0.00  0.00    -0.344 N 
ATOM     12  C   UNL     1      -7.670  -5.942   0.015  0.00  0.00    +0.081 C 
ATOM     13  C   UNL     1      -6.776  -4.929   0.080  0.00  0.00    +0.052 C 
ATOM     14  C   UNL     1      -6.098  -4.577  -1.123  0.00  0.00    +0.167 C 
ATOM     15  O   UNL     1      -6.344  -5.215  -2.126  0.00  0.00    -0.292 OA
ATOM     16  C   UNL     1      -5.104  -3.473  -1.219  0.00  0.00    +0.088 C 
ATOM     17  H   UNL     1      -8.812  -7.351   0.742  0.00  0.00    +0.146 HD
ENDROOT
BRANCH   1  21
ATOM     18  C   UNL     1      -1.200  -0.637   0.010  0.00  0.00    +0.120 A 
ATOM     19  C   UNL     1      -2.375   0.101   0.019  0.00  0.00    +0.046 A 
ATOM     20  C   UNL     1      -3.596  -0.545   0.027  0.00  0.00    +0.007 A 
ATOM     21  C   UNL     1      -3.648  -1.927   0.026  0.00  0.00    -0.043 A 
ATOM     22  C   UNL     1      -2.479  -2.665   0.017  0.00  0.00    +0.007 A 
ATOM     23  C   UNL     1      -1.255  -2.024   0.003  0.00  0.00    +0.046 A 
BRANCH  18  25
ATOM     24  C   UNL     1      -0.017   1.425   0.010  0.00  0.00    +0.277 C 
ATOM     25  O   UNL     1       0.002  -0.004   0.002  0.00  0.00    -0.495 OA
ENDBRANCH  18  25
ENDBRANCH   1  21
TORSDOF 2
