REMARK  Name = ZINC08341129
REMARK  6 active torsions:
REMARK  status: ('A' for Active; 'I' for Inactive)
REMARK    1  A    between atoms: C_1  and  C_2
REMARK    2  A    between atoms: C_3  and  C_13
REMARK    3  A    between atoms: C_4  and  C_7
REMARK    4  A    between atoms: C_16  and  C_18
REMARK    5  A    between atoms: C_18  and  N_48
REMARK    6  A    between atoms: C_22  and  C_24
REMARK                            x       y       z     vdW  Elec       q    Type
REMARK                         _______ _______ _______ _____ _____    ______ ____
ROOT
ATOM      1  C   UNL     1       5.189   0.916  -1.547  0.00  0.00    +0.254 A 
ATOM      2  N   UNL     1       4.322   1.861  -1.827  0.00  0.00    -0.107 NA
ATOM      3  N   UNL     1       4.887   2.750  -2.567  0.00  0.00    -0.114 NA
ATOM      4  C   UNL     1       6.123   2.407  -2.793  0.00  0.00    +0.202 A 
ATOM      5  O   UNL     1       6.346   1.243  -2.157  0.00  0.00    -0.422 OA
ENDROOT
BRANCH   1   8
ATOM      6  C   UNL     1       7.248  -1.416  -0.838  0.00  0.00    +0.090 C 
ATOM      7  C   UNL     1       5.809  -1.296  -0.407  0.00  0.00    +0.147 A 
ATOM      8  C   UNL     1       4.941  -0.285  -0.724  0.00  0.00    +0.108 A 
ATOM      9  C   UNL     1       3.698  -0.688  -0.036  0.00  0.00    +0.126 A 
ATOM     10  N   UNL     1       3.985  -1.823   0.551  0.00  0.00    -0.077 NA
ATOM     11  O   UNL     1       5.127  -2.159   0.355  0.00  0.00    -0.359 OA
BRANCH   9  12
ATOM     12  C   UNL     1       2.402   0.033  -0.021  0.00  0.00    +0.004 A 
ATOM     13  C   UNL     1       1.205  -0.680  -0.013  0.00  0.00    +0.010 A 
ATOM     14  C   UNL     1       0.002  -0.004   0.002  0.00  0.00    +0.001 A 
ATOM     15  C   UNL     1      -0.017   1.379   0.010  0.00  0.00    +0.000 A 
ATOM     16  C   UNL     1       1.169   2.092   0.002  0.00  0.00    +0.001 A 
ATOM     17  C   UNL     1       2.377   1.426  -0.013  0.00  0.00    +0.010 A 
ENDBRANCH   9  12
ENDBRANCH   1   8
BRANCH   4  18
ATOM     18  C   UNL     1       7.123   3.175  -3.619  0.00  0.00    +0.021 C 
BRANCH  18  23
ATOM     19  C   UNL     1       6.992   5.280  -2.402  0.00  0.00    -0.077 C 
ATOM     20  C   UNL     1       7.989   6.386  -1.993  0.00  0.00    -0.020 C 
ATOM     21  C   UNL     1       9.309   6.018  -2.701  0.00  0.00    -0.012 C 
ATOM     22  C   UNL     1       8.999   4.721  -3.478  0.00  0.00    -0.030 C 
ATOM     23  N   UNL     1       7.861   4.153  -2.759  0.00  0.00    +0.390 N 
ATOM     24  H   UNL     1       8.186   3.676  -1.909  0.00  0.00    -0.080 HD
BRANCH  22  25
ATOM     25  C   UNL     1      10.185   3.791  -3.443  0.00  0.00    -0.024 A 
ATOM     26  C   UNL     1      11.078   3.510  -4.423  0.00  0.00    +0.009 A 
ATOM     27  C   UNL     1      12.099   2.615  -4.163  0.00  0.00    +0.008 A 
ATOM     28  C   UNL     1      12.177   2.046  -2.935  0.00  0.00    +0.045 A 
ATOM     29  S   UNL     1      10.782   2.781  -2.098  0.00  0.00    -0.103 S 
ENDBRANCH  22  25
ENDBRANCH  18  23
ENDBRANCH   4  18
TORSDOF 5
