REMARK  Name = ZINC64141799
REMARK  11 active torsions:
REMARK  status: ('A' for Active; 'I' for Inactive)
REMARK    1  A    between atoms: C_1  and  C_2
REMARK    2  A    between atoms: C_2  and  C_3
REMARK    3  A    between atoms: C_2  and  C_4
REMARK    4  A    between atoms: C_2  and  O_5
REMARK    5  A    between atoms: O_5  and  C_6
REMARK    6  A    between atoms: N_8  and  C_9
REMARK    7  A    between atoms: C_9  and  C_10
REMARK    8  A    between atoms: C_9  and  C_11
REMARK    9  A    between atoms: C_9  and  C_12
REMARK   10  A    between atoms: C_14  and  C_17
REMARK   11  A    between atoms: C_17  and  N_18
REMARK                            x       y       z     vdW  Elec       q    Type
REMARK                         _______ _______ _______ _____ _____    ______ ____
ROOT
ATOM      1  C   UNL     1       4.570  -0.648  -3.886  0.00  0.00    +0.194 A 
ATOM      2  N   UNL     1       5.810  -0.477  -4.359  0.00  0.00    -0.193 NA
ATOM      3  C   UNL     1       5.949  -1.108  -5.492  0.00  0.00    +0.245 A 
ATOM      4  O   UNL     1       4.788  -1.709  -5.782  0.00  0.00    -0.336 OA
ATOM      5  N   UNL     1       3.903  -1.399  -4.715  0.00  0.00    -0.059 NA
ENDROOT
BRANCH   1   6
ATOM      6  C   UNL     1       4.035  -0.071  -2.601  0.00  0.00    +0.095 C 
ATOM      7  C   UNL     1       4.111   1.456  -2.657  0.00  0.00    +0.040 C 
ATOM      8  C   UNL     1       4.872  -0.581  -1.426  0.00  0.00    +0.040 C 
BRANCH   6  11
ATOM      9  C   UNL     1       1.952  -0.085  -1.337  0.00  0.00    +0.402 C 
ATOM     10  O   UNL     1       2.488   0.619  -0.503  0.00  0.00    -0.226 OA
ATOM     11  N   UNL     1       2.641  -0.485  -2.424  0.00  0.00    -0.269 N 
ATOM     12  H   UNL     1       2.213  -1.047  -3.089  0.00  0.00    +0.153 HD
BRANCH   9  13
ATOM     13  O   UNL     1       0.671  -0.465  -1.174  0.00  0.00    -0.445 OA
BRANCH  13  15
ATOM     14  C   UNL     1      -0.019   1.526   0.010  0.00  0.00    +0.055 C 
ATOM     15  C   UNL     1       0.002  -0.004   0.002  0.00  0.00    +0.107 C 
ATOM     16  C   UNL     1       0.742  -0.511   1.242  0.00  0.00    +0.055 C 
ATOM     17  C   UNL     1      -1.433  -0.534   0.013  0.00  0.00    +0.055 C 
ENDBRANCH  13  15
ENDBRANCH   9  13
ENDBRANCH   6  11
ENDBRANCH   1   6
BRANCH   3  18
ATOM     18  C   UNL     1       7.200  -1.153  -6.330  0.00  0.00    +0.203 C 
BRANCH  18  19
ATOM     19  N   UNL     1       8.020  -2.296  -5.922  0.00  0.00    -0.321 N 
ATOM     20  C   UNL     1       9.028  -2.153  -4.863  0.00  0.00    +0.106 C 
ATOM     21  C   UNL     1      10.308  -2.855  -5.335  0.00  0.00    +0.024 C 
ATOM     22  C   UNL     1      10.018  -4.346  -5.507  0.00  0.00    +0.038 C 
ATOM     23  C   UNL     1       8.794  -4.550  -6.361  0.00  0.00    -0.026 A 
ATOM     24  C   UNL     1       7.853  -3.545  -6.532  0.00  0.00    +0.036 A 
ATOM     25  C   UNL     1       6.729  -3.768  -7.319  0.00  0.00    +0.061 A 
ATOM     26  C   UNL     1       6.546  -4.994  -7.932  0.00  0.00    +0.125 A 
ATOM     27  C   UNL     1       7.485  -5.997  -7.761  0.00  0.00    +0.039 A 
ATOM     28  C   UNL     1       8.609  -5.773  -6.984  0.00  0.00    +0.008 A 
ATOM     29  F   UNL     1       5.455  -5.212  -8.697  0.00  0.00    -0.205 F 
ENDBRANCH  18  19
ENDBRANCH   3  18
TORSDOF 6
