REMARK  Name = ZINC66194989
REMARK  3 active torsions:
REMARK  status: ('A' for Active; 'I' for Inactive)
REMARK    1  A    between atoms: N_4  and  C_6
REMARK    2  A    between atoms: N_14  and  C_15
REMARK    3  A    between atoms: C_18  and  C_21
REMARK                            x       y       z     vdW  Elec       q    Type
REMARK                         _______ _______ _______ _____ _____    ______ ____
ROOT
ATOM      1  C   UNL     1       1.627  -1.686   0.656  0.00  0.00    -0.049 C 
ATOM      2  C   UNL     1       0.910  -2.903   0.013  0.00  0.00    +0.005 C 
ATOM      3  C   UNL     1       1.733  -4.101   0.530  0.00  0.00    +0.108 C 
ATOM      4  N   UNL     1       3.059  -3.590   0.907  0.00  0.00    -0.287 N 
ATOM      5  C   UNL     1       3.106  -2.143   0.626  0.00  0.00    +0.094 C 
ATOM      6  C   UNL     1       4.065  -4.323   1.425  0.00  0.00    +0.302 C 
ATOM      7  O   UNL     1       5.124  -3.792   1.702  0.00  0.00    -0.253 OA
ATOM      8  N   UNL     1       3.897  -5.643   1.637  0.00  0.00    -0.296 N 
ATOM      9  H   UNL     1       3.053  -6.066   1.417  0.00  0.00    +0.151 HD
ENDROOT
BRANCH   1  13
ATOM     10  C   UNL     1      -0.017   1.473  -0.139  0.00  0.00    -0.020 C 
ATOM     11  C   UNL     1       1.467   1.905  -0.136  0.00  0.00    -0.020 C 
ATOM     12  C   UNL     1       2.189   0.660   0.439  0.00  0.00    -0.078 C 
ATOM     13  N   UNL     1       1.434  -0.474  -0.151  0.00  0.00    +0.383 N 
ATOM     14  C   UNL     1       0.012  -0.067  -0.129  0.00  0.00    -0.078 C 
ATOM     15  H   UNL     1       1.735  -0.635  -1.101  0.00  0.00    -0.081 HD
ENDBRANCH   1  13
BRANCH   8  16
ATOM     16  C   UNL     1       4.991  -6.439   2.200  0.00  0.00    +0.074 C 
ATOM     17  C   UNL     1       4.960  -6.340   3.727  0.00  0.00    +0.023 C 
ATOM     18  C   UNL     1       3.623  -6.870   4.246  0.00  0.00    +0.014 C 
ATOM     19  C   UNL     1       3.457  -8.333   3.827  0.00  0.00    +0.075 C 
ATOM     20  C   UNL     1       3.487  -8.432   2.301  0.00  0.00    +0.014 C 
ATOM     21  C   UNL     1       4.825  -7.902   1.782  0.00  0.00    +0.023 C 
BRANCH  19  22
ATOM     22  C   UNL     1       2.140  -8.856   4.339  0.00  0.00    +0.219 C 
ATOM     23  O   UNL     1       1.231  -8.087   4.572  0.00  0.00    -0.275 OA
ATOM     24  N   UNL     1       1.971 -10.178   4.538  0.00  0.00    -0.300 N 
ATOM     25  C   UNL     1       3.104 -11.087   4.354  0.00  0.00    +0.118 C 
ATOM     26  C   UNL     1       3.479 -11.714   5.702  0.00  0.00    +0.088 C 
ATOM     27  S   UNL     1       2.019 -12.561   6.376  0.00  0.00    -0.158 S 
ATOM     28  C   UNL     1       0.742 -11.267   6.352  0.00  0.00    +0.088 C 
ATOM     29  C   UNL     1       0.659 -10.687   4.941  0.00  0.00    +0.118 C 
ENDBRANCH  19  22
ENDBRANCH   8  16
TORSDOF 3
