REMARK  Name = ZINC36069370
REMARK  12 active torsions:
REMARK  status: ('A' for Active; 'I' for Inactive)
REMARK    1  A    between atoms: C_1  and  C_2
REMARK    2  A    between atoms: N_13  and  C_20
REMARK    3  A    between atoms: C_14  and  C_16
REMARK    4  A    between atoms: C_16  and  N_17
REMARK    5  A    between atoms: N_17  and  C_18
REMARK    6  A    between atoms: N_17  and  C_19
REMARK    7  A    between atoms: C_20  and  C_21
REMARK    8  A    between atoms: C_21  and  O_23
REMARK    9  A    between atoms: O_23  and  C_24
REMARK   10  A    between atoms: C_24  and  C_25
REMARK   11  A    between atoms: C_25  and  C_26
REMARK   12  A    between atoms: C_25  and  C_27
REMARK                            x       y       z     vdW  Elec       q    Type
REMARK                         _______ _______ _______ _____ _____    ______ ____
ROOT
ATOM      1  C   UNL     1      -0.019   1.526   0.010  0.00  0.00    +0.008 C 
ATOM      2  C   UNL     1       0.002  -0.004   0.002  0.00  0.00    -0.009 C 
ATOM      3  C   UNL     1       0.726  -0.501  -1.253  0.00  0.00    +0.008 C 
ATOM      4  C   UNL     1       0.536  -2.011  -1.397  0.00  0.00    +0.037 C 
ATOM      5  C   UNL     1       0.949  -2.688  -0.093  0.00  0.00    -0.023 A 
ATOM      6  C   UNL     1       1.031  -1.976   1.055  0.00  0.00    -0.004 A 
ATOM      7  S   UNL     1       1.537  -3.145   2.292  0.00  0.00    -0.073 S 
ATOM      8  C   UNL     1       1.637  -4.581   1.270  0.00  0.00    +0.116 A 
ATOM      9  C   UNL     1       1.271  -4.101  -0.007  0.00  0.00    +0.076 A 
ATOM     10  C   UNL     1       1.257  -5.054  -1.081  0.00  0.00    +0.263 A 
ATOM     11  O   UNL     1       0.955  -4.742  -2.220  0.00  0.00    -0.267 OA
ATOM     12  N   UNL     1       1.599  -6.321  -0.747  0.00  0.00    -0.287 N 
ATOM     13  C   UNL     1       1.937  -6.688   0.512  0.00  0.00    +0.097 A 
ATOM     14  N   UNL     1       1.962  -5.845   1.522  0.00  0.00    -0.228 NA
ATOM     15  C   UNL     1       0.751  -0.516   1.241  0.00  0.00    +0.046 C 
ENDROOT
BRANCH  13  16
ATOM     16  C   UNL     1       2.300  -8.128   0.769  0.00  0.00    -0.004 C 
BRANCH  16  17
ATOM     17  N   UNL     1       2.629  -8.304   2.189  0.00  0.00    +0.381 N 
ATOM     18  C   UNL     1       1.432  -8.054   3.004  0.00  0.00    -0.096 C 
ATOM     19  C   UNL     1       3.097  -9.678   2.416  0.00  0.00    -0.096 C 
ATOM     20  H   UNL     1       3.355  -7.654   2.450  0.00  0.00    -0.082 HD
ENDBRANCH  16  17
ENDBRANCH  13  16
BRANCH  12  21
ATOM     21  C   UNL     1       1.605  -7.342  -1.798  0.00  0.00    +0.246 C 
BRANCH  21  22
ATOM     22  C   UNL     1       2.969  -7.398  -2.437  0.00  0.00    +0.327 C 
ATOM     23  O   UNL     1       3.846  -6.660  -2.054  0.00  0.00    -0.249 OA
BRANCH  22  24
ATOM     24  O   UNL     1       3.209  -8.267  -3.431  0.00  0.00    -0.463 OA
BRANCH  24  25
ATOM     25  C   UNL     1       4.524  -8.266  -3.991  0.00  0.00    +0.235 C 
BRANCH  25  26
ATOM     26  C   UNL     1       4.606  -9.314  -5.102  0.00  0.00    +0.020 C 
ATOM     27  C   UNL     1       3.677  -8.915  -6.250  0.00  0.00    +0.010 C 
ATOM     28  C   UNL     1       6.045  -9.400  -5.616  0.00  0.00    +0.010 C 
ENDBRANCH  25  26
ENDBRANCH  24  25
ENDBRANCH  22  24
ENDBRANCH  21  22
ENDBRANCH  12  21
TORSDOF 7
