REMARK  Name = ZINC24063385
REMARK  4 active torsions:
REMARK  status: ('A' for Active; 'I' for Inactive)
REMARK    1  A    between atoms: N_7  and  C_12
REMARK    2  A    between atoms: C_12  and  C_13
REMARK    3  A    between atoms: N_15  and  N_16
REMARK    4  A    between atoms: C_17  and  C_19
REMARK                            x       y       z     vdW  Elec       q    Type
REMARK                         _______ _______ _______ _____ _____    ______ ____
ROOT
ATOM      1  C   UNL     1       0.010  -3.100  -1.839  0.00  0.00    +0.247 C 
ATOM      2  O   UNL     1       0.891  -2.669  -2.553  0.00  0.00    -0.273 OA
ATOM      3  N   UNL     1      -1.010  -3.800  -2.375  0.00  0.00    -0.233 N 
ATOM      4  H   UNL     1      -1.714  -4.145  -1.804  0.00  0.00    +0.173 HD
ENDROOT
BRANCH   3   5
ATOM      5  N   UNL     1      -1.053  -4.028  -3.756  0.00  0.00    -0.230 N 
ATOM      6  C   UNL     1      -2.073  -4.727  -4.292  0.00  0.00    +0.267 C 
ATOM      7  O   UNL     1      -2.957  -5.160  -3.576  0.00  0.00    -0.268 OA
ATOM      8  H   UNL     1      -0.349  -3.683  -4.327  0.00  0.00    +0.173 HD
BRANCH   6   9
ATOM      9  C   UNL     1      -2.118  -4.966  -5.738  0.00  0.00    +0.076 A 
ATOM     10  C   UNL     1      -3.065  -5.644  -6.480  0.00  0.00    +0.024 A 
ATOM     11  C   UNL     1      -2.856  -5.720  -7.854  0.00  0.00    -0.036 A 
ATOM     12  C   UNL     1      -1.734  -5.118  -8.330  0.00  0.00    -0.006 A 
ATOM     13  S   UNL     1      -0.970  -4.451  -7.000  0.00  0.00    -0.088 S 
ATOM     14  C   UNL     1      -1.260  -5.051  -9.752  0.00  0.00    +0.043 C 
ATOM     15  C   UNL     1      -2.467  -5.108 -10.696  0.00  0.00    +0.005 C 
ATOM     16  C   UNL     1      -2.765  -6.569 -11.016  0.00  0.00    +0.001 C 
ATOM     17  C   UNL     1      -3.103  -7.340  -9.743  0.00  0.00    +0.005 C 
ATOM     18  C   UNL     1      -3.847  -6.443  -8.759  0.00  0.00    +0.036 C 
ENDBRANCH   6   9
ENDBRANCH   3   5
BRANCH   1  19
ATOM     19  C   UNL     1       0.057  -2.855  -0.353  0.00  0.00    +0.211 C 
BRANCH  19  26
ATOM     20  C   UNL     1      -0.017   1.379   0.010  0.00  0.00    +0.002 A 
ATOM     21  C   UNL     1       1.169   2.090   0.002  0.00  0.00    +0.004 A 
ATOM     22  C   UNL     1       2.381   1.425  -0.013  0.00  0.00    +0.047 A 
ATOM     23  C   UNL     1       2.408   0.041  -0.021  0.00  0.00    +0.143 A 
ATOM     24  C   UNL     1       1.213  -0.676  -0.013  0.00  0.00    +0.079 A 
ATOM     25  C   UNL     1       0.002  -0.004   0.002  0.00  0.00    +0.027 A 
ATOM     26  N   UNL     1       1.254  -2.078  -0.024  0.00  0.00    -0.256 N 
ATOM     27  C   UNL     1       2.415  -2.700   0.275  0.00  0.00    +0.258 C 
ATOM     28  O   UNL     1       2.483  -3.911   0.242  0.00  0.00    -0.271 OA
ATOM     29  C   UNL     1       3.627  -1.885   0.649  0.00  0.00    +0.325 C 
ATOM     30  O   UNL     1       3.591  -0.630  -0.035  0.00  0.00    -0.481 OA
ENDBRANCH  19  26
ENDBRANCH   1  19
TORSDOF 4
