REMARK  Name = ZINC02096656
REMARK  5 active torsions:
REMARK  status: ('A' for Active; 'I' for Inactive)
REMARK    1  A    between atoms: C_11  and  C_27
REMARK    2  A    between atoms: N_19  and  C_23
REMARK    3  A    between atoms: C_23  and  C_24
REMARK    4  A    between atoms: C_24  and  C_25
REMARK    5  A    between atoms: C_25  and  O_26
REMARK                            x       y       z     vdW  Elec       q    Type
REMARK                         _______ _______ _______ _____ _____    ______ ____
ROOT
ATOM      1  C   UNL     1       3.456   1.177  -0.338  0.00  0.00    +0.001 A 
ATOM      2  C   UNL     1       2.486   0.197  -0.469  0.00  0.00    +0.002 A 
ATOM      3  C   UNL     1       1.133   0.489  -0.452  0.00  0.00    +0.026 A 
ATOM      4  C   UNL     1       0.779   1.828  -0.294  0.00  0.00    +0.047 A 
ATOM      5  C   UNL     1       1.776   2.827  -0.158  0.00  0.00    +0.003 A 
ATOM      6  C   UNL     1       3.136   2.503  -0.181  0.00  0.00    +0.010 A 
ATOM      7  C   UNL     1       1.068   4.082  -0.010  0.00  0.00    -0.015 A 
ATOM      8  C   UNL     1      -0.252   3.800  -0.067  0.00  0.00    +0.046 A 
ATOM      9  N   UNL     1      -0.433   2.454  -0.242  0.00  0.00    -0.356 N 
ATOM     10  H   UNL     1      -1.294   2.011  -0.316  0.00  0.00    +0.166 HD
ATOM     11  C   UNL     1      -1.335   4.849   0.042  0.00  0.00    +0.154 C 
ATOM     12  N   UNL     1      -0.695   6.098   0.507  0.00  0.00    -0.276 N 
ATOM     13  C   UNL     1       0.557   6.502  -0.131  0.00  0.00    +0.167 C 
ATOM     14  C   UNL     1       1.642   5.462   0.184  0.00  0.00    +0.069 C 
ATOM     15  C   UNL     1       1.010   7.852   0.326  0.00  0.00    +0.237 C 
ATOM     16  O   UNL     1       1.988   8.332  -0.205  0.00  0.00    -0.274 OA
ATOM     17  N   UNL     1       0.406   8.560   1.277  0.00  0.00    -0.291 N 
ATOM     18  C   UNL     1      -0.779   8.112   1.991  0.00  0.00    +0.203 C 
ATOM     19  C   UNL     1      -1.277   6.799   1.481  0.00  0.00    +0.234 C 
ATOM     20  O   UNL     1      -2.279   6.340   1.988  0.00  0.00    -0.274 OA
ENDROOT
BRANCH  11  21
ATOM     21  C   UNL     1      -1.972   5.070  -1.305  0.00  0.00    -0.021 A 
ATOM     22  C   UNL     1      -1.755   6.253  -1.986  0.00  0.00    +0.007 A 
ATOM     23  C   UNL     1      -2.334   6.454  -3.225  0.00  0.00    +0.020 A 
ATOM     24  C   UNL     1      -3.141   5.476  -3.778  0.00  0.00    +0.041 A 
ATOM     25  C   UNL     1      -3.362   4.294  -3.094  0.00  0.00    +0.020 A 
ATOM     26  C   UNL     1      -2.778   4.092  -1.858  0.00  0.00    +0.007 A 
ATOM     27 CL   UNL     1      -3.875   5.731  -5.330  0.00  0.00    -0.084 Cl
ENDBRANCH  11  21
BRANCH  17  28
ATOM     28  C   UNL     1       0.967   9.868   1.625  0.00  0.00    +0.110 C 
BRANCH  28  29
ATOM     29  C   UNL     1       0.326  10.947   0.750  0.00  0.00    +0.047 C 
BRANCH  29  30
ATOM     30  C   UNL     1       0.913  12.313   1.114  0.00  0.00    +0.157 C 
BRANCH  30  31
ATOM     31  O   UNL     1       0.314  13.321   0.297  0.00  0.00    -0.395 OA
ATOM     32  H   UNL     1       0.639  14.215   0.473  0.00  0.00    +0.209 HD
ENDBRANCH  30  31
ENDBRANCH  29  30
ENDBRANCH  28  29
ENDBRANCH  17  28
TORSDOF 5
