REMARK  Name = ZINC12621018
REMARK  6 active torsions:
REMARK  status: ('A' for Active; 'I' for Inactive)
REMARK    1  A    between atoms: C_1  and  C_2
REMARK    2  A    between atoms: C_5  and  C_24
REMARK    3  A    between atoms: C_10  and  C_12
REMARK    4  A    between atoms: C_12  and  O_13
REMARK    5  A    between atoms: O_13  and  C_14
REMARK    6  A    between atoms: C_14  and  C_16
REMARK                            x       y       z     vdW  Elec       q    Type
REMARK                         _______ _______ _______ _____ _____    ______ ____
ROOT
ATOM      1  C   UNL     1       3.103  -2.090   1.470  0.00  0.00    +0.328 C 
ENDROOT
BRANCH   1   9
ATOM      2  C   UNL     1      -0.019   1.526   0.010  0.00  0.00    +0.009 C 
ATOM      3  C   UNL     1       0.002  -0.004   0.002  0.00  0.00    +0.004 C 
ATOM      4  C   UNL     1      -1.433  -0.534   0.015  0.00  0.00    +0.009 C 
ATOM      5  C   UNL     1      -1.414  -2.064  -0.027  0.00  0.00    +0.004 C 
ATOM      6  C   UNL     1      -0.692  -2.596   1.215  0.00  0.00    +0.111 C 
ATOM      7  N   UNL     1       0.639  -1.977   1.288  0.00  0.00    -0.298 N 
ATOM      8  C   UNL     1       0.742  -0.512   1.244  0.00  0.00    +0.111 C 
ATOM      9  C   UNL     1       1.746  -2.740   1.395  0.00  0.00    +0.253 C 
ATOM     10  O   UNL     1       1.648  -3.948   1.431  0.00  0.00    -0.272 OA
ATOM     11  C   UNL     1      -2.850  -2.592  -0.049  0.00  0.00    +0.009 C 
ENDBRANCH   1   9
BRANCH   1  12
ATOM     12  O   UNL     1       4.109  -3.100   1.578  0.00  0.00    -0.452 OA
BRANCH  12  13
ATOM     13  C   UNL     1       5.388  -2.684   1.655  0.00  0.00    +0.340 C 
ATOM     14  O   UNL     1       5.643  -1.496   1.631  0.00  0.00    -0.245 OA
BRANCH  13  15
ATOM     15  C   UNL     1       6.481  -3.671   1.768  0.00  0.00    +0.062 A 
ATOM     16  C   UNL     1       6.191  -5.037   1.790  0.00  0.00    +0.035 A 
ATOM     17  C   UNL     1       7.217  -5.955   1.896  0.00  0.00    +0.043 A 
ATOM     18  C   UNL     1       8.530  -5.524   1.981  0.00  0.00    +0.040 A 
ATOM     19  C   UNL     1       8.823  -4.171   1.960  0.00  0.00    +0.043 A 
ATOM     20  C   UNL     1       7.807  -3.243   1.848  0.00  0.00    +0.035 A 
ATOM     21 CL   UNL     1      10.473  -3.640   2.068  0.00  0.00    -0.083 Cl
ATOM     22 CL   UNL     1       6.860  -7.654   1.923  0.00  0.00    -0.083 Cl
ENDBRANCH  13  15
ENDBRANCH  12  13
ENDBRANCH   1  12
TORSDOF 4
