REMARK  Name = ZINC06653060
REMARK  4 active torsions:
REMARK  status: ('A' for Active; 'I' for Inactive)
REMARK    1  A    between atoms: C_3  and  C_6
REMARK    2  A    between atoms: C_6  and  C_8
REMARK    3  A    between atoms: C_6  and  N_50
REMARK    4  A    between atoms: C_8  and  N_9
REMARK                            x       y       z     vdW  Elec       q    Type
REMARK                         _______ _______ _______ _____ _____    ______ ____
ROOT
ATOM      1  C   UNL     1       3.273   0.730   3.409  0.00  0.00    +0.095 C 
ENDROOT
BRANCH   1   2
ATOM      2  N   UNL     1       2.092   1.325   2.779  0.00  0.00    -0.330 N 
ATOM      3  C   UNL     1       1.162   1.998   3.550  0.00  0.00    +0.130 A 
ATOM      4  C   UNL     1       0.011   2.580   2.951  0.00  0.00    +0.051 A 
ATOM      5  C   UNL     1      -0.378   2.578   1.532  0.00  0.00    -0.025 A 
ATOM      6  C   UNL     1      -1.524   3.207   1.217  0.00  0.00    -0.004 A 
ATOM      7  S   UNL     1      -2.151   3.827   2.761  0.00  0.00    -0.073 S 
ATOM      8  C   UNL     1      -0.865   3.240   3.830  0.00  0.00    +0.114 A 
ATOM      9  N   UNL     1      -0.622   3.306   5.125  0.00  0.00    -0.228 NA
ATOM     10  C   UNL     1       0.463   2.747   5.626  0.00  0.00    +0.224 A 
ATOM     11  N   UNL     1       1.330   2.111   4.859  0.00  0.00    -0.220 NA
ATOM     12  C   UNL     1      -1.819   3.146  -0.258  0.00  0.00    +0.043 C 
ATOM     13  C   UNL     1      -0.472   2.756  -0.907  0.00  0.00    +0.010 C 
ATOM     14  C   UNL     1       0.225   2.007   0.246  0.00  0.00    +0.037 C 
ATOM     15  H   UNL     1       1.962   1.246   1.821  0.00  0.00    +0.147 HD
ENDBRANCH   1   2
BRANCH   1  16
ATOM     16  C   UNL     1       4.070  -0.052   2.362  0.00  0.00    +0.016 C 
BRANCH  16  22
ATOM     17  C   UNL     1       5.081   0.090   0.167  0.00  0.00    -0.078 C 
ATOM     18  C   UNL     1       5.264   0.998  -1.051  0.00  0.00    -0.019 C 
ATOM     19  C   UNL     1       6.074   2.232  -0.646  0.00  0.00    -0.004 C 
ATOM     20  C   UNL     1       5.352   2.955   0.494  0.00  0.00    -0.019 C 
ATOM     21  C   UNL     1       5.167   1.991   1.668  0.00  0.00    -0.078 C 
ATOM     22  N   UNL     1       4.359   0.838   1.218  0.00  0.00    +0.387 N 
ATOM     23  H   UNL     1       3.472   1.182   0.832  0.00  0.00    -0.081 HD
ENDBRANCH  16  22
BRANCH  16  26
ATOM     24  C   UNL     1       6.924  -1.855   3.840  0.00  0.00    +0.041 A 
ATOM     25  C   UNL     1       5.622  -1.836   3.289  0.00  0.00    +0.043 A 
ATOM     26  C   UNL     1       5.349  -0.556   2.978  0.00  0.00    +0.093 A 
ATOM     27  O   UNL     1       6.413   0.196   3.305  0.00  0.00    -0.469 OA
ATOM     28  C   UNL     1       7.369  -0.586   3.833  0.00  0.00    +0.195 A 
ENDBRANCH  16  26
ENDBRANCH   1  16
TORSDOF 4
