REMARK  Name = ZINC62509988
REMARK  7 active torsions:
REMARK  status: ('A' for Active; 'I' for Inactive)
REMARK    1  A    between atoms: C_1  and  C_2
REMARK    2  A    between atoms: C_7  and  C_25
REMARK    3  A    between atoms: C_10  and  C_12
REMARK    4  A    between atoms: C_19  and  C_21
REMARK    5  A    between atoms: C_21  and  C_22
REMARK    6  A    between atoms: C_21  and  C_23
REMARK    7  A    between atoms: C_21  and  C_24
REMARK                            x       y       z     vdW  Elec       q    Type
REMARK                         _______ _______ _______ _____ _____    ______ ____
ROOT
ATOM      1  C   UNL     1       2.167  -1.310   3.054  0.00  0.00    +0.151 A 
ATOM      2  C   UNL     1       2.986  -0.961   4.137  0.00  0.00    +0.078 A 
ATOM      3  C   UNL     1       3.425   0.263   4.661  0.00  0.00    +0.028 A 
ATOM      4  C   UNL     1       4.239   0.264   5.755  0.00  0.00    +0.004 A 
ATOM      5  C   UNL     1       4.622  -0.956   6.334  0.00  0.00    +0.018 A 
ATOM      6  C   UNL     1       4.191  -2.125   5.815  0.00  0.00    +0.093 A 
ATOM      7  N   UNL     1       3.375  -2.141   4.721  0.00  0.00    -0.302 N 
ATOM      8  C   UNL     1       2.804  -3.151   4.007  0.00  0.00    +0.120 A 
ATOM      9  N   UNL     1       2.093  -2.657   3.035  0.00  0.00    -0.226 NA
ENDROOT
BRANCH   1  17
ATOM     10  C   UNL     1       0.540  -0.570   4.643  0.00  0.00    +0.030 C 
ATOM     11  C   UNL     1      -0.437  -0.064   3.580  0.00  0.00    +0.099 C 
ATOM     12  C   UNL     1      -1.686  -0.953   3.562  0.00  0.00    +0.182 C 
ATOM     13  O   UNL     1      -2.506  -0.590   2.448  0.00  0.00    -0.376 OA
ATOM     14  C   UNL     1      -1.886  -0.788   1.175  0.00  0.00    +0.182 C 
ATOM     15  C   UNL     1      -0.647   0.110   1.072  0.00  0.00    +0.099 C 
ATOM     16  N   UNL     1       0.197  -0.125   2.254  0.00  0.00    -0.286 N 
ATOM     17  C   UNL     1       1.512  -0.389   2.126  0.00  0.00    +0.268 C 
ATOM     18  O   UNL     1       2.156   0.139   1.237  0.00  0.00    -0.268 OA
ATOM     19  C   UNL     1       0.134  -0.234  -0.197  0.00  0.00    +0.030 C 
ENDBRANCH   1  17
BRANCH   8  20
ATOM     20  C   UNL     1       2.967  -4.620   4.301  0.00  0.00    +0.021 C 
ATOM     21  C   UNL     1       2.391  -4.929   5.685  0.00  0.00    +0.019 C 
ATOM     22  C   UNL     1       2.222  -5.438   3.244  0.00  0.00    +0.019 C 
ATOM     23  C   UNL     1       4.453  -4.984   4.275  0.00  0.00    +0.019 C 
ENDBRANCH   8  20
TORSDOF 2
