REMARK  Name = ZINC14542191
REMARK  6 active torsions:
REMARK  status: ('A' for Active; 'I' for Inactive)
REMARK    1  A    between atoms: C_2  and  C_3
REMARK    2  A    between atoms: C_3  and  N_4
REMARK    3  A    between atoms: C_7  and  C_9
REMARK    4  A    between atoms: C_18  and  N_69
REMARK    5  A    between atoms: C_22  and  C_23
REMARK    6  A    between atoms: C_22  and  N_69
REMARK                            x       y       z     vdW  Elec       q    Type
REMARK                         _______ _______ _______ _____ _____    ______ ____
ROOT
ATOM      1  N   UNL     1       1.430   0.466   6.187  0.00  0.00    -0.264 N 
ATOM      2  C   UNL     1       1.084   1.030   5.018  0.00  0.00    +0.043 A 
ATOM      3  C   UNL     1      -0.268   0.975   4.930  0.00  0.00    +0.004 A 
ATOM      4  C   UNL     1      -0.706   0.351   6.109  0.00  0.00    +0.151 A 
ATOM      5  N   UNL     1       0.376   0.074   6.816  0.00  0.00    -0.166 NA
ATOM      6  C   UNL     1      -1.070   1.496   3.769  0.00  0.00    +0.023 C 
ATOM      7  C   UNL     1      -0.120   1.702   2.581  0.00  0.00    -0.067 C 
ATOM      8  C   UNL     1       1.104   2.500   3.038  0.00  0.00    -0.009 C 
ATOM      9  C   UNL     1       1.972   1.631   3.958  0.00  0.00    +0.054 C 
ENDROOT
BRANCH   4  10
ATOM     10  C   UNL     1      -2.105   0.060   6.486  0.00  0.00    +0.267 C 
ATOM     11  O   UNL     1      -3.003   0.266   5.693  0.00  0.00    -0.268 OA
ATOM     12  N   UNL     1      -2.385  -0.432   7.709  0.00  0.00    -0.292 N 
ATOM     13  C   UNL     1      -1.335  -0.559   8.733  0.00  0.00    +0.136 C 
ATOM     14  C   UNL     1      -1.847   0.094  10.027  0.00  0.00    +0.179 C 
ATOM     15  O   UNL     1      -3.125  -0.457  10.356  0.00  0.00    -0.377 OA
ATOM     16  C   UNL     1      -4.140  -0.202   9.383  0.00  0.00    +0.179 C 
ATOM     17  C   UNL     1      -3.747  -0.865   8.058  0.00  0.00    +0.136 C 
ENDBRANCH   4  10
BRANCH   7  18
ATOM     18  N   UNL     1      -0.826   2.448   1.522  0.00  0.00    +0.381 N 
ATOM     19  H   UNL     1      -0.758   3.454   1.713  0.00  0.00    -0.086 HD
ATOM     20  H   UNL     1      -1.813   2.167   1.510  0.00  0.00    -0.086 HD
BRANCH  18  21
ATOM     21  C   UNL     1      -0.223   2.161   0.206  0.00  0.00    -0.078 C 
BRANCH  21  22
ATOM     22  C   UNL     1      -0.974   2.946  -0.871  0.00  0.00    -0.022 C 
ATOM     23  C   UNL     1      -2.414   2.438  -0.962  0.00  0.00    -0.009 C 
ATOM     24  C   UNL     1      -3.165   3.223  -2.039  0.00  0.00    +0.007 C 
ATOM     25  C   UNL     1      -2.470   3.030  -3.389  0.00  0.00    -0.010 C 
ATOM     26  C   UNL     1      -2.464   1.544  -3.752  0.00  0.00    +0.007 C 
ATOM     27  C   UNL     1      -1.713   0.759  -2.674  0.00  0.00    -0.010 C 
ATOM     28  C   UNL     1      -2.408   0.952  -1.325  0.00  0.00    +0.007 C 
ATOM     29  C   UNL     1      -0.273   1.267  -2.583  0.00  0.00    +0.007 C 
ATOM     30  C   UNL     1      -0.278   2.754  -2.220  0.00  0.00    -0.009 C 
ATOM     31  C   UNL     1      -1.029   3.539  -3.298  0.00  0.00    +0.007 C 
ENDBRANCH  21  22
ENDBRANCH  18  21
ENDBRANCH   7  18
BRANCH   1  32
ATOM     32  C   UNL     1       2.803   0.319   6.675  0.00  0.00    +0.170 C 
BRANCH  32  34
ATOM     33  C   UNL     1       3.619   1.397   8.708  0.00  0.00    +0.006 C 
ATOM     34  C   UNL     1       3.183   1.535   7.481  0.00  0.00    -0.012 C 
ENDBRANCH  32  34
ENDBRANCH   1  32
TORSDOF 6
