REMARK  Name = ZINC20556249
REMARK  6 active torsions:
REMARK  status: ('A' for Active; 'I' for Inactive)
REMARK    1  A    between atoms: C_1  and  C_2
REMARK    2  A    between atoms: C_5  and  C_11
REMARK    3  A    between atoms: C_7  and  N_8
REMARK    4  A    between atoms: C_11  and  C_13
REMARK    5  A    between atoms: C_11  and  N_14
REMARK    6  A    between atoms: N_14  and  C_15
REMARK                            x       y       z     vdW  Elec       q    Type
REMARK                         _______ _______ _______ _____ _____    ______ ____
ROOT
ATOM      1  C   UNL     1       2.318   5.368  -0.013  0.00  0.00    +0.098 C 
ATOM      2  C   UNL     1       2.030   6.110   1.294  0.00  0.00    +0.033 C 
ENDROOT
BRANCH   1   7
ATOM      3  C   UNL     1       7.232   7.353  -2.314  0.00  0.00    +0.046 C 
ATOM      4  C   UNL     1       5.951   6.835  -1.714  0.00  0.00    -0.020 A 
ATOM      5  C   UNL     1       5.992   5.915  -0.683  0.00  0.00    +0.006 A 
ATOM      6  C   UNL     1       4.817   5.441  -0.132  0.00  0.00    +0.006 A 
ATOM      7  C   UNL     1       3.599   5.886  -0.613  0.00  0.00    -0.025 A 
ATOM      8  C   UNL     1       3.558   6.802  -1.647  0.00  0.00    +0.038 A 
ATOM      9  C   UNL     1       4.734   7.281  -2.194  0.00  0.00    +0.129 A 
BRANCH   9  10
ATOM     10  N   UNL     1       4.689   8.265  -3.298  0.00  0.00    +0.057 N 
ATOM     11  O   UNL     1       3.623   8.742  -3.647  0.00  0.00    -0.126 OA
ATOM     12  O   UNL     1       5.718   8.599  -3.858  0.00  0.00    -0.126 OA
ENDBRANCH   9  10
ENDBRANCH   1   7
BRANCH   1  13
ATOM     13  N   UNL     1       2.450   3.934   0.259  0.00  0.00    -0.336 N 
ATOM     14  H   UNL     1       3.445   3.495   0.421  0.00  0.00    +0.147 HD
BRANCH  13  15
ATOM     15  C   UNL     1       1.311   3.125   0.311  0.00  0.00    +0.048 A 
ATOM     16  C   UNL     1       0.054   3.679   0.106  0.00  0.00    +0.044 A 
ATOM     17  C   UNL     1      -1.069   2.876   0.158  0.00  0.00    +0.043 A 
ATOM     18  C   UNL     1      -0.942   1.520   0.409  0.00  0.00    +0.021 A 
ATOM     19  C   UNL     1       0.307   0.967   0.619  0.00  0.00    +0.023 A 
ATOM     20  C   UNL     1       1.435   1.765   0.568  0.00  0.00    +0.062 A 
ATOM     21 CL   UNL     1       3.004   1.069   0.826  0.00  0.00    -0.082 Cl
ATOM     22 CL   UNL     1      -2.641   3.566  -0.099  0.00  0.00    -0.083 Cl
ENDBRANCH  13  15
ENDBRANCH   1  13
TORSDOF 4
