REMARK  Name = ZINC50829207
REMARK  4 active torsions:
REMARK  status: ('A' for Active; 'I' for Inactive)
REMARK    1  A    between atoms: C_1  and  N_2
REMARK    2  A    between atoms: N_2  and  C_3
REMARK    3  A    between atoms: C_4  and  C_8
REMARK    4  A    between atoms: C_8  and  N_9
REMARK                            x       y       z     vdW  Elec       q    Type
REMARK                         _______ _______ _______ _____ _____    ______ ____
ROOT
ATOM      1  N   UNL     1       1.516  -3.366  -0.750  0.00  0.00    -0.261 N 
ATOM      2  C   UNL     1       1.918  -2.626  -1.855  0.00  0.00    +0.045 A 
ATOM      3  C   UNL     1       1.513  -1.472  -2.501  0.00  0.00    +0.024 A 
ATOM      4  C   UNL     1       2.200  -1.029  -3.631  0.00  0.00    +0.002 A 
ATOM      5  C   UNL     1       3.280  -1.683  -4.157  0.00  0.00    +0.008 A 
ATOM      6  C   UNL     1       3.722  -2.860  -3.530  0.00  0.00    -0.015 A 
ATOM      7  C   UNL     1       3.018  -3.280  -2.402  0.00  0.00    +0.016 A 
ATOM      8  C   UNL     1       3.326  -4.430  -1.661  0.00  0.00    +0.047 A 
ATOM      9  C   UNL     1       4.404  -5.181  -2.096  0.00  0.00    +0.014 A 
ATOM     10  C   UNL     1       5.120  -4.774  -3.221  0.00  0.00    +0.001 A 
ATOM     11  C   UNL     1       4.810  -3.650  -3.939  0.00  0.00    +0.008 A 
ATOM     12  C   UNL     1       2.325  -4.447  -0.587  0.00  0.00    +0.252 C 
ATOM     13  O   UNL     1       2.233  -5.282   0.293  0.00  0.00    -0.270 OA
ENDROOT
BRANCH   1  14
ATOM     14  C   UNL     1       0.387  -3.027   0.119  0.00  0.00    +0.173 C 
BRANCH  14  16
ATOM     15  C   UNL     1       1.226  -2.466   2.419  0.00  0.00    +0.110 A 
ATOM     16  C   UNL     1       0.841  -2.053   1.175  0.00  0.00    +0.111 A 
ATOM     17  N   UNL     1       0.889  -0.759   0.951  0.00  0.00    -0.143 NA
ATOM     18  N   UNL     1       1.286   0.029   1.892  0.00  0.00    -0.108 NA
ATOM     19  S   UNL     1       1.614  -1.010   3.165  0.00  0.00    +0.052 S 
BRANCH  15  21
ATOM     20  C   UNL     1       1.819  -3.988   4.278  0.00  0.00    +0.126 C 
ATOM     21  N   UNL     1       1.277  -3.758   2.937  0.00  0.00    -0.339 N 
ATOM     22  H   UNL     1       0.954  -4.505   2.409  0.00  0.00    +0.146 HD
ENDBRANCH  15  21
ENDBRANCH  14  16
ENDBRANCH   1  14
TORSDOF 3
