REMARK  Name = ZINC43669215
REMARK  6 active torsions:
REMARK  status: ('A' for Active; 'I' for Inactive)
REMARK    1  A    between atoms: C_1  and  C_2
REMARK    2  A    between atoms: C_4  and  N_19
REMARK    3  A    between atoms: N_5  and  C_7
REMARK    4  A    between atoms: C_7  and  C_9
REMARK    5  A    between atoms: C_7  and  C_10
REMARK    6  A    between atoms: C_13  and  N_16
REMARK                            x       y       z     vdW  Elec       q    Type
REMARK                         _______ _______ _______ _____ _____    ______ ____
ROOT
ATOM      1  C   UNL     1       0.054  -3.291   1.500  0.00  0.00    +0.136 C 
ATOM      2  C   UNL     1      -1.191  -3.292   2.389  0.00  0.00    +0.038 C 
ENDROOT
BRANCH   1   7
ATOM      3  C   UNL     1      -0.018   1.503   0.010  0.00  0.00    +0.068 C 
ATOM      4  C   UNL     1       0.002  -0.004   0.002  0.00  0.00    +0.075 A 
ATOM      5  C   UNL     1       0.008  -0.815  -1.136  0.00  0.00    +0.075 A 
ATOM      6  C   UNL     1       0.028  -2.113  -0.724  0.00  0.00    +0.129 A 
ATOM      7  N   UNL     1       0.034  -2.109   0.634  0.00  0.00    -0.243 N 
ATOM      8  N   UNL     1       0.023  -0.775   1.059  0.00  0.00    -0.173 NA
ATOM      9  I   UNL     1      -0.011  -0.152  -3.124  0.00  0.00    -0.038 I 
BRANCH   6  10
ATOM     10  N   UNL     1       0.040  -3.238  -1.545  0.00  0.00    -0.342 N 
ATOM     11  H   UNL     1       0.034  -3.135  -2.509  0.00  0.00    +0.144 HD
ATOM     12  H   UNL     1       0.053  -4.125  -1.152  0.00  0.00    +0.144 HD
ENDBRANCH   6  10
ENDBRANCH   1   7
BRANCH   1  13
ATOM     13  C   UNL     1       1.289  -3.259   2.364  0.00  0.00    -0.023 A 
ATOM     14  C   UNL     1       1.494  -2.207   3.237  0.00  0.00    +0.008 A 
ATOM     15  C   UNL     1       2.627  -2.178   4.030  0.00  0.00    +0.033 A 
ATOM     16  C   UNL     1       3.553  -3.201   3.950  0.00  0.00    +0.126 A 
ATOM     17  C   UNL     1       3.347  -4.254   3.077  0.00  0.00    +0.033 A 
ATOM     18  C   UNL     1       2.212  -4.285   2.288  0.00  0.00    +0.008 A 
BRANCH  16  19
ATOM     19  N   UNL     1       4.766  -3.170   4.798  0.00  0.00    +0.056 N 
ATOM     20  O   UNL     1       4.946  -2.249   5.561  0.00  0.00    -0.126 OA
ATOM     21  O   UNL     1       5.576  -4.065   4.728  0.00  0.00    -0.126 OA
ENDBRANCH  16  19
ENDBRANCH   1  13
TORSDOF 4
