REMARK  Name = ZINC15880103
REMARK  2 active torsions:
REMARK  status: ('A' for Active; 'I' for Inactive)
REMARK    1  A    between atoms: C_1  and  N_2
REMARK    2  A    between atoms: C_11  and  C_13
REMARK                            x       y       z     vdW  Elec       q    Type
REMARK                         _______ _______ _______ _____ _____    ______ ____
ROOT
ATOM      1  C   UNL     1      -0.018   1.465   0.010  0.00  0.00    +0.105 C 
ATOM      2  N   UNL     1       0.002  -0.004   0.002  0.00  0.00    -0.300 NA
ATOM      3  C   UNL     1      -1.362  -0.549   0.020  0.00  0.00    +0.090 C 
ATOM      4  C   UNL     1      -1.348  -2.033  -0.362  0.00  0.00    +0.071 C 
ATOM      5  C   UNL     1      -0.326  -2.738   0.519  0.00  0.00    +0.056 A 
ATOM      6  C   UNL     1       0.616  -2.008   1.173  0.00  0.00    +0.028 A 
ATOM      7  S   UNL     1       1.534  -3.250   2.037  0.00  0.00    -0.055 S 
ATOM      8  C   UNL     1       0.655  -4.585   1.500  0.00  0.00    +0.165 A 
ATOM      9  N   UNL     1      -0.259  -4.049   0.721  0.00  0.00    -0.229 NA
ATOM     10  N   UNL     1       0.850  -5.926   1.806  0.00  0.00    -0.261 N 
ATOM     11  C   UNL     1       1.851  -6.290   2.633  0.00  0.00    +0.252 C 
ATOM     12  O   UNL     1       2.583  -5.444   3.111  0.00  0.00    -0.270 OA
ATOM     13  C   UNL     1       0.790  -0.529   1.135  0.00  0.00    +0.128 C 
ATOM     14  H   UNL     1       0.267  -6.600   1.425  0.00  0.00    +0.157 HD
ENDROOT
BRANCH  11  15
ATOM     15  C   UNL     1       2.057  -7.709   2.956  0.00  0.00    +0.064 A 
ATOM     16  C   UNL     1       1.212  -8.742   2.404  0.00  0.00    +0.042 A 
ATOM     17  C   UNL     1       1.508 -10.003   2.779  0.00  0.00    +0.080 A 
ATOM     18  S   UNL     1       2.904  -9.787   3.861  0.00  0.00    -0.064 S 
ATOM     19  C   UNL     1       3.070  -8.118   3.797  0.00  0.00    +0.091 A 
ATOM     20 CL   UNL     1       4.247  -7.132   4.608  0.00  0.00    -0.075 Cl
ATOM     21 CL   UNL     1       0.717 -11.479   2.319  0.00  0.00    -0.076 Cl
ENDBRANCH  11  15
TORSDOF 1
