REMARK  Name = ZINC04160158
REMARK  3 active torsions:
REMARK  status: ('A' for Active; 'I' for Inactive)
REMARK    1  A    between atoms: N_9  and  N_10
REMARK    2  A    between atoms: C_11  and  C_12
REMARK    3  A    between atoms: C_15  and  O_19
REMARK                            x       y       z     vdW  Elec       q    Type
REMARK                         _______ _______ _______ _____ _____    ______ ____
ROOT
ATOM      1  N   UNL     1      -1.244  -2.058   0.003  0.00  0.00    -0.188 NA
ATOM      2  C   UNL     1      -1.263  -0.761   0.011  0.00  0.00    +0.138 C 
ENDROOT
BRANCH   1  11
ATOM      3  C   UNL     1      -2.348  -6.848  -0.012  0.00  0.00    +0.090 A 
ATOM      4  C   UNL     1      -1.202  -6.106  -0.020  0.00  0.00    +0.120 A 
ATOM      5  N   UNL     1      -1.267  -4.777  -0.017  0.00  0.00    -0.223 NA
ATOM      6  C   UNL     1      -2.425  -4.147   0.004  0.00  0.00    +0.215 A 
ATOM      7  N   UNL     1      -3.601  -4.834   0.012  0.00  0.00    -0.294 N 
ATOM      8  H   UNL     1      -4.471  -4.341   0.024  0.00  0.00    +0.172 HD
ATOM      9  C   UNL     1      -3.588  -6.184   0.004  0.00  0.00    +0.253 A 
ATOM     10  O   UNL     1      -4.631  -6.816   0.011  0.00  0.00    -0.268 OA
ATOM     11  N   UNL     1      -2.446  -2.777   0.011  0.00  0.00    -0.207 N 
ATOM     12  H   UNL     1      -3.293  -2.305   0.022  0.00  0.00    +0.177 HD
ENDBRANCH   1  11
BRANCH   2  13
ATOM     13  C   UNL     1       0.002  -0.004   0.002  0.00  0.00    -0.003 A 
ATOM     14  C   UNL     1      -0.017   1.393   0.010  0.00  0.00    +0.028 A 
ATOM     15  C   UNL     1       1.169   2.097   0.002  0.00  0.00    +0.061 A 
ATOM     16  C   UNL     1       2.381   1.419  -0.013  0.00  0.00    +0.145 A 
ATOM     17  C   UNL     1       2.405   0.029  -0.021  0.00  0.00    +0.061 A 
ATOM     18  C   UNL     1       1.224  -0.682  -0.013  0.00  0.00    +0.028 A 
ATOM     19 BR   UNL     1       4.059  -0.887  -0.042  0.00  0.00    -0.046 Br
ATOM     20 BR   UNL     1       1.145   3.988   0.013  0.00  0.00    -0.046 Br
BRANCH  16  21
ATOM     21  O   UNL     1       3.548   2.116  -0.021  0.00  0.00    -0.505 OA
ATOM     22  H   UNL     1       3.877   2.322  -0.906  0.00  0.00    +0.292 HD
ENDBRANCH  16  21
ENDBRANCH   2  13
TORSDOF 3
