REMARK  Name = ZINC67648838
REMARK  6 active torsions:
REMARK  status: ('A' for Active; 'I' for Inactive)
REMARK    1  A    between atoms: C_9  and  C_12
REMARK    2  A    between atoms: C_12  and  N_13
REMARK    3  A    between atoms: C_14  and  C_16
REMARK    4  A    between atoms: C_16  and  N_17
REMARK    5  A    between atoms: N_20  and  C_23
REMARK    6  A    between atoms: C_23  and  C_24
REMARK                            x       y       z     vdW  Elec       q    Type
REMARK                         _______ _______ _______ _____ _____    ______ ____
ROOT
ATOM      1  N   UNL     1       5.908  -2.548  -0.333  0.00  0.00    -0.311 N 
ATOM      2  C   UNL     1       7.214  -2.865  -0.223  0.00  0.00    +0.227 C 
ATOM      3  O   UNL     1       7.563  -3.744   0.536  0.00  0.00    -0.274 OA
ATOM      4  H   UNL     1       5.629  -1.845  -0.940  0.00  0.00    +0.149 HD
ENDROOT
BRANCH   1   5
ATOM      5  C   UNL     1       4.911  -3.265   0.466  0.00  0.00    +0.152 C 
BRANCH   5  14
ATOM      6  C   UNL     1      -0.286   0.410   0.695  0.00  0.00    +0.004 A 
ATOM      7  C   UNL     1       0.844   1.200   0.596  0.00  0.00    +0.004 A 
ATOM      8  C   UNL     1       2.095   0.615   0.530  0.00  0.00    +0.049 A 
ATOM      9  C   UNL     1       2.219  -0.766   0.562  0.00  0.00    +0.163 A 
ATOM     10  C   UNL     1       1.082  -1.560   0.659  0.00  0.00    +0.162 A 
ATOM     11  C   UNL     1      -0.170  -0.967   0.727  0.00  0.00    +0.049 A 
ATOM     12  O   UNL     1       1.181  -2.917   0.683  0.00  0.00    -0.485 OA
ATOM     13  C   UNL     1       2.468  -3.464   0.988  0.00  0.00    +0.275 C 
ATOM     14  C   UNL     1       3.517  -2.716   0.155  0.00  0.00    +0.228 C 
ATOM     15  O   UNL     1       3.457  -1.327   0.499  0.00  0.00    -0.480 OA
ENDBRANCH   5  14
ENDBRANCH   1   5
BRANCH   2  16
ATOM     16  C   UNL     1       8.239  -2.127  -1.045  0.00  0.00    +0.180 C 
BRANCH  16  17
ATOM     17  N   UNL     1       9.577  -2.655  -0.746  0.00  0.00    -0.298 NA
ATOM     18  C   UNL     1       9.965  -2.354   0.639  0.00  0.00    +0.066 C 
ATOM     19  C   UNL     1      11.335  -2.971   0.928  0.00  0.00    -0.063 C 
ATOM     20  N   UNL     1      12.326  -2.420  -0.006  0.00  0.00    +0.382 N 
ATOM     21  C   UNL     1      11.939  -2.749  -1.384  0.00  0.00    -0.063 C 
ATOM     22  C   UNL     1      10.573  -2.131  -1.692  0.00  0.00    +0.066 C 
ATOM     23  H   UNL     1      12.368  -1.418   0.101  0.00  0.00    -0.082 HD
BRANCH  20  24
ATOM     24  C   UNL     1      13.646  -2.998   0.282  0.00  0.00    -0.075 C 
BRANCH  24  25
ATOM     25  C   UNL     1      14.117  -2.530   1.661  0.00  0.00    -0.028 C 
ATOM     26  C   UNL     1      14.345  -1.018   1.635  0.00  0.00    +0.002 C 
ATOM     27  C   UNL     1      14.817  -0.549   3.013  0.00  0.00    +0.000 C 
ATOM     28  C   UNL     1      16.126  -1.256   3.371  0.00  0.00    +0.000 C 
ATOM     29  C   UNL     1      15.897  -2.769   3.397  0.00  0.00    +0.000 C 
ATOM     30  C   UNL     1      15.426  -3.237   2.019  0.00  0.00    +0.002 C 
ENDBRANCH  24  25
ENDBRANCH  20  24
ENDBRANCH  16  17
ENDBRANCH   2  16
TORSDOF 6
