REMARK  Name = ZINC56873900
REMARK  5 active torsions:
REMARK  status: ('A' for Active; 'I' for Inactive)
REMARK    1  A    between atoms: C_2  and  C_3
REMARK    2  A    between atoms: C_3  and  N_4
REMARK    3  A    between atoms: N_4  and  C_5
REMARK    4  A    between atoms: C_5  and  C_6
REMARK    5  A    between atoms: N_15  and  C_16
REMARK                            x       y       z     vdW  Elec       q    Type
REMARK                         _______ _______ _______ _____ _____    ______ ____
ROOT
ATOM      1  N   UNL     1      -1.278  -1.645  -1.113  0.00  0.00    -0.277 N 
ATOM      2  C   UNL     1      -1.799  -1.263  -2.295  0.00  0.00    +0.303 C 
ATOM      3  O   UNL     1      -1.836  -2.046  -3.225  0.00  0.00    -0.253 OA
ATOM      4  N   UNL     1      -2.279  -0.013  -2.447  0.00  0.00    -0.296 N 
ATOM      5  H   UNL     1      -2.249   0.612  -1.706  0.00  0.00    +0.151 HD
ENDROOT
BRANCH   4   6
ATOM      6  C   UNL     1      -2.845   0.403  -3.733  0.00  0.00    +0.077 C 
ATOM      7  C   UNL     1      -4.316  -0.014  -3.801  0.00  0.00    +0.041 C 
ATOM      8  C   UNL     1      -4.896   0.392  -5.160  0.00  0.00    +0.108 C 
ATOM      9  N   UNL     1      -4.666   1.829  -5.362  0.00  0.00    -0.317 N 
ATOM     10  C   UNL     1      -3.299   2.351  -5.229  0.00  0.00    +0.108 C 
ATOM     11  C   UNL     1      -2.737   1.924  -3.870  0.00  0.00    +0.041 C 
ATOM     12  C   UNL     1      -5.721   2.678  -5.673  0.00  0.00    +0.099 A 
ATOM     13  C   UNL     1      -6.984   2.147  -5.918  0.00  0.00    +0.042 A 
ATOM     14  C   UNL     1      -8.025   3.003  -6.226  0.00  0.00    +0.005 A 
ATOM     15  C   UNL     1      -7.768   4.367  -6.280  0.00  0.00    +0.018 A 
ATOM     16  C   UNL     1      -6.491   4.825  -6.027  0.00  0.00    +0.084 A 
ATOM     17  N   UNL     1      -5.518   3.985  -5.729  0.00  0.00    -0.350 N 
ATOM     18  H   UNL     1      -4.630   4.333  -5.551  0.00  0.00    +0.166 HD
ENDBRANCH   4   6
BRANCH   1  19
ATOM     19  C   UNL     1      -1.233  -0.702   0.007  0.00  0.00    +0.136 C 
BRANCH  19  21
ATOM     20  C   UNL     1       0.054   1.372  -0.046  0.00  0.00    +0.005 C 
ATOM     21  C   UNL     1       0.065   0.062  -0.031  0.00  0.00    -0.016 C 
ENDBRANCH  19  21
ENDBRANCH   1  19
BRANCH   1  22
ATOM     22  C   UNL     1      -0.756  -3.004  -0.947  0.00  0.00    +0.147 C 
BRANCH  22  23
ATOM     23  C   UNL     1      -1.860  -3.911  -0.468  0.00  0.00    +0.005 A 
ATOM     24  C   UNL     1      -1.954  -4.238   0.872  0.00  0.00    +0.008 A 
ATOM     25  C   UNL     1      -2.966  -5.070   1.312  0.00  0.00    +0.000 A 
ATOM     26  C   UNL     1      -3.886  -5.576   0.412  0.00  0.00    +0.003 A 
ATOM     27  C   UNL     1      -3.795  -5.250  -0.927  0.00  0.00    +0.038 A 
ATOM     28  C   UNL     1      -2.784  -4.413  -1.369  0.00  0.00    +0.128 A 
ATOM     29  F   UNL     1      -2.697  -4.090  -2.677  0.00  0.00    -0.205 F 
ENDBRANCH  22  23
ENDBRANCH   1  22
TORSDOF 5
