REMARK  Name = ZINC38999908
REMARK  8 active torsions:
REMARK  status: ('A' for Active; 'I' for Inactive)
REMARK    1  A    between atoms: C_1  and  C_2
REMARK    2  A    between atoms: C_7  and  C_14
REMARK    3  A    between atoms: C_14  and  N_15
REMARK    4  A    between atoms: N_15  and  C_16
REMARK    5  A    between atoms: C_16  and  C_17
REMARK    6  A    between atoms: C_17  and  C_18
REMARK    7  A    between atoms: C_17  and  C_19
REMARK    8  A    between atoms: C_20  and  C_22
REMARK                            x       y       z     vdW  Elec       q    Type
REMARK                         _______ _______ _______ _____ _____    ______ ____
ROOT
ATOM      1  C   UNL     1       1.508   1.881   0.638  0.00  0.00    +0.044 C 
ATOM      2  C   UNL     1       1.348   0.394   0.453  0.00  0.00    -0.049 A 
ATOM      3  C   UNL     1       1.570  -0.151  -0.813  0.00  0.00    +0.004 A 
ATOM      4  C   UNL     1       1.441  -1.483  -1.042  0.00  0.00    +0.010 A 
ATOM      5  C   UNL     1       1.062  -2.357   0.069  0.00  0.00    -0.007 A 
ATOM      6  C   UNL     1       0.921  -3.700  -0.114  0.00  0.00    -0.003 C 
ATOM      7  C   UNL     1       0.526  -4.529   1.093  0.00  0.00    +0.116 C 
ATOM      8  C   UNL     1       0.320  -3.798   2.400  0.00  0.00    +0.226 C 
ATOM      9  O   UNL     1       0.003  -4.413   3.400  0.00  0.00    -0.275 OA
ATOM     10  N   UNL     1       0.487  -2.487   2.452  0.00  0.00    -0.284 N 
ATOM     11  C   UNL     1       0.834  -1.755   1.394  0.00  0.00    +0.041 A 
ATOM     12  C   UNL     1       0.999  -0.364   1.525  0.00  0.00    +0.027 A 
ATOM     13  H   UNL     1       0.350  -2.037   3.301  0.00  0.00    +0.155 HD
ENDROOT
BRANCH   7  14
ATOM     14  C   UNL     1       1.610  -5.585   1.312  0.00  0.00    +0.124 C 
BRANCH  14  15
ATOM     15  N   UNL     1       1.206  -6.482   2.397  0.00  0.00    -0.300 N 
ATOM     16  C   UNL     1       1.656  -6.270   3.650  0.00  0.00    +0.212 C 
ATOM     17  O   UNL     1       2.328  -5.291   3.895  0.00  0.00    -0.276 OA
ATOM     18  C   UNL     1       1.323  -7.250   4.746  0.00  0.00    +0.109 C 
BRANCH  15  19
ATOM     19  C   UNL     1       0.311  -7.610   2.121  0.00  0.00    +0.110 C 
BRANCH  19  20
ATOM     20  C   UNL     1       1.133  -8.803   1.630  0.00  0.00    +0.000 C 
ATOM     21  C   UNL     1       2.055  -9.284   2.752  0.00  0.00    +0.009 C 
ATOM     22  C   UNL     1       0.190  -9.938   1.224  0.00  0.00    +0.009 C 
ENDBRANCH  19  20
ENDBRANCH  15  19
ENDBRANCH  14  15
ENDBRANCH   7  14
TORSDOF 4
