REMARK  Name = ZINC28817820
REMARK  6 active torsions:
REMARK  status: ('A' for Active; 'I' for Inactive)
REMARK    1  A    between atoms: C_4  and  O_23
REMARK    2  A    between atoms: C_5  and  C_7
REMARK    3  A    between atoms: N_9  and  N_10
REMARK    4  A    between atoms: C_11  and  C_13
REMARK    5  A    between atoms: C_13  and  O_14
REMARK    6  A    between atoms: O_14  and  C_15
REMARK                            x       y       z     vdW  Elec       q    Type
REMARK                         _______ _______ _______ _____ _____    ______ ____
ROOT
ATOM      1  N   UNL     1       0.048   0.008   4.876  0.00  0.00    -0.231 N 
ATOM      2  C   UNL     1       0.069  -0.679   6.036  0.00  0.00    +0.267 C 
ATOM      3  O   UNL     1       0.085  -1.891   6.022  0.00  0.00    -0.271 OA
ATOM      4  H   UNL     1       0.033   1.108   4.889  0.00  0.00    +0.173 HD
ENDROOT
BRANCH   1   7
ATOM      5  C   UNL     1       0.026   0.009   2.496  0.00  0.00    +0.264 C 
ATOM      6  O   UNL     1       0.009   1.224   2.510  0.00  0.00    -0.269 OA
ATOM      7  N   UNL     1       0.046  -0.678   3.655  0.00  0.00    -0.230 N 
ATOM      8  H   UNL     1       0.061  -1.778   3.643  0.00  0.00    +0.173 HD
BRANCH   5  13
ATOM      9  C   UNL     1       0.039  -2.780  -0.015  0.00  0.00    +0.001 A 
ATOM     10  C   UNL     1       0.018  -2.075  -1.207  0.00  0.00    +0.004 A 
ATOM     11  C   UNL     1      -0.006  -0.694  -1.201  0.00  0.00    +0.046 A 
ATOM     12  C   UNL     1       0.002  -0.004   0.002  0.00  0.00    +0.129 A 
ATOM     13  C   UNL     1       0.023  -0.714   1.210  0.00  0.00    +0.079 A 
ATOM     14  C   UNL     1       0.042  -2.111   1.189  0.00  0.00    +0.017 A 
BRANCH  12  15
ATOM     15  O   UNL     1      -0.016   1.352   0.009  0.00  0.00    -0.506 OA
ATOM     16  H   UNL     1      -0.010   1.897   0.965  0.00  0.00    +0.292 HD
ENDBRANCH  12  15
ENDBRANCH   5  13
ENDBRANCH   1   7
BRANCH   2  17
ATOM     17  C   UNL     1       0.071   0.060   7.349  0.00  0.00    +0.326 C 
BRANCH  17  18
ATOM     18  O   UNL     1       0.094  -0.881   8.425  0.00  0.00    -0.481 OA
BRANCH  18  19
ATOM     19  C   UNL     1       0.099  -0.376   9.687  0.00  0.00    +0.141 A 
ATOM     20  C   UNL     1       0.088   0.997   9.885  0.00  0.00    +0.067 A 
ATOM     21  C   UNL     1       0.089   1.508  11.170  0.00  0.00    +0.045 A 
ATOM     22  C   UNL     1       0.110   0.652  12.257  0.00  0.00    +0.021 A 
ATOM     23  C   UNL     1       0.127  -0.716  12.061  0.00  0.00    +0.025 A 
ATOM     24  C   UNL     1       0.121  -1.233  10.778  0.00  0.00    +0.083 A 
ATOM     25 CL   UNL     1       0.141  -2.951  10.534  0.00  0.00    -0.080 Cl
ATOM     26 CL   UNL     1       0.069   3.226  11.419  0.00  0.00    -0.083 Cl
ENDBRANCH  18  19
ENDBRANCH  17  18
ENDBRANCH   2  17
TORSDOF 6
