REMARK  Name = ZINC01143845
REMARK  5 active torsions:
REMARK  status: ('A' for Active; 'I' for Inactive)
REMARK    1  A    between atoms: C_3  and  C_6
REMARK    2  A    between atoms: C_8  and  C_20
REMARK    3  A    between atoms: C_10  and  C_15
REMARK    4  A    between atoms: C_10  and  O_19
REMARK    5  A    between atoms: C_20  and  C_22
REMARK                            x       y       z     vdW  Elec       q    Type
REMARK                         _______ _______ _______ _____ _____    ______ ____
ROOT
ATOM      1  C   UNL     1      -1.297   1.665   0.017  0.00  0.00    +0.127 C 
ATOM      2  C   UNL     1      -1.127   3.014   0.731  0.00  0.00    +0.144 C 
ATOM      3  C   UNL     1      -0.008   3.794   0.034  0.00  0.00    +0.243 C 
ATOM      4  N   UNL     1       1.208   2.979   0.017  0.00  0.00    -0.264 N 
ATOM      5  C   UNL     1       1.149   1.639  -0.000  0.00  0.00    +0.302 C 
ATOM      6  O   UNL     1       2.189   1.009  -0.023  0.00  0.00    -0.253 OA
ATOM      7  N   UNL     1      -0.011   0.966   0.007  0.00  0.00    -0.291 N 
ATOM      8  H   UNL     1       2.074   3.416   0.020  0.00  0.00    +0.153 HD
ATOM      9  H   UNL     1       0.002  -0.004   0.002  0.00  0.00    +0.151 HD
ENDROOT
BRANCH   1  12
ATOM     10  C   UNL     1      -4.378  -0.187   1.277  0.00  0.00    +0.008 A 
ATOM     11  C   UNL     1      -3.623   0.625   0.452  0.00  0.00    +0.013 A 
ATOM     12  C   UNL     1      -2.317   0.833   0.750  0.00  0.00    +0.011 A 
ATOM     13  S   UNL     1      -2.118  -0.140   2.233  0.00  0.00    -0.100 S 
ATOM     14  C   UNL     1      -3.791  -0.751   2.360  0.00  0.00    +0.045 A 
ENDBRANCH   1  12
BRANCH   3  15
ATOM     15  C   UNL     1       0.259   5.095   0.793  0.00  0.00    +0.436 C 
ATOM     16  F   UNL     1       1.286   5.803   0.159  0.00  0.00    -0.166 F 
ATOM     17  F   UNL     1       0.638   4.799   2.107  0.00  0.00    -0.166 F 
ATOM     18  F   UNL     1      -0.904   5.873   0.808  0.00  0.00    -0.166 F 
ENDBRANCH   3  15
BRANCH   3  19
ATOM     19  O   UNL     1      -0.399   4.094  -1.308  0.00  0.00    -0.364 OA
ATOM     20  H   UNL     1       0.265   4.584  -1.811  0.00  0.00    +0.212 HD
ENDBRANCH   3  19
BRANCH   2  21
ATOM     21  C   UNL     1      -2.414   3.793   0.650  0.00  0.00    +0.173 C 
ATOM     22  O   UNL     1      -2.620   4.528  -0.292  0.00  0.00    -0.292 OA
BRANCH  21  23
ATOM     23  C   UNL     1      -3.421   3.664   1.715  0.00  0.00    +0.018 A 
ATOM     24  C   UNL     1      -3.190   2.813   2.801  0.00  0.00    +0.013 A 
ATOM     25  C   UNL     1      -4.135   2.700   3.797  0.00  0.00    +0.020 A 
ATOM     26  C   UNL     1      -5.318   3.418   3.719  0.00  0.00    +0.041 A 
ATOM     27  C   UNL     1      -5.556   4.259   2.644  0.00  0.00    +0.020 A 
ATOM     28  C   UNL     1      -4.617   4.386   1.643  0.00  0.00    +0.013 A 
ATOM     29 CL   UNL     1      -6.506   3.264   4.975  0.00  0.00    -0.084 Cl
ENDBRANCH  21  23
ENDBRANCH   2  21
TORSDOF 5
