REMARK  Name = ZINC49010216
REMARK  5 active torsions:
REMARK  status: ('A' for Active; 'I' for Inactive)
REMARK    1  A    between atoms: C_1  and  C_2
REMARK    2  A    between atoms: C_7  and  N_10
REMARK    3  A    between atoms: N_10  and  C_11
REMARK    4  A    between atoms: N_10  and  C_12
REMARK    5  A    between atoms: C_17  and  N_18
REMARK                            x       y       z     vdW  Elec       q    Type
REMARK                         _______ _______ _______ _____ _____    ______ ____
ROOT
ATOM      1  C   UNL     1      -0.985  -3.283   2.367  0.00  0.00    +0.053 A 
ATOM      2  C   UNL     1      -1.461  -2.627   3.488  0.00  0.00    +0.053 A 
ATOM      3  C   UNL     1      -1.836  -3.362   4.612  0.00  0.00    +0.080 A 
ATOM      4  C   UNL     1      -1.724  -4.771   4.593  0.00  0.00    +0.067 A 
ATOM      5  C   UNL     1      -1.243  -5.422   3.456  0.00  0.00    +0.040 A 
ATOM      6  C   UNL     1      -0.881  -4.681   2.349  0.00  0.00    +0.047 A 
ATOM      7  C   UNL     1      -2.128  -5.512   5.795  0.00  0.00    +0.259 A 
ATOM      8  O   UNL     1      -2.056  -6.726   5.843  0.00  0.00    -0.267 OA
ATOM      9  N   UNL     1      -2.582  -4.793   6.847  0.00  0.00    -0.313 N 
ATOM     10  H   UNL     1      -2.857  -5.249   7.658  0.00  0.00    +0.170 HD
ATOM     11  C   UNL     1      -2.656  -3.437   6.780  0.00  0.00    +0.199 A 
ATOM     12  N   UNL     1      -2.307  -2.755   5.732  0.00  0.00    -0.237 NA
ENDROOT
BRANCH   6  13
ATOM     13  N   UNL     1      -0.403  -5.329   1.203  0.00  0.00    -0.357 N 
ATOM     14  H   UNL     1      -0.144  -4.810   0.425  0.00  0.00    +0.142 HD
ATOM     15  H   UNL     1      -0.330  -6.296   1.188  0.00  0.00    +0.142 HD
ENDBRANCH   6  13
BRANCH   1  16
ATOM     16  N   UNL     1      -0.612  -2.548   1.244  0.00  0.00    -0.328 N 
ATOM     17  C   UNL     1      -1.607  -1.746   0.528  0.00  0.00    +0.129 C 
BRANCH  16  23
ATOM     18  C   UNL     1       2.466  -1.903   4.172  0.00  0.00    +0.007 C 
ATOM     19  C   UNL     1       1.534  -1.672   2.981  0.00  0.00    -0.012 C 
ATOM     20  C   UNL     1       1.876  -0.338   2.316  0.00  0.00    +0.003 C 
ATOM     21  C   UNL     1       0.944  -0.108   1.125  0.00  0.00    +0.002 C 
ATOM     22  C   UNL     1       1.120  -1.242   0.113  0.00  0.00    +0.022 C 
ATOM     23  C   UNL     1       0.777  -2.576   0.778  0.00  0.00    +0.073 C 
ATOM     24  C   UNL     1       1.710  -2.807   1.969  0.00  0.00    +0.025 C 
ENDBRANCH  16  23
ENDBRANCH   1  16
TORSDOF 3
