REMARK  Name = ZINC46775277
REMARK  3 active torsions:
REMARK  status: ('A' for Active; 'I' for Inactive)
REMARK    1  A    between atoms: C_1  and  C_2
REMARK    2  A    between atoms: N_8  and  C_9
REMARK    3  A    between atoms: C_9  and  C_10
REMARK                            x       y       z     vdW  Elec       q    Type
REMARK                         _______ _______ _______ _____ _____    ______ ____
ROOT
ATOM      1  C   UNL     1       0.872  -0.226   3.713  0.00  0.00    +0.146 A 
ATOM      2  N   UNL     1       0.723  -1.375   4.348  0.00  0.00    -0.216 NA
ATOM      3  C   UNL     1       1.571  -1.780   5.280  0.00  0.00    +0.128 A 
ATOM      4  C   UNL     1       2.681  -0.954   5.611  0.00  0.00    +0.051 A 
ATOM      5  C   UNL     1       3.738  -1.197   6.599  0.00  0.00    -0.025 A 
ATOM      6  C   UNL     1       4.682  -0.243   6.723  0.00  0.00    -0.004 A 
ATOM      7  S   UNL     1       4.238   1.008   5.546  0.00  0.00    -0.073 S 
ATOM      8  C   UNL     1       2.773   0.253   4.892  0.00  0.00    +0.114 A 
ATOM      9  N   UNL     1       1.884   0.579   3.973  0.00  0.00    -0.223 NA
ATOM     10  C   UNL     1       5.852  -0.225   7.657  0.00  0.00    +0.043 C 
ATOM     11  C   UNL     1       6.593  -1.566   7.569  0.00  0.00    +0.005 C 
ATOM     12  C   UNL     1       5.983  -2.520   8.590  0.00  0.00    +0.001 C 
ATOM     13  C   UNL     1       4.490  -2.235   8.745  0.00  0.00    +0.005 C 
ATOM     14  C   UNL     1       3.760  -2.478   7.429  0.00  0.00    +0.037 C 
ATOM     15  N   UNL     1       1.381  -2.990   5.923  0.00  0.00    -0.343 N 
ATOM     16  H   UNL     1       2.140  -3.467   6.293  0.00  0.00    +0.144 HD
ATOM     17  H   UNL     1       0.488  -3.360   6.004  0.00  0.00    +0.144 HD
ENDROOT
BRANCH   1  18
ATOM     18  C   UNL     1      -0.133   0.171   2.663  0.00  0.00    +0.161 C 
BRANCH  18  25
ATOM     19  C   UNL     1      -0.439   1.750   0.308  0.00  0.00    +0.026 C 
ATOM     20  C   UNL     1      -0.525   0.223   0.273  0.00  0.00    +0.080 C 
ATOM     21  C   UNL     1      -0.006  -0.287  -1.074  0.00  0.00    +0.178 C 
ATOM     22  O   UNL     1      -0.018  -1.717  -1.073  0.00  0.00    -0.377 OA
ATOM     23  C   UNL     1       0.774  -2.299  -0.033  0.00  0.00    +0.175 C 
ATOM     24  C   UNL     1       0.263  -1.809   1.324  0.00  0.00    +0.113 C 
ATOM     25  N   UNL     1       0.297  -0.340   1.355  0.00  0.00    -0.288 NA
ENDBRANCH  18  25
ENDBRANCH   1  18
TORSDOF 2
