REMARK  Name = ZINC37974233
REMARK  9 active torsions:
REMARK  status: ('A' for Active; 'I' for Inactive)
REMARK    1  A    between atoms: C_1  and  C_2
REMARK    2  A    between atoms: C_2  and  C_4
REMARK    3  A    between atoms: C_2  and  N_11
REMARK    4  A    between atoms: N_6  and  C_7
REMARK    5  A    between atoms: C_7  and  C_8
REMARK    6  A    between atoms: C_7  and  C_9
REMARK    7  A    between atoms: C_7  and  C_10
REMARK    8  A    between atoms: C_15  and  C_16
REMARK    9  A    between atoms: C_19  and  N_22
REMARK                            x       y       z     vdW  Elec       q    Type
REMARK                         _______ _______ _______ _____ _____    ______ ____
ROOT
ATOM      1  N   UNL     1       0.688  -0.476  -1.203  0.00  0.00    -0.320 N 
ATOM      2  C   UNL     1       0.326  -0.222  -2.500  0.00  0.00    +0.106 A 
ATOM      3  C   UNL     1       1.224  -0.842  -3.290  0.00  0.00    +0.102 A 
ATOM      4  N   UNL     1       2.117  -1.462  -2.509  0.00  0.00    -0.346 N 
ATOM      5  C   UNL     1       1.812  -1.249  -1.248  0.00  0.00    +0.119 A 
ATOM      6  H   UNL     1       2.871  -1.984  -2.823  0.00  0.00    +0.167 HD
ENDROOT
BRANCH   5   7
ATOM      7  C   UNL     1       2.557  -1.760  -0.078  0.00  0.00    +0.016 A 
ATOM      8  C   UNL     1       2.652  -0.990   1.082  0.00  0.00    +0.013 A 
ATOM      9  C   UNL     1       3.348  -1.470   2.171  0.00  0.00    +0.023 A 
ATOM     10  C   UNL     1       3.955  -2.719   2.114  0.00  0.00    +0.025 A 
ATOM     11  C   UNL     1       3.862  -3.489   0.959  0.00  0.00    +0.023 A 
ATOM     12  C   UNL     1       3.163  -3.017  -0.130  0.00  0.00    +0.013 A 
BRANCH  10  13
ATOM     13  N   UNL     1       4.659  -3.202   3.217  0.00  0.00    -0.358 N 
ATOM     14  H   UNL     1       4.725  -2.666   4.023  0.00  0.00    +0.142 HD
ATOM     15  H   UNL     1       5.083  -4.073   3.179  0.00  0.00    +0.142 HD
ENDBRANCH  10  13
ENDBRANCH   5   7
BRANCH   1  17
ATOM     16  C   UNL     1      -0.019   1.526   0.010  0.00  0.00    +0.041 C 
ATOM     17  C   UNL     1       0.002  -0.004   0.002  0.00  0.00    +0.171 C 
BRANCH  17  18
ATOM     18  C   UNL     1      -1.412  -0.526   0.013  0.00  0.00    +0.236 C 
ATOM     19  O   UNL     1      -1.808  -1.223  -0.897  0.00  0.00    -0.274 OA
ATOM     20  N   UNL     1      -2.236  -0.217   1.033  0.00  0.00    -0.309 N 
ATOM     21  H   UNL     1      -1.920   0.341   1.761  0.00  0.00    +0.149 HD
BRANCH  20  22
ATOM     22  C   UNL     1      -3.611  -0.724   1.044  0.00  0.00    +0.026 C 
ATOM     23  C   UNL     1      -3.590  -2.254   1.035  0.00  0.00    +0.031 C 
ATOM     24  C   UNL     1      -4.327  -0.231   2.302  0.00  0.00    +0.031 C 
ATOM     25  C   UNL     1      -4.351  -0.217  -0.196  0.00  0.00    +0.031 C 
ENDBRANCH  20  22
ENDBRANCH  17  18
ENDBRANCH   1  17
TORSDOF 5
