REMARK  Name = ZINC34829688
REMARK  10 active torsions:
REMARK  status: ('A' for Active; 'I' for Inactive)
REMARK    1  A    between atoms: C_1  and  C_2
REMARK    2  A    between atoms: C_9  and  C_11
REMARK    3  A    between atoms: C_11  and  C_12
REMARK    4  A    between atoms: C_12  and  C_13
REMARK    5  A    between atoms: C_12  and  C_14
REMARK    6  A    between atoms: C_15  and  C_17
REMARK    7  A    between atoms: C_17  and  N_18
REMARK    8  A    between atoms: C_26  and  C_28
REMARK    9  A    between atoms: C_31  and  O_34
REMARK   10  A    between atoms: O_34  and  C_35
REMARK                            x       y       z     vdW  Elec       q    Type
REMARK                         _______ _______ _______ _____ _____    ______ ____
ROOT
ATOM      1  N   UNL     1      -5.011   1.440   2.674  0.00  0.00    +0.393 N 
ATOM      2  C   UNL     1      -5.991   0.620   1.950  0.00  0.00    -0.072 C 
ATOM      3  C   UNL     1      -7.162   1.516   1.511  0.00  0.00    +0.024 C 
ATOM      4  C   UNL     1      -7.568   2.337   2.691  0.00  0.00    -0.010 A 
ATOM      5  C   UNL     1      -6.862   2.498   3.846  0.00  0.00    -0.047 A 
ATOM      6  C   UNL     1      -7.440   3.308   4.820  0.00  0.00    +0.010 A 
ATOM      7  C   UNL     1      -8.640   3.891   4.591  0.00  0.00    +0.045 A 
ATOM      8  S   UNL     1      -9.025   3.309   2.945  0.00  0.00    -0.101 S 
ATOM      9  C   UNL     1      -5.514   1.802   4.004  0.00  0.00    -0.005 C 
ATOM     10  H   UNL     1      -4.830   2.282   2.147  0.00  0.00    -0.080 HD
ENDROOT
BRANCH   9  11
ATOM     11  C   UNL     1      -4.540   2.735   4.676  0.00  0.00    -0.056 A 
ATOM     12  C   UNL     1      -3.922   3.732   3.945  0.00  0.00    +0.006 A 
ATOM     13  C   UNL     1      -3.028   4.588   4.558  0.00  0.00    +0.046 A 
ATOM     14  C   UNL     1      -2.751   4.448   5.910  0.00  0.00    +0.120 A 
ATOM     15  C   UNL     1      -3.373   3.447   6.643  0.00  0.00    +0.046 A 
ATOM     16  C   UNL     1      -4.270   2.596   6.025  0.00  0.00    +0.006 A 
BRANCH  14  17
ATOM     17  O   UNL     1      -1.872   5.288   6.516  0.00  0.00    -0.495 OA
ATOM     18  C   UNL     1      -1.635   5.085   7.911  0.00  0.00    +0.277 C 
ENDBRANCH  14  17
ENDBRANCH   9  11
BRANCH   1  19
ATOM     19  C   UNL     1      -3.760   0.683   2.819  0.00  0.00    +0.020 C 
BRANCH  19  29
ATOM     20  C   UNL     1      -0.019   1.526   0.010  0.00  0.00    +0.029 C 
ATOM     21  C   UNL     1       0.002  -0.004   0.002  0.00  0.00    +0.090 C 
ATOM     22  C   UNL     1      -1.435  -0.538   0.021  0.00  0.00    +0.130 C 
ATOM     23  N   UNL     1      -2.019  -0.269   1.343  0.00  0.00    -0.300 N 
ATOM     24  C   UNL     1      -1.319  -0.760   2.539  0.00  0.00    +0.126 C 
ATOM     25  C   UNL     1       0.118  -0.225   2.520  0.00  0.00    +0.127 C 
ATOM     26  N   UNL     1       0.705  -0.494   1.196  0.00  0.00    -0.296 N 
ATOM     27  C   UNL     1       1.860  -1.179   1.079  0.00  0.00    +0.216 C 
ATOM     28  O   UNL     1       2.328  -1.395  -0.019  0.00  0.00    -0.276 OA
ATOM     29  C   UNL     1      -3.174   0.415   1.457  0.00  0.00    +0.199 C 
ATOM     30  O   UNL     1      -3.742   0.815   0.463  0.00  0.00    -0.278 OA
BRANCH  27  31
ATOM     31  C   UNL     1       2.570  -1.675   2.312  0.00  0.00    +0.099 C 
BRANCH  31  32
ATOM     32  C   UNL     1       3.846  -2.415   1.903  0.00  0.00    -0.008 C 
ATOM     33  C   UNL     1       4.630  -2.811   3.156  0.00  0.00    +0.008 C 
ATOM     34  C   UNL     1       3.475  -3.673   1.115  0.00  0.00    +0.008 C 
ENDBRANCH  31  32
ENDBRANCH  27  31
ENDBRANCH  19  29
ENDBRANCH   1  19
TORSDOF 6
