REMARK  Name = ZINC09310446
REMARK  4 active torsions:
REMARK  status: ('A' for Active; 'I' for Inactive)
REMARK    1  A    between atoms: C_1  and  N_2
REMARK    2  A    between atoms: C_6  and  C_7
REMARK    3  A    between atoms: C_8  and  C_9
REMARK    4  A    between atoms: C_12  and  N_14
REMARK                            x       y       z     vdW  Elec       q    Type
REMARK                         _______ _______ _______ _____ _____    ______ ____
ROOT
ATOM      1  C   UNL     1       3.998   2.998  -0.019  0.00  0.00    +0.005 C 
ATOM      2  C   UNL     1       5.340   3.432  -0.029  0.00  0.00    +0.046 C 
ENDROOT
BRANCH   1   8
ATOM      3  C   UNL     1      -1.296   2.056   0.019  0.00  0.00    +0.139 C 
ATOM      4  N   UNL     1      -0.016   1.343   0.009  0.00  0.00    -0.258 N 
ATOM      5  C   UNL     1       1.118   2.026   0.002  0.00  0.00    +0.258 C 
ATOM      6  O   UNL     1       1.137   3.240   0.008  0.00  0.00    -0.269 OA
ATOM      7  C   UNL     1       2.372   1.216  -0.014  0.00  0.00    +0.077 C 
ATOM      8  C   UNL     1       3.710   1.649  -0.024  0.00  0.00    +0.020 C 
ATOM      9  S   UNL     1       1.741  -0.401  -0.017  0.00  0.00    -0.061 S 
ATOM     10  C   UNL     1       0.002  -0.004   0.002  0.00  0.00    +0.120 C 
ATOM     11  S   UNL     1      -1.329  -1.081   0.009  0.00  0.00    -0.027 S 
ENDBRANCH   1   8
BRANCH   2  12
ATOM     12  C   UNL     1       5.630   4.785  -0.025  0.00  0.00    +0.131 A 
ATOM     13  C   UNL     1       6.921   5.363  -0.033  0.00  0.00    +0.052 A 
ATOM     14  C   UNL     1       6.737   6.734  -0.024  0.00  0.00    +0.076 A 
ATOM     15  C   UNL     1       5.375   6.966  -0.010  0.00  0.00    +0.280 A 
ATOM     16  O   UNL     1       4.730   5.794  -0.016  0.00  0.00    -0.435 OA
BRANCH  15  17
ATOM     17  N   UNL     1       4.731   8.299   0.003  0.00  0.00    +0.093 N 
ATOM     18  O   UNL     1       5.472   9.388   0.002  0.00  0.00    -0.123 OA
ATOM     19  O   UNL     1       3.418   8.396   0.016  0.00  0.00    -0.123 OA
ENDBRANCH  15  17
ENDBRANCH   2  12
TORSDOF 3
