REMARK  Name = ZINC13076340
REMARK  7 active torsions:
REMARK  status: ('A' for Active; 'I' for Inactive)
REMARK    1  A    between atoms: C_1  and  C_2
REMARK    2  A    between atoms: C_5  and  S_10
REMARK    3  A    between atoms: C_7  and  C_8
REMARK    4  A    between atoms: S_10  and  N_13
REMARK    5  A    between atoms: N_13  and  C_14
REMARK    6  A    between atoms: C_14  and  C_16
REMARK    7  A    between atoms: C_14  and  C_17
REMARK                            x       y       z     vdW  Elec       q    Type
REMARK                         _______ _______ _______ _____ _____    ______ ____
ROOT
ATOM      1  N   UNL     1       2.851  -2.378  -2.372  0.00  0.00    -0.187 NA
ATOM      2  H   UNL     1       2.206  -3.031  -2.056  0.00  0.00    +0.148 HD
ENDROOT
BRANCH   1   3
ATOM      3  S   UNL     1       4.228  -2.881  -3.142  0.00  0.00    +0.059 S 
ATOM      4  O   UNL     1       4.187  -4.301  -3.161  0.00  0.00    -0.153 OA
ATOM      5  O   UNL     1       4.335  -2.106  -4.329  0.00  0.00    -0.153 OA
BRANCH   3  10
ATOM      6  C   UNL     1       8.905  -1.306   0.347  0.00  0.00    +0.044 C 
ATOM      7  C   UNL     1       7.739  -1.702  -0.522  0.00  0.00    -0.036 A 
ATOM      8  C   UNL     1       7.267  -0.834  -1.485  0.00  0.00    +0.006 A 
ATOM      9  C   UNL     1       6.200  -1.198  -2.287  0.00  0.00    +0.029 A 
ATOM     10  C   UNL     1       5.591  -2.430  -2.121  0.00  0.00    +0.106 A 
ATOM     11  C   UNL     1       6.052  -3.308  -1.162  0.00  0.00    +0.044 A 
ATOM     12  C   UNL     1       7.132  -2.948  -0.353  0.00  0.00    +0.068 A 
BRANCH  12  13
ATOM     13  C   UNL     1       7.631  -3.883   0.677  0.00  0.00    +0.387 C 
ATOM     14  O   UNL     1       8.639  -3.617   1.301  0.00  0.00    -0.241 OA
ATOM     15  O   UNL     1       6.969  -5.030   0.923  0.00  0.00    -0.241 OA
ENDBRANCH  12  13
ENDBRANCH   3  10
ENDBRANCH   1   3
BRANCH   1  16
ATOM     16  C   UNL     1       2.607  -0.948  -2.167  0.00  0.00    +0.080 C 
ATOM     17  C   UNL     1       1.730  -0.413  -3.301  0.00  0.00    +0.026 C 
BRANCH  16  18
ATOM     18  C   UNL     1       1.895  -0.739  -0.829  0.00  0.00    -0.012 C 
ATOM     19  C   UNL     1       0.560  -1.488  -0.839  0.00  0.00    +0.012 C 
ATOM     20  C   UNL     1      -0.152  -1.279   0.499  0.00  0.00    -0.010 C 
ATOM     21  C   UNL     1      -0.407   0.215   0.712  0.00  0.00    +0.007 C 
ATOM     22  C   UNL     1       0.927   0.964   0.722  0.00  0.00    -0.010 C 
ATOM     23  C   UNL     1       1.639   0.754  -0.616  0.00  0.00    +0.012 C 
ATOM     24  C   UNL     1       1.804   0.429   1.856  0.00  0.00    +0.007 C 
ATOM     25  C   UNL     1       2.059  -1.065   1.642  0.00  0.00    -0.010 C 
ATOM     26  C   UNL     1       0.725  -1.814   1.633  0.00  0.00    +0.007 C 
ATOM     27  C   UNL     1       2.772  -1.274   0.305  0.00  0.00    +0.012 C 
ENDBRANCH  16  18
ENDBRANCH   1  16
TORSDOF 5
