REMARK  Name = ZINC67470432
REMARK  10 active torsions:
REMARK  status: ('A' for Active; 'I' for Inactive)
REMARK    1  A    between atoms: C_1  and  C_2
REMARK    2  A    between atoms: C_2  and  C_4
REMARK    3  A    between atoms: C_2  and  N_15
REMARK    4  A    between atoms: C_8  and  S_10
REMARK    5  A    between atoms: S_10  and  N_13
REMARK    6  A    between atoms: N_13  and  C_14
REMARK    7  A    between atoms: N_18  and  C_19
REMARK    8  A    between atoms: C_19  and  C_20
REMARK    9  A    between atoms: C_20  and  C_22
REMARK   10  A    between atoms: C_20  and  O_29
REMARK                            x       y       z     vdW  Elec       q    Type
REMARK                         _______ _______ _______ _____ _____    ______ ____
ROOT
ATOM      1  N   UNL     1      -1.372  -0.511   0.012  0.00  0.00    -0.293 N 
ATOM      2  C   UNL     1      -2.029  -0.655   1.181  0.00  0.00    +0.300 C 
ATOM      3  O   UNL     1      -1.480  -0.364   2.226  0.00  0.00    -0.253 OA
ATOM      4  N   UNL     1      -3.293  -1.122   1.190  0.00  0.00    -0.297 N 
ATOM      5  H   UNL     1      -1.810  -0.743  -0.822  0.00  0.00    +0.151 HD
ATOM      6  H   UNL     1      -3.731  -1.354   0.356  0.00  0.00    +0.150 HD
ENDROOT
BRANCH   1   8
ATOM      7  C   UNL     1      -0.019   1.526   0.010  0.00  0.00    +0.033 C 
ATOM      8  C   UNL     1       0.002  -0.004   0.002  0.00  0.00    +0.102 C 
BRANCH   8   9
ATOM      9  C   UNL     1       0.707  -0.490  -1.238  0.00  0.00    -0.026 A 
ATOM     10  C   UNL     1       0.037  -0.522  -2.447  0.00  0.00    +0.005 A 
ATOM     11  C   UNL     1       0.684  -0.967  -3.584  0.00  0.00    +0.002 A 
ATOM     12  C   UNL     1       2.002  -1.381  -3.513  0.00  0.00    +0.028 A 
ATOM     13  C   UNL     1       2.672  -1.349  -2.304  0.00  0.00    +0.106 A 
ATOM     14  C   UNL     1       2.026  -0.899  -1.167  0.00  0.00    +0.034 A 
BRANCH  13  15
ATOM     15  S   UNL     1       4.350  -1.877  -2.213  0.00  0.00    +0.058 S 
ATOM     16  O   UNL     1       4.582  -2.263  -0.865  0.00  0.00    -0.153 OA
ATOM     17  O   UNL     1       4.558  -2.762  -3.306  0.00  0.00    -0.153 OA
BRANCH  15  18
ATOM     18  N   UNL     1       5.298  -0.548  -2.494  0.00  0.00    -0.193 NA
ATOM     19  C   UNL     1       5.288   0.571  -1.549  0.00  0.00    +0.127 C 
ATOM     20  H   UNL     1       5.859  -0.510  -3.284  0.00  0.00    +0.148 HD
ENDBRANCH  15  18
ENDBRANCH  13  15
ENDBRANCH   8   9
ENDBRANCH   1   8
BRANCH   4  21
ATOM     21  C   UNL     1      -4.006  -1.278   2.460  0.00  0.00    +0.141 C 
BRANCH  21  22
ATOM     22  C   UNL     1      -5.412  -1.820   2.192  0.00  0.00    +0.162 C 
BRANCH  22  23
ATOM     23  C   UNL     1      -6.188  -1.866   3.483  0.00  0.00    -0.015 A 
ATOM     24  C   UNL     1      -5.988  -2.905   4.373  0.00  0.00    +0.006 A 
ATOM     25  C   UNL     1      -6.699  -2.948   5.558  0.00  0.00    +0.003 A 
ATOM     26  C   UNL     1      -7.610  -1.952   5.854  0.00  0.00    +0.038 A 
ATOM     27  C   UNL     1      -7.811  -0.911   4.964  0.00  0.00    +0.124 A 
ATOM     28  C   UNL     1      -7.094  -0.866   3.780  0.00  0.00    +0.044 A 
ATOM     29  F   UNL     1      -8.702   0.063   5.253  0.00  0.00    -0.205 F 
ENDBRANCH  22  23
BRANCH  22  30
ATOM     30  O   UNL     1      -5.318  -3.138   1.646  0.00  0.00    -0.386 OA
ATOM     31  H   UNL     1      -4.873  -3.772   2.224  0.00  0.00    +0.210 HD
ENDBRANCH  22  30
ENDBRANCH  21  22
ENDBRANCH   4  21
TORSDOF 8
