REMARK  Name = ZINC05309222
REMARK  7 active torsions:
REMARK  status: ('A' for Active; 'I' for Inactive)
REMARK    1  A    between atoms: C_1  and  C_2
REMARK    2  A    between atoms: C_2  and  N_3
REMARK    3  A    between atoms: C_4  and  C_22
REMARK    4  A    between atoms: C_7  and  S_8
REMARK    5  A    between atoms: S_8  and  C_9
REMARK    6  A    between atoms: C_9  and  C_10
REMARK    7  A    between atoms: C_19  and  O_21
REMARK                            x       y       z     vdW  Elec       q    Type
REMARK                         _______ _______ _______ _____ _____    ______ ____
ROOT
ATOM      1  S   UNL     1       2.498  -0.979  -1.580  0.00  0.00    -0.081 S 
ENDROOT
BRANCH   1   6
ATOM      2  N   UNL     1       2.703  -3.645  -2.401  0.00  0.00    -0.302 N 
ATOM      3  C   UNL     1       2.789  -4.870  -1.781  0.00  0.00    +0.165 A 
ATOM      4  N   UNL     1       2.761  -4.649  -0.487  0.00  0.00    -0.128 NA
ATOM      5  N   UNL     1       2.670  -3.388  -0.259  0.00  0.00    -0.122 NA
ATOM      6  C   UNL     1       2.626  -2.726  -1.394  0.00  0.00    +0.192 A 
BRANCH   3   7
ATOM      7  C   UNL     1       2.893  -6.186  -2.446  0.00  0.00    +0.019 A 
ATOM      8  C   UNL     1       3.308  -6.268  -3.776  0.00  0.00    +0.013 A 
ATOM      9  C   UNL     1       3.409  -7.500  -4.389  0.00  0.00    +0.021 A 
ATOM     10  C   UNL     1       3.087  -8.652  -3.691  0.00  0.00    +0.041 A 
ATOM     11  C   UNL     1       2.670  -8.576  -2.373  0.00  0.00    +0.021 A 
ATOM     12  C   UNL     1       2.571  -7.351  -1.748  0.00  0.00    +0.013 A 
ATOM     13 CL   UNL     1       3.209 -10.198  -4.472  0.00  0.00    -0.084 Cl
ENDBRANCH   3   7
BRANCH   2  15
ATOM     14  C   UNL     1       4.124  -3.104  -4.317  0.00  0.00    +0.027 C 
ATOM     15  C   UNL     1       2.696  -3.381  -3.842  0.00  0.00    +0.122 C 
ENDBRANCH   2  15
ENDBRANCH   1   6
BRANCH   1  16
ATOM     16  C   UNL     1       2.445  -0.480   0.159  0.00  0.00    +0.113 C 
BRANCH  16  17
ATOM     17  C   UNL     1       2.333   1.020   0.248  0.00  0.00    -0.020 A 
ATOM     18  C   UNL     1       3.443   1.801   0.299  0.00  0.00    +0.097 A 
ATOM     19  C   UNL     1       3.312   3.203   0.384  0.00  0.00    +0.338 A 
ATOM     20  O   UNL     1       4.316   3.891   0.430  0.00  0.00    -0.245 OA
ATOM     21  O   UNL     1       2.110   3.798   0.414  0.00  0.00    -0.422 OA
ATOM     22  C   UNL     1       0.967   3.080   0.366  0.00  0.00    +0.143 A 
ATOM     23  C   UNL     1       1.024   1.676   0.282  0.00  0.00    +0.022 A 
ATOM     24  C   UNL     1      -0.158   0.929   0.231  0.00  0.00    +0.015 A 
ATOM     25  C   UNL     1      -1.365   1.566   0.257  0.00  0.00    +0.046 A 
ATOM     26  C   UNL     1      -1.428   2.955   0.347  0.00  0.00    +0.120 A 
ATOM     27  C   UNL     1      -0.268   3.710   0.398  0.00  0.00    +0.092 A 
BRANCH  26  28
ATOM     28  O   UNL     1      -2.636   3.573   0.378  0.00  0.00    -0.507 OA
ATOM     29  H   UNL     1      -2.981   3.805  -0.495  0.00  0.00    +0.292 HD
ENDBRANCH  26  28
ENDBRANCH  16  17
ENDBRANCH   1  16
TORSDOF 6
