REMARK  Name = ZINC61089058
REMARK  4 active torsions:
REMARK  status: ('A' for Active; 'I' for Inactive)
REMARK    1  A    between atoms: C_1  and  N_2
REMARK    2  A    between atoms: C_3  and  N_7
REMARK    3  A    between atoms: C_8  and  C_10
REMARK    4  A    between atoms: C_12  and  N_18
REMARK                            x       y       z     vdW  Elec       q    Type
REMARK                         _______ _______ _______ _____ _____    ______ ____
ROOT
ATOM      1  C   UNL     1      -0.010  -0.816  -4.831  0.00  0.00    +0.053 A 
ATOM      2  C   UNL     1      -0.025   0.550  -5.125  0.00  0.00    +0.039 A 
ATOM      3  C   UNL     1      -0.037   0.970  -6.444  0.00  0.00    +0.061 A 
ATOM      4  C   UNL     1      -0.035   0.031  -7.474  0.00  0.00    +0.145 A 
ATOM      5  C   UNL     1      -0.021  -1.322  -7.183  0.00  0.00    +0.056 A 
ATOM      6  C   UNL     1      -0.002  -1.750  -5.870  0.00  0.00    +0.033 A 
ATOM      7 BR   UNL     1       0.027  -3.600  -5.479  0.00  0.00    -0.049 Br
ATOM      8  F   UNL     1      -0.048   0.444  -8.760  0.00  0.00    -0.204 F 
ENDROOT
BRANCH   1  10
ATOM      9  N   UNL     1      -0.005  -0.368  -2.426  0.00  0.00    -0.267 N 
ATOM     10  C   UNL     1       0.003  -1.271  -3.427  0.00  0.00    +0.250 C 
ATOM     11  O   UNL     1       0.021  -2.460  -3.173  0.00  0.00    -0.270 OA
ATOM     12  H   UNL     1      -0.019   0.580  -2.628  0.00  0.00    +0.157 HD
BRANCH   9  15
ATOM     13  C   UNL     1      -0.018   1.461   0.010  0.00  0.00    +0.174 C 
ATOM     14  N   UNL     1       0.002  -0.004   0.002  0.00  0.00    -0.253 N 
ATOM     15  C   UNL     1       0.008  -0.798  -1.100  0.00  0.00    +0.123 A 
ATOM     16  C   UNL     1       0.028  -2.091  -0.672  0.00  0.00    +0.065 A 
ATOM     17  C   UNL     1       0.035  -2.079   0.725  0.00  0.00    +0.136 A 
ATOM     18  N   UNL     1       0.025  -0.835   1.129  0.00  0.00    -0.178 NA
ENDBRANCH   9  15
ENDBRANCH   1  10
BRANCH   3  19
ATOM     19  N   UNL     1      -0.052   2.336  -6.742  0.00  0.00    -0.356 N 
ATOM     20  H   UNL     1      -0.054   2.990  -6.025  0.00  0.00    +0.142 HD
ATOM     21  H   UNL     1      -0.061   2.631  -7.667  0.00  0.00    +0.142 HD
ENDBRANCH   3  19
TORSDOF 3
