REMARK  Name = ZINC06452073
REMARK  3 active torsions:
REMARK  status: ('A' for Active; 'I' for Inactive)
REMARK    1  A    between atoms: C_1  and  N_2
REMARK    2  A    between atoms: C_8  and  C_15
REMARK    3  A    between atoms: N_13  and  C_14
REMARK                            x       y       z     vdW  Elec       q    Type
REMARK                         _______ _______ _______ _____ _____    ______ ____
ROOT
ATOM      1  C   UNL     1      -0.392   1.347   2.587  0.00  0.00    +0.132 C 
ATOM      2  N   UNL     1      -0.743   1.581   1.184  0.00  0.00    -0.295 N 
ATOM      3  C   UNL     1      -0.013   1.086   0.008  0.00  0.00    +0.159 C 
ATOM      4  C   UNL     1      -0.787   1.608  -1.181  0.00  0.00    +0.042 C 
ATOM      5  C   UNL     1      -1.825   2.309  -0.681  0.00  0.00    +0.058 C 
ATOM      6  C   UNL     1      -1.795   2.289   0.728  0.00  0.00    +0.246 C 
ATOM      7  O   UNL     1      -2.613   2.842   1.441  0.00  0.00    -0.270 OA
ATOM      8  C   UNL     1      -2.779   2.954  -1.665  0.00  0.00    +0.142 C 
ATOM      9  N   UNL     1      -2.492   2.760  -3.097  0.00  0.00    -0.288 N 
ATOM     10  C   UNL     1      -1.413   2.031  -3.443  0.00  0.00    +0.307 C 
ATOM     11  O   UNL     1      -1.167   1.866  -4.622  0.00  0.00    -0.252 OA
ATOM     12  N   UNL     1      -0.601   1.483  -2.529  0.00  0.00    -0.260 N 
ATOM     13  C   UNL     1       0.548   0.706  -3.000  0.00  0.00    +0.139 C 
ATOM     14  H   UNL     1      -3.066   3.149  -3.775  0.00  0.00    +0.151 HD
ENDROOT
BRANCH   8  15
ATOM     15  C   UNL     1      -2.797   4.436  -1.391  0.00  0.00    -0.022 A 
ATOM     16  C   UNL     1      -1.864   5.261  -1.991  0.00  0.00    +0.008 A 
ATOM     17  C   UNL     1      -1.884   6.620  -1.745  0.00  0.00    +0.038 A 
ATOM     18  C   UNL     1      -2.831   7.155  -0.888  0.00  0.00    +0.123 A 
ATOM     19  C   UNL     1      -3.762   6.327  -0.284  0.00  0.00    +0.038 A 
ATOM     20  C   UNL     1      -3.744   4.968  -0.536  0.00  0.00    +0.008 A 
ATOM     21  F   UNL     1      -2.847   8.483  -0.642  0.00  0.00    -0.205 F 
ENDBRANCH   8  15
TORSDOF 1
