REMARK  Name = ZINC11327706
REMARK  3 active torsions:
REMARK  status: ('A' for Active; 'I' for Inactive)
REMARK    1  A    between atoms: C_3  and  C_14
REMARK    2  A    between atoms: C_5  and  N_7
REMARK    3  A    between atoms: N_16  and  C_17
REMARK                            x       y       z     vdW  Elec       q    Type
REMARK                         _______ _______ _______ _____ _____    ______ ____
ROOT
ATOM      1  C   UNL     1       2.124   5.807  -0.271  0.00  0.00    +0.003 A 
ATOM      2  C   UNL     1       3.408   5.937   0.220  0.00  0.00    +0.013 A 
ATOM      3  C   UNL     1       4.112   4.808   0.640  0.00  0.00    +0.039 A 
ATOM      4  C   UNL     1       3.515   3.550   0.563  0.00  0.00    +0.037 A 
ATOM      5  C   UNL     1       2.225   3.429   0.069  0.00  0.00    +0.052 A 
ATOM      6  C   UNL     1       1.534   4.560  -0.352  0.00  0.00    +0.025 A 
ENDROOT
BRANCH   5   7
ATOM      7  N   UNL     1       1.622   2.172  -0.011  0.00  0.00    -0.207 N 
ATOM      8  C   UNL     1       2.300   0.867  -0.118  0.00  0.00    +0.133 C 
ATOM      9  C   UNL     1       1.449  -0.247   0.520  0.00  0.00    +0.045 C 
ATOM     10  C   UNL     1       0.003  -0.003  -0.008  0.00  0.00    +0.190 C 
ATOM     11  S   UNL     1      -0.020   1.837  -0.006  0.00  0.00    +0.046 S 
ATOM     12  O   UNL     1      -0.513   2.335  -1.241  0.00  0.00    -0.155 OA
ATOM     13  O   UNL     1      -0.504   2.333   1.235  0.00  0.00    -0.155 OA
ENDBRANCH   5   7
BRANCH   3  14
ATOM     14  C   UNL     1       5.487   4.945   1.166  0.00  0.00    +0.248 C 
ATOM     15  O   UNL     1       6.099   3.960   1.531  0.00  0.00    -0.270 OA
ATOM     16  N   UNL     1       6.063   6.162   1.239  0.00  0.00    -0.281 N 
ATOM     17  H   UNL     1       5.601   6.938   0.886  0.00  0.00    +0.155 HD
BRANCH  16  18
ATOM     18  C   UNL     1       7.324   6.304   1.825  0.00  0.00    +0.036 A 
ATOM     19  C   UNL     1       7.629   7.448   2.551  0.00  0.00    +0.043 A 
ATOM     20  C   UNL     1       8.876   7.585   3.133  0.00  0.00    +0.044 A 
ATOM     21  C   UNL     1       9.823   6.587   2.984  0.00  0.00    +0.040 A 
ATOM     22  C   UNL     1       9.524   5.448   2.256  0.00  0.00    +0.044 A 
ATOM     23  C   UNL     1       8.277   5.305   1.677  0.00  0.00    +0.043 A 
ATOM     24 CL   UNL     1      10.715   4.199   2.072  0.00  0.00    -0.083 Cl
ATOM     25 CL   UNL     1       9.255   9.011   4.046  0.00  0.00    -0.083 Cl
ENDBRANCH  16  18
ENDBRANCH   3  14
TORSDOF 3
