REMARK  Name = ZINC61845196
REMARK  3 active torsions:
REMARK  status: ('A' for Active; 'I' for Inactive)
REMARK    1  A    between atoms: C_3  and  C_23
REMARK    2  A    between atoms: C_6  and  N_7
REMARK    3  A    between atoms: C_17  and  C_19
REMARK                            x       y       z     vdW  Elec       q    Type
REMARK                         _______ _______ _______ _____ _____    ______ ____
ROOT
ATOM      1  N   UNL     1      -1.270  -0.587  -0.075  0.00  0.00    -0.380 NA
ATOM      2  C   UNL     1      -1.228  -1.423   1.119  0.00  0.00    +0.059 C 
ATOM      3  C   UNL     1      -1.864  -0.877   2.381  0.00  0.00    +0.021 C 
ATOM      4  C   UNL     1      -1.656  -1.924   3.488  0.00  0.00    +0.002 C 
ATOM      5  C   UNL     1      -2.245  -3.275   3.094  0.00  0.00    +0.000 C 
ATOM      6  C   UNL     1      -1.687  -3.763   1.748  0.00  0.00    +0.005 C 
ATOM      7  C   UNL     1      -2.027  -2.693   0.718  0.00  0.00    +0.010 C 
ATOM      8  C   UNL     1      -1.455  -2.946  -0.685  0.00  0.00    +0.037 C 
ATOM      9  C   UNL     1      -1.332  -1.502  -1.245  0.00  0.00    +0.171 C 
ATOM     10  H   UNL     1      -2.088   0.003  -0.057  0.00  0.00    +0.127 HD
ENDROOT
BRANCH   1  16
ATOM     11  C   UNL     1      -0.196   1.499  -0.614  0.00  0.00    +0.023 A 
ATOM     12  C   UNL     1       0.938   2.281  -0.687  0.00  0.00    +0.022 A 
ATOM     13  C   UNL     1       2.170   1.758  -0.289  0.00  0.00    +0.070 A 
ATOM     14  C   UNL     1       2.245   0.444   0.181  0.00  0.00    +0.060 A 
ATOM     15  C   UNL     1       1.101  -0.327   0.249  0.00  0.00    +0.043 A 
ATOM     16  C   UNL     1      -0.116   0.199  -0.147  0.00  0.00    +0.016 A 
ATOM     17 CL   UNL     1       3.771  -0.218   0.679  0.00  0.00    -0.082 Cl
BRANCH  13  18
ATOM     18  C   UNL     1       3.352   2.563  -0.363  0.00  0.00    +0.101 C 
ATOM     19  N   UNL     1       4.289   3.202  -0.422  0.00  0.00    -0.191 NA
ENDBRANCH  13  18
ENDBRANCH   1  16
BRANCH   9  20
ATOM     20  C   UNL     1      -0.074  -1.375  -2.065  0.00  0.00    +0.375 C 
ATOM     21  O   UNL     1       0.977  -1.824  -1.642  0.00  0.00    -0.244 OA
ATOM     22  O   UNL     1      -0.108  -0.822  -3.151  0.00  0.00    -0.244 OA
ENDBRANCH   9  20
TORSDOF 3
