REMARK  Name = ZINC67620120
REMARK  11 active torsions:
REMARK  status: ('A' for Active; 'I' for Inactive)
REMARK    1  A    between atoms: C_1  and  C_2
REMARK    2  A    between atoms: N_5  and  C_8
REMARK    3  A    between atoms: C_8  and  C_9
REMARK    4  A    between atoms: C_9  and  C_11
REMARK    5  A    between atoms: C_9  and  O_29
REMARK    6  A    between atoms: C_11  and  N_12
REMARK    7  A    between atoms: N_15  and  C_16
REMARK    8  A    between atoms: C_16  and  C_18
REMARK    9  A    between atoms: C_16  and  C_19
REMARK   10  A    between atoms: C_22  and  O_25
REMARK   11  A    between atoms: O_25  and  C_26
REMARK                            x       y       z     vdW  Elec       q    Type
REMARK                         _______ _______ _______ _____ _____    ______ ____
ROOT
ATOM      1  N   UNL     1       0.630  -6.349   4.007  0.00  0.00    -0.297 N 
ATOM      2  C   UNL     1       0.786  -7.662   4.270  0.00  0.00    +0.300 C 
ATOM      3  O   UNL     1       0.440  -8.491   3.452  0.00  0.00    -0.253 OA
ATOM      4  N   UNL     1       1.328  -8.054   5.441  0.00  0.00    -0.293 N 
ATOM      5  H   UNL     1       0.906  -5.687   4.660  0.00  0.00    +0.150 HD
ATOM      6  H   UNL     1       1.605  -7.392   6.093  0.00  0.00    +0.151 HD
ENDROOT
BRANCH   4   7
ATOM      7  C   UNL     1       1.499  -9.481   5.727  0.00  0.00    +0.102 C 
ATOM      8  C   UNL     1       0.200 -10.043   6.308  0.00  0.00    +0.033 C 
BRANCH   7   9
ATOM      9  C   UNL     1       2.615  -9.663   6.723  0.00  0.00    -0.027 A 
ATOM     10  C   UNL     1       2.743  -8.786   7.784  0.00  0.00    +0.009 A 
ATOM     11  C   UNL     1       3.766  -8.951   8.698  0.00  0.00    +0.046 A 
ATOM     12  C   UNL     1       4.664  -9.998   8.551  0.00  0.00    +0.127 A 
ATOM     13  C   UNL     1       4.533 -10.877   7.485  0.00  0.00    +0.046 A 
ATOM     14  C   UNL     1       3.505 -10.711   6.577  0.00  0.00    +0.009 A 
BRANCH  12  15
ATOM     15  O   UNL     1       5.671 -10.162   9.448  0.00  0.00    -0.434 OA
BRANCH  15  16
ATOM     16  C   UNL     1       6.558 -11.262   9.234  0.00  0.00    +0.541 C 
ATOM     17  F   UNL     1       5.833 -12.458   9.260  0.00  0.00    -0.166 F 
ATOM     18  F   UNL     1       7.183 -11.122   7.990  0.00  0.00    -0.166 F 
ENDBRANCH  15  16
ENDBRANCH  12  15
ENDBRANCH   7   9
ENDBRANCH   4   7
BRANCH   1  19
ATOM     19  C   UNL     1       0.041  -5.922   2.735  0.00  0.00    +0.135 C 
BRANCH  19  20
ATOM     20  C   UNL     1      -0.023  -4.394   2.690  0.00  0.00    +0.115 C 
BRANCH  20  21
ATOM     21  O   UNL     1       1.303  -3.862   2.691  0.00  0.00    -0.392 OA
ATOM     22  H   UNL     1       1.841  -4.147   1.940  0.00  0.00    +0.210 HD
ENDBRANCH  20  21
BRANCH  20  23
ATOM     23  C   UNL     1      -0.750  -3.952   1.419  0.00  0.00    -0.046 C 
BRANCH  23  28
ATOM     24  C   UNL     1      -2.158   1.567   1.124  0.00  0.00    +0.007 C 
ATOM     25  C   UNL     1      -2.222   0.038   1.151  0.00  0.00    -0.018 C 
ATOM     26  C   UNL     1      -1.674  -0.474   2.486  0.00  0.00    -0.016 C 
ATOM     27  C   UNL     1      -1.667  -2.005   2.474  0.00  0.00    -0.078 C 
ATOM     28  N   UNL     1      -0.817  -2.485   1.378  0.00  0.00    +0.381 N 
ATOM     29  C   UNL     1      -1.376  -2.057   0.090  0.00  0.00    -0.078 C 
ATOM     30  C   UNL     1      -1.372  -0.529   0.010  0.00  0.00    -0.016 C 
ATOM     31  H   UNL     1       0.112  -2.105   1.483  0.00  0.00    -0.082 HD
ENDBRANCH  23  28
ENDBRANCH  20  23
ENDBRANCH  19  20
ENDBRANCH   1  19
TORSDOF 9
