REMARK  Name = ZINC20274426
REMARK  6 active torsions:
REMARK  status: ('A' for Active; 'I' for Inactive)
REMARK    1  A    between atoms: C_1  and  C_2
REMARK    2  A    between atoms: C_4  and  O_10
REMARK    3  A    between atoms: C_6  and  C_9
REMARK    4  A    between atoms: O_10  and  C_11
REMARK    5  A    between atoms: C_14  and  C_16
REMARK    6  A    between atoms: C_16  and  O_17
REMARK                            x       y       z     vdW  Elec       q    Type
REMARK                         _______ _______ _______ _____ _____    ______ ____
ROOT
ATOM      1  C   UNL     1      -2.472  -4.206  -0.204  0.00  0.00    +0.045 C 
ATOM      2  C   UNL     1      -2.433  -2.700  -0.198  0.00  0.00    -0.028 A 
ATOM      3  C   UNL     1      -1.223  -2.041  -0.100  0.00  0.00    +0.051 A 
ATOM      4  C   UNL     1      -1.188  -0.654  -0.095  0.00  0.00    +0.132 A 
ATOM      5  C   UNL     1      -2.369   0.069  -0.183  0.00  0.00    +0.051 A 
ATOM      6  C   UNL     1      -3.577  -0.594  -0.285  0.00  0.00    -0.028 A 
ATOM      7  C   UNL     1      -3.610  -1.977  -0.290  0.00  0.00    +0.047 A 
ATOM      8 CL   UNL     1      -5.129  -2.807  -0.413  0.00  0.00    -0.083 Cl
ATOM      9  C   UNL     1      -4.859   0.191  -0.384  0.00  0.00    +0.045 C 
ENDROOT
BRANCH   4  10
ATOM     10  O   UNL     1       0.002  -0.004   0.002  0.00  0.00    -0.425 OA
BRANCH  10  11
ATOM     11  C   UNL     1       1.113  -0.743   0.253  0.00  0.00    +0.292 A 
ATOM     12  C   UNL     1       2.385  -0.285   0.247  0.00  0.00    +0.091 A 
ATOM     13  C   UNL     1       3.216  -1.387   0.559  0.00  0.00    +0.051 A 
ATOM     14  C   UNL     1       2.410  -2.448   0.735  0.00  0.00    +0.134 A 
ATOM     15  O   UNL     1       1.136  -2.052   0.554  0.00  0.00    -0.427 OA
BRANCH  14  16
ATOM     16  C   UNL     1       2.856  -3.844   1.084  0.00  0.00    +0.230 C 
BRANCH  16  17
ATOM     17  O   UNL     1       2.896  -3.990   2.505  0.00  0.00    -0.387 OA
ATOM     18  H   UNL     1       3.201  -4.948   2.951  0.00  0.00    +0.210 HD
ENDBRANCH  16  17
ENDBRANCH  14  16
ENDBRANCH  10  11
ENDBRANCH   4  10
TORSDOF 4
