REMARK  Name = ZINC53192830
REMARK  6 active torsions:
REMARK  status: ('A' for Active; 'I' for Inactive)
REMARK    1  A    between atoms: C_1  and  C_2
REMARK    2  A    between atoms: C_2  and  C_3
REMARK    3  A    between atoms: C_2  and  N_11
REMARK    4  A    between atoms: C_3  and  C_4
REMARK    5  A    between atoms: C_12  and  C_14
REMARK    6  A    between atoms: C_14  and  N_15
REMARK                            x       y       z     vdW  Elec       q    Type
REMARK                         _______ _______ _______ _____ _____    ______ ____
ROOT
ATOM      1  N   UNL     1      -0.150  -1.201   4.706  0.00  0.00    -0.215 N 
ATOM      2  C   UNL     1      -0.378  -0.183   5.565  0.00  0.00    +0.251 C 
ATOM      3  O   UNL     1       0.127   0.919   5.550  0.00  0.00    -0.272 OA
ATOM      4  C   UNL     1      -1.393  -0.711   6.544  0.00  0.00    +0.138 C 
ATOM      5  C   UNL     1      -2.672   0.137   6.529  0.00  0.00    +0.045 C 
ATOM      6  C   UNL     1      -2.432   1.108   7.707  0.00  0.00    +0.038 C 
ATOM      7  C   UNL     1      -1.477   0.384   8.632  0.00  0.00    -0.042 A 
ATOM      8  C   UNL     1      -0.877  -0.667   7.957  0.00  0.00    -0.012 A 
ATOM      9  C   UNL     1       0.040  -1.470   8.614  0.00  0.00    +0.006 A 
ATOM     10  C   UNL     1       0.357  -1.228   9.936  0.00  0.00    +0.000 A 
ATOM     11  C   UNL     1      -0.241  -0.179  10.609  0.00  0.00    +0.000 A 
ATOM     12  C   UNL     1      -1.156   0.624   9.956  0.00  0.00    +0.004 A 
ATOM     13  N   UNL     1      -1.655  -2.081   6.103  0.00  0.00    -0.281 N 
ATOM     14  C   UNL     1      -0.884  -2.278   5.014  0.00  0.00    +0.310 C 
ATOM     15  O   UNL     1      -0.857  -3.317   4.384  0.00  0.00    -0.252 OA
ATOM     16  H   UNL     1      -2.263  -2.718   6.509  0.00  0.00    +0.152 HD
ENDROOT
BRANCH   1  17
ATOM     17  C   UNL     1       0.780  -1.133   3.576  0.00  0.00    +0.213 C 
BRANCH  17  19
ATOM     18  N   UNL     1       0.711  -0.489   1.189  0.00  0.00    -0.311 N 
ATOM     19  C   UNL     1       0.051  -0.633   2.355  0.00  0.00    +0.231 C 
ATOM     20  O   UNL     1      -1.129  -0.361   2.423  0.00  0.00    -0.274 OA
ATOM     21  H   UNL     1       1.654  -0.707   1.135  0.00  0.00    +0.149 HD
BRANCH  18  23
ATOM     22  C   UNL     1      -0.019   1.526   0.010  0.00  0.00    +0.028 C 
ATOM     23  C   UNL     1       0.002  -0.004   0.002  0.00  0.00    +0.074 C 
BRANCH  23  24
ATOM     24  C   UNL     1       0.718  -0.497  -1.257  0.00  0.00    +0.060 C 
BRANCH  24  25
ATOM     25  C   UNL     1       0.632  -2.000  -1.327  0.00  0.00    -0.010 A 
ATOM     26  C   UNL     1       1.662  -2.776  -0.830  0.00  0.00    +0.006 A 
ATOM     27  C   UNL     1       1.583  -4.155  -0.895  0.00  0.00    +0.000 A 
ATOM     28  C   UNL     1       0.473  -4.759  -1.457  0.00  0.00    +0.003 A 
ATOM     29  C   UNL     1      -0.558  -3.985  -1.954  0.00  0.00    +0.038 A 
ATOM     30  C   UNL     1      -0.482  -2.604  -1.885  0.00  0.00    +0.127 A 
ATOM     31  F   UNL     1      -1.492  -1.847  -2.367  0.00  0.00    -0.205 F 
ENDBRANCH  24  25
ENDBRANCH  23  24
ENDBRANCH  18  23
ENDBRANCH  17  19
ENDBRANCH   1  17
TORSDOF 5
