REMARK  Name = ZINC25756936
REMARK  5 active torsions:
REMARK  status: ('A' for Active; 'I' for Inactive)
REMARK    1  A    between atoms: C_1  and  C_2
REMARK    2  A    between atoms: C_3  and  C_17
REMARK    3  A    between atoms: C_4  and  C_11
REMARK    4  A    between atoms: C_5  and  C_9
REMARK    5  A    between atoms: C_6  and  C_8
REMARK                            x       y       z     vdW  Elec       q    Type
REMARK                         _______ _______ _______ _____ _____    ______ ____
ROOT
ATOM      1  C   UNL     1       3.192   3.110  -0.761  0.00  0.00    +0.061 C 
ATOM      2  C   UNL     1       1.766   2.623  -0.789  0.00  0.00    +0.019 C 
ATOM      3  C   UNL     1       1.399   1.599  -0.003  0.00  0.00    +0.061 C 
ATOM      4  C   UNL     1      -0.013   1.086   0.008  0.00  0.00    +0.139 C 
ATOM      5  C   UNL     1      -0.768   1.577  -1.194  0.00  0.00    +0.061 C 
ATOM      6  C   UNL     1      -0.318   2.602  -1.935  0.00  0.00    +0.019 C 
ATOM      7  N   UNL     1       0.859   3.231  -1.619  0.00  0.00    -0.320 N 
ATOM      8  C   UNL     1      -1.114   3.065  -3.127  0.00  0.00    +0.061 C 
ATOM      9  H   UNL     1       1.075   4.227  -2.034  0.00  0.00    +0.152 HD
ENDROOT
BRANCH   4  10
ATOM     10  C   UNL     1      -0.705   1.565   1.258  0.00  0.00    +0.120 A 
ATOM     11  C   UNL     1      -1.226   0.781   2.218  0.00  0.00    +0.047 A 
ATOM     12  C   UNL     1      -1.774   1.642   3.197  0.00  0.00    +0.057 A 
ATOM     13  C   UNL     1      -1.555   2.901   2.776  0.00  0.00    +0.170 A 
ATOM     14  O   UNL     1      -0.902   2.849   1.603  0.00  0.00    -0.452 OA
ATOM     15 BR   UNL     1      -2.072   4.477   3.684  0.00  0.00    -0.008 Br
ENDBRANCH   4  10
BRANCH   5  16
ATOM     16  C   UNL     1      -1.996   0.936  -1.559  0.00  0.00    +0.097 C 
ATOM     17  N   UNL     1      -2.970   0.428  -1.848  0.00  0.00    -0.191 NA
ENDBRANCH   5  16
BRANCH   3  18
ATOM     18  C   UNL     1       2.375   0.983   0.845  0.00  0.00    +0.097 C 
ATOM     19  N   UNL     1       3.149   0.493   1.517  0.00  0.00    -0.191 NA
ENDBRANCH   3  18
TORSDOF 3
