REMARK  Name = ZINC40922805
REMARK  6 active torsions:
REMARK  status: ('A' for Active; 'I' for Inactive)
REMARK    1  A    between atoms: C_1  and  C_2
REMARK    2  A    between atoms: C_2  and  C_32
REMARK    3  A    between atoms: C_6  and  C_14
REMARK    4  A    between atoms: C_18  and  O_20
REMARK    5  A    between atoms: O_20  and  C_21
REMARK    6  A    between atoms: C_21  and  C_22
REMARK                            x       y       z     vdW  Elec       q    Type
REMARK                         _______ _______ _______ _____ _____    ______ ____
ROOT
ATOM      1  C   UNL     1      -0.019   1.526   0.010  0.00  0.00    +0.011 C 
ATOM      2  C   UNL     1       0.002  -0.004   0.002  0.00  0.00    -0.023 C 
ATOM      3  C   UNL     1       0.742  -0.503  -1.241  0.00  0.00    +0.058 C 
ATOM      4  C   UNL     1       2.170  -0.009  -1.215  0.00  0.00    +0.020 C 
ATOM      5  C   UNL     1       2.814   0.189  -0.045  0.00  0.00    +0.041 C 
ATOM      6  C   UNL     1       4.243   0.684   0.014  0.00  0.00    +0.177 C 
ATOM      7  N   UNL     1       4.857   0.586  -1.302  0.00  0.00    -0.201 N 
ATOM      8  C   UNL     1       4.154   0.373  -2.444  0.00  0.00    +0.240 A 
ATOM      9  N   UNL     1       5.009   0.349  -3.426  0.00  0.00    -0.092 NA
ATOM     10  N   UNL     1       6.205   0.528  -2.981  0.00  0.00    -0.021 NA
ATOM     11  N   UNL     1       6.191   0.678  -1.695  0.00  0.00    -0.042 NA
ATOM     12  N   UNL     1       2.778   0.220  -2.426  0.00  0.00    -0.286 N 
ATOM     13  C   UNL     1       2.171  -0.055   1.183  0.00  0.00    +0.164 C 
ATOM     14  O   UNL     1       2.785   0.112   2.218  0.00  0.00    -0.292 OA
ATOM     15  C   UNL     1       0.742  -0.517   1.242  0.00  0.00    +0.086 C 
ATOM     16  C   UNL     1      -1.431  -0.539  -0.001  0.00  0.00    +0.011 C 
ATOM     17  H   UNL     1       2.259   0.272  -3.244  0.00  0.00    +0.155 HD
ENDROOT
BRANCH   6  18
ATOM     18  C   UNL     1       4.256   2.123   0.464  0.00  0.00    -0.015 A 
ATOM     19  C   UNL     1       3.592   3.084  -0.277  0.00  0.00    +0.006 A 
ATOM     20  C   UNL     1       3.603   4.404   0.134  0.00  0.00    +0.004 A 
ATOM     21  C   UNL     1       4.276   4.766   1.284  0.00  0.00    +0.045 A 
ATOM     22  C   UNL     1       4.942   3.804   2.029  0.00  0.00    +0.121 A 
ATOM     23  C   UNL     1       4.925   2.478   1.618  0.00  0.00    +0.051 A 
BRANCH  22  24
ATOM     24  O   UNL     1       5.605   4.157   3.161  0.00  0.00    -0.487 OA
BRANCH  24  25
ATOM     25  C   UNL     1       5.575   5.538   3.526  0.00  0.00    +0.264 C 
BRANCH  25  26
ATOM     26  C   UNL     1       6.358   5.739   4.798  0.00  0.00    -0.010 A 
ATOM     27  C   UNL     1       5.725   5.634   6.023  0.00  0.00    +0.008 A 
ATOM     28  C   UNL     1       6.442   5.818   7.190  0.00  0.00    +0.020 A 
ATOM     29  C   UNL     1       7.794   6.107   7.132  0.00  0.00    +0.041 A 
ATOM     30  C   UNL     1       8.427   6.212   5.906  0.00  0.00    +0.020 A 
ATOM     31  C   UNL     1       7.709   6.022   4.740  0.00  0.00    +0.008 A 
ATOM     32 CL   UNL     1       8.695   6.339   8.598  0.00  0.00    -0.084 Cl
ENDBRANCH  25  26
ENDBRANCH  24  25
ENDBRANCH  22  24
ENDBRANCH   6  18
TORSDOF 4
