REMARK  Name = ZINC42118019
REMARK  4 active torsions:
REMARK  status: ('A' for Active; 'I' for Inactive)
REMARK    1  A    between atoms: C_1  and  C_2
REMARK    2  A    between atoms: N_8  and  C_13
REMARK    3  A    between atoms: C_13  and  C_14
REMARK    4  A    between atoms: C_16  and  C_19
REMARK                            x       y       z     vdW  Elec       q    Type
REMARK                         _______ _______ _______ _____ _____    ______ ____
ROOT
ATOM      1  C   UNL     1      -0.072   1.502   0.016  0.00  0.00    +0.046 C 
ATOM      2  C   UNL     1      -0.044  -0.005   0.007  0.00  0.00    -0.027 A 
ATOM      3  C   UNL     1      -0.163  -0.689  -1.189  0.00  0.00    +0.020 A 
ATOM      4  C   UNL     1      -0.140  -2.074  -1.216  0.00  0.00    +0.019 A 
ATOM      5  C   UNL     1       0.004  -2.787  -0.042  0.00  0.00    +0.029 A 
ATOM      6  C   UNL     1       0.124  -2.106   1.169  0.00  0.00    +0.050 A 
ATOM      7  C   UNL     1       0.107  -0.701   1.198  0.00  0.00    +0.051 A 
ATOM      8  N   UNL     1       0.249  -0.259   2.512  0.00  0.00    -0.255 N 
ATOM      9  C   UNL     1       0.367  -1.289   3.367  0.00  0.00    +0.292 C 
ATOM     10  O   UNL     1       0.503  -1.211   4.570  0.00  0.00    -0.266 OA
ATOM     11  C   UNL     1       0.287  -2.554   2.565  0.00  0.00    +0.250 C 
ATOM     12  O   UNL     1       0.353  -3.695   2.973  0.00  0.00    -0.282 OA
ATOM     13 BR   UNL     1      -0.305  -2.989  -2.862  0.00  0.00    -0.050 Br
ENDROOT
BRANCH   8  14
ATOM     14  C   UNL     1       0.268   1.151   2.911  0.00  0.00    +0.212 C 
BRANCH  14  15
ATOM     15  C   UNL     1      -1.123   1.581   3.302  0.00  0.00    +0.245 A 
ATOM     16  N   UNL     1      -1.633   1.518   4.501  0.00  0.00    -0.195 NA
ATOM     17  C   UNL     1      -2.888   1.982   4.491  0.00  0.00    +0.169 A 
ATOM     18  N   UNL     1      -3.192   2.347   3.278  0.00  0.00    -0.062 NA
ATOM     19  O   UNL     1      -2.045   2.097   2.481  0.00  0.00    -0.336 OA
ATOM     20  C   UNL     1      -3.800   2.067   5.687  0.00  0.00    +0.091 C 
ENDBRANCH  14  15
ENDBRANCH   8  14
TORSDOF 2
