REMARK  Name = ZINC34970712
REMARK  12 active torsions:
REMARK  status: ('A' for Active; 'I' for Inactive)
REMARK    1  A    between atoms: C_1  and  C_2
REMARK    2  A    between atoms: C_2  and  O_3
REMARK    3  A    between atoms: O_3  and  C_4
REMARK    4  A    between atoms: C_7  and  N_10
REMARK    5  A    between atoms: N_13  and  C_14
REMARK    6  A    between atoms: N_13  and  C_25
REMARK    7  A    between atoms: C_14  and  C_15
REMARK    8  A    between atoms: C_18  and  C_21
REMARK    9  A    between atoms: C_21  and  C_22
REMARK   10  A    between atoms: C_21  and  C_23
REMARK   11  A    between atoms: C_21  and  C_24
REMARK   12  A    between atoms: C_25  and  C_26
REMARK                            x       y       z     vdW  Elec       q    Type
REMARK                         _______ _______ _______ _____ _____    ______ ____
ROOT
ATOM      1  N   UNL     1      -1.989  -5.990  -0.011  0.00  0.00    -0.269 N 
ATOM      2  C   UNL     1      -3.222  -6.523   0.094  0.00  0.00    +0.307 C 
ATOM      3  O   UNL     1      -4.199  -5.799   0.103  0.00  0.00    -0.252 OA
ATOM      4  N   UNL     1      -3.373  -7.859   0.190  0.00  0.00    -0.274 N 
ATOM      5  H   UNL     1      -1.215  -6.570  -0.096  0.00  0.00    +0.156 HD
ENDROOT
BRANCH   1   9
ATOM      6  C   UNL     1      -1.496  -1.849   0.028  0.00  0.00    +0.121 A 
ATOM      7  C   UNL     1      -2.509  -2.434   0.773  0.00  0.00    +0.047 A 
ATOM      8  C   UNL     1      -2.673  -3.805   0.761  0.00  0.00    +0.027 A 
ATOM      9  C   UNL     1      -1.823  -4.599   0.002  0.00  0.00    +0.035 A 
ATOM     10  C   UNL     1      -0.809  -4.013  -0.744  0.00  0.00    +0.027 A 
ATOM     11  C   UNL     1      -0.650  -2.641  -0.735  0.00  0.00    +0.047 A 
BRANCH   6  12
ATOM     12  O   UNL     1      -1.335  -0.499   0.041  0.00  0.00    -0.492 OA
BRANCH  12  14
ATOM     13  C   UNL     1      -1.908   1.743   0.736  0.00  0.00    +0.048 C 
ATOM     14  C   UNL     1      -2.242   0.254   0.848  0.00  0.00    +0.225 C 
ENDBRANCH  12  14
ENDBRANCH   6  12
ENDBRANCH   1   9
BRANCH   4  15
ATOM     15  C   UNL     1      -4.713  -8.439   0.304  0.00  0.00    +0.145 C 
BRANCH  15  16
ATOM     16  C   UNL     1      -5.255  -8.729  -1.072  0.00  0.00    -0.030 A 
ATOM     17  C   UNL     1      -5.976  -7.764  -1.749  0.00  0.00    +0.005 A 
ATOM     18  C   UNL     1      -6.472  -8.030  -3.011  0.00  0.00    +0.004 A 
ATOM     19  C   UNL     1      -6.247  -9.262  -3.597  0.00  0.00    -0.042 A 
ATOM     20  C   UNL     1      -5.525 -10.227  -2.920  0.00  0.00    +0.004 A 
ATOM     21  C   UNL     1      -5.025  -9.959  -1.659  0.00  0.00    +0.005 A 
BRANCH  19  22
ATOM     22  C   UNL     1      -6.789  -9.553  -4.973  0.00  0.00    -0.013 C 
ATOM     23  C   UNL     1      -6.202  -8.556  -5.973  0.00  0.00    +0.015 C 
ATOM     24  C   UNL     1      -6.401 -10.975  -5.383  0.00  0.00    +0.015 C 
ATOM     25  C   UNL     1      -8.313  -9.424  -4.958  0.00  0.00    +0.015 C 
ENDBRANCH  19  22
ENDBRANCH  15  16
ENDBRANCH   4  15
BRANCH   4  26
ATOM     26  C   UNL     1      -2.196  -8.732   0.179  0.00  0.00    +0.183 C 
BRANCH  26  27
ATOM     27  C   UNL     1      -1.711  -8.939   1.591  0.00  0.00    +0.122 A 
ATOM     28  C   UNL     1      -2.101  -9.924   2.420  0.00  0.00    +0.046 A 
ATOM     29  C   UNL     1      -1.401  -9.739   3.634  0.00  0.00    +0.041 A 
ATOM     30  C   UNL     1      -0.624  -8.652   3.474  0.00  0.00    +0.195 A 
ATOM     31  O   UNL     1      -0.812  -8.175   2.232  0.00  0.00    -0.466 OA
ENDBRANCH  26  27
ENDBRANCH   4  26
TORSDOF 8
