REMARK  Name = ZINC56247473
REMARK  9 active torsions:
REMARK  status: ('A' for Active; 'I' for Inactive)
REMARK    1  A    between atoms: C_1  and  C_2
REMARK    2  A    between atoms: N_7  and  C_9
REMARK    3  A    between atoms: C_9  and  C_10
REMARK    4  A    between atoms: C_10  and  C_12
REMARK    5  A    between atoms: C_10  and  N_13
REMARK    6  A    between atoms: C_14  and  C_16
REMARK    7  A    between atoms: C_16  and  N_17
REMARK    8  A    between atoms: N_20  and  C_21
REMARK    9  A    between atoms: C_21  and  C_22
REMARK                            x       y       z     vdW  Elec       q    Type
REMARK                         _______ _______ _______ _____ _____    ______ ____
ROOT
ATOM      1  N   UNL     1      -0.082  -4.397   2.396  0.00  0.00    -0.313 N 
ATOM      2  C   UNL     1      -0.388  -5.622   1.923  0.00  0.00    +0.230 C 
ATOM      3  O   UNL     1       0.497  -6.386   1.600  0.00  0.00    -0.274 OA
ATOM      4  H   UNL     1      -0.789  -3.786   2.655  0.00  0.00    +0.149 HD
ENDROOT
BRANCH   1   5
ATOM      5  C   UNL     1       1.320  -3.989   2.519  0.00  0.00    +0.053 C 
ATOM      6  C   UNL     1       1.879  -4.484   3.854  0.00  0.00    +0.026 C 
BRANCH   5   7
ATOM      7  C   UNL     1       1.413  -2.463   2.461  0.00  0.00    -0.057 C 
BRANCH   7  13
ATOM      8  C   UNL     1      -0.019   1.526   0.010  0.00  0.00    +0.005 C 
ATOM      9  C   UNL     1       0.002  -0.004   0.002  0.00  0.00    -0.031 C 
ATOM     10  C   UNL     1       0.721  -0.499  -1.257  0.00  0.00    -0.001 C 
ATOM     11  C   UNL     1       0.805  -2.027  -1.217  0.00  0.00    -0.018 C 
ATOM     12  C   UNL     1       1.518  -2.460   0.066  0.00  0.00    -0.079 C 
ATOM     13  N   UNL     1       0.768  -1.979   1.233  0.00  0.00    +0.381 N 
ATOM     14  C   UNL     1       0.744  -0.512   1.240  0.00  0.00    -0.076 C 
ATOM     15  H   UNL     1      -0.177  -2.330   1.192  0.00  0.00    -0.082 HD
ENDBRANCH   7  13
ENDBRANCH   5   7
ENDBRANCH   1   5
BRANCH   2  16
ATOM     16  C   UNL     1      -1.830  -6.042   1.797  0.00  0.00    +0.201 C 
BRANCH  16  17
ATOM     17  N   UNL     1      -1.897  -7.404   1.263  0.00  0.00    -0.291 N 
ATOM     18  C   UNL     1      -3.093  -7.992   1.064  0.00  0.00    +0.300 C 
ATOM     19  O   UNL     1      -4.117  -7.392   1.327  0.00  0.00    -0.253 OA
ATOM     20  N   UNL     1      -3.154  -9.246   0.573  0.00  0.00    -0.295 N 
ATOM     21  H   UNL     1      -1.080  -7.884   1.053  0.00  0.00    +0.151 HD
ATOM     22  H   UNL     1      -2.337  -9.725   0.363  0.00  0.00    +0.151 HD
BRANCH  20  23
ATOM     23  C   UNL     1      -4.455  -9.885   0.357  0.00  0.00    +0.141 C 
BRANCH  23  24
ATOM     24  C   UNL     1      -4.247 -11.273  -0.194  0.00  0.00    -0.030 A 
ATOM     25  C   UNL     1      -4.176 -11.470  -1.560  0.00  0.00    +0.008 A 
ATOM     26  C   UNL     1      -3.985 -12.742  -2.066  0.00  0.00    +0.038 A 
ATOM     27  C   UNL     1      -3.865 -13.819  -1.204  0.00  0.00    +0.123 A 
ATOM     28  C   UNL     1      -3.937 -13.620   0.165  0.00  0.00    +0.038 A 
ATOM     29  C   UNL     1      -4.122 -12.346   0.668  0.00  0.00    +0.008 A 
ATOM     30  F   UNL     1      -3.679 -15.062  -1.697  0.00  0.00    -0.205 F 
ENDBRANCH  23  24
ENDBRANCH  20  23
ENDBRANCH  16  17
ENDBRANCH   2  16
TORSDOF 7
