REMARK  Name = ZINC36543609
REMARK  7 active torsions:
REMARK  status: ('A' for Active; 'I' for Inactive)
REMARK    1  A    between atoms: C_8  and  C_12
REMARK    2  A    between atoms: N_14  and  C_15
REMARK    3  A    between atoms: C_15  and  C_17
REMARK    4  A    between atoms: C_15  and  C_28
REMARK    5  A    between atoms: C_17  and  C_18
REMARK    6  A    between atoms: N_30  and  C_31
REMARK    7  A    between atoms: C_31  and  C_32
REMARK                            x       y       z     vdW  Elec       q    Type
REMARK                         _______ _______ _______ _____ _____    ______ ____
ROOT
ATOM      1  C   UNL     1       2.046  -6.516  -0.868  0.00  0.00    +0.163 C 
ENDROOT
BRANCH   1   4
ATOM      2  C   UNL     1       2.583  -4.232  -0.208  0.00  0.00    +0.231 C 
ATOM      3  O   UNL     1       3.136  -4.677   0.775  0.00  0.00    -0.274 OA
ATOM      4  N   UNL     1       2.005  -5.069  -1.093  0.00  0.00    -0.302 N 
ATOM      5  H   UNL     1       1.562  -4.713  -1.879  0.00  0.00    +0.150 HD
BRANCH   2  13
ATOM      6  C   UNL     1      -0.017   1.376   0.010  0.00  0.00    +0.000 A 
ATOM      7  C   UNL     1       1.173   2.080   0.002  0.00  0.00    +0.000 A 
ATOM      8  C   UNL     1       2.374   1.400  -0.015  0.00  0.00    +0.005 A 
ATOM      9  C   UNL     1       2.395   0.013  -0.024  0.00  0.00    -0.030 A 
ATOM     10  C   UNL     1       1.208  -0.688  -0.012  0.00  0.00    -0.041 A 
ATOM     11  C   UNL     1       0.002  -0.004   0.002  0.00  0.00    +0.004 A 
ATOM     12  C   UNL     1       1.180  -2.195  -0.009  0.00  0.00    +0.063 C 
ATOM     13  C   UNL     1       2.541  -2.744  -0.440  0.00  0.00    +0.145 C 
ATOM     14  N   UNL     1       3.585  -2.085   0.361  0.00  0.00    -0.301 NA
ATOM     15  C   UNL     1       3.730  -0.684  -0.048  0.00  0.00    +0.117 C 
ATOM     16  H   UNL     1       3.382  -2.155   1.347  0.00  0.00    +0.123 HD
ENDBRANCH   2  13
ENDBRANCH   1   4
BRANCH   1  17
ATOM     17  C   UNL     1       0.886  -7.168  -1.575  0.00  0.00    +0.234 C 
ATOM     18  O   UNL     1       0.103  -6.490  -2.206  0.00  0.00    -0.274 OA
ATOM     19  N   UNL     1       0.720  -8.503  -1.508  0.00  0.00    -0.307 N 
ATOM     20  H   UNL     1       1.347  -9.045  -1.003  0.00  0.00    +0.149 HD
BRANCH  19  21
ATOM     21  C   UNL     1      -0.407  -9.137  -2.196  0.00  0.00    +0.178 C 
BRANCH  21  22
ATOM     22  C   UNL     1      -0.365 -10.625  -1.964  0.00  0.00    +0.122 A 
ATOM     23  C   UNL     1      -0.962 -11.281  -0.952  0.00  0.00    +0.046 A 
ATOM     24  C   UNL     1      -0.664 -12.653  -1.121  0.00  0.00    +0.041 A 
ATOM     25  C   UNL     1       0.097 -12.753  -2.226  0.00  0.00    +0.195 A 
ATOM     26  O   UNL     1       0.270 -11.523  -2.735  0.00  0.00    -0.466 OA
ENDBRANCH  21  22
ENDBRANCH  19  21
ENDBRANCH   1  17
BRANCH   1  27
ATOM     27  C   UNL     1       3.359  -7.080  -1.414  0.00  0.00    +0.069 C 
BRANCH  27  28
ATOM     28  C   UNL     1       4.514  -6.520  -0.623  0.00  0.00    -0.020 A 
ATOM     29  C   UNL     1       5.252  -5.444  -0.940  0.00  0.00    +0.087 A 
ATOM     30  N   UNL     1       6.211  -5.239   0.014  0.00  0.00    -0.360 N 
ATOM     31  H   UNL     1       6.864  -4.522   0.003  0.00  0.00    +0.165 HD
ATOM     32  C   UNL     1       6.111  -6.203   0.993  0.00  0.00    +0.047 A 
ATOM     33  C   UNL     1       5.040  -7.044   0.640  0.00  0.00    +0.003 A 
ATOM     34  C   UNL     1       4.699  -8.119   1.462  0.00  0.00    +0.010 A 
ATOM     35  C   UNL     1       5.407  -8.348   2.608  0.00  0.00    +0.001 A 
ATOM     36  C   UNL     1       6.462  -7.519   2.963  0.00  0.00    +0.002 A 
ATOM     37  C   UNL     1       6.821  -6.457   2.162  0.00  0.00    +0.026 A 
ENDBRANCH  27  28
ENDBRANCH   1  27
TORSDOF 7
