REMARK  Name = ZINC39684708
REMARK  8 active torsions:
REMARK  status: ('A' for Active; 'I' for Inactive)
REMARK    1  A    between atoms: C_1  and  C_2
REMARK    2  A    between atoms: C_2  and  C_4
REMARK    3  A    between atoms: C_2  and  N_8
REMARK    4  A    between atoms: C_4  and  C_5
REMARK    5  A    between atoms: C_4  and  C_6
REMARK    6  A    between atoms: C_4  and  C_7
REMARK    7  A    between atoms: C_9  and  C_11
REMARK    8  A    between atoms: C_22  and  C_24
REMARK                            x       y       z     vdW  Elec       q    Type
REMARK                         _______ _______ _______ _____ _____    ______ ____
ROOT
ATOM      1  C   UNL     1       2.790  -1.098   2.391  0.00  0.00    +0.100 C 
ATOM      2  C   UNL     1       2.677  -0.074   3.543  0.00  0.00    +0.121 C 
ATOM      3  N   UNL     1       3.999  -0.117   4.212  0.00  0.00    -0.295 N 
ATOM      4  C   UNL     1       4.971  -0.241   3.100  0.00  0.00    +0.115 C 
ATOM      5  C   UNL     1       4.297  -1.204   2.103  0.00  0.00    -0.004 C 
ATOM      6  C   UNL     1       4.593  -0.771   0.670  0.00  0.00    -0.010 C 
ATOM      7  C   UNL     1       6.088  -0.940   0.389  0.00  0.00    -0.082 C 
ATOM      8  N   UNL     1       6.469  -2.344   0.585  0.00  0.00    +0.379 N 
ATOM      9  C   UNL     1       6.269  -2.725   1.988  0.00  0.00    -0.082 C 
ATOM     10  C   UNL     1       4.781  -2.631   2.337  0.00  0.00    -0.010 C 
ATOM     11  C   UNL     1       4.258  -0.057   5.533  0.00  0.00    +0.265 C 
ATOM     12  O   UNL     1       5.407  -0.023   5.926  0.00  0.00    -0.268 OA
ATOM     13  H   UNL     1       5.901  -2.931  -0.006  0.00  0.00    -0.086 HD
ATOM     14  H   UNL     1       7.441  -2.465   0.341  0.00  0.00    -0.086 HD
ENDROOT
BRANCH  11  15
ATOM     15  C   UNL     1       3.140  -0.031   6.508  0.00  0.00    +0.126 A 
ATOM     16  C   UNL     1       3.423   0.148   7.870  0.00  0.00    +0.033 A 
ATOM     17  C   UNL     1       2.403   0.174   8.777  0.00  0.00    +0.012 A 
ATOM     18  C   UNL     1       1.087   0.018   8.304  0.00  0.00    +0.000 A 
ATOM     19  C   UNL     1      -0.010   0.035   9.181  0.00  0.00    +0.010 A 
ATOM     20  C   UNL     1      -1.269  -0.118   8.687  0.00  0.00    +0.001 A 
ATOM     21  C   UNL     1      -1.487  -0.292   7.321  0.00  0.00    +0.002 A 
ATOM     22  C   UNL     1      -0.450  -0.314   6.441  0.00  0.00    +0.028 A 
ATOM     23  C   UNL     1       0.869  -0.159   6.912  0.00  0.00    +0.072 A 
ATOM     24  N   UNL     1       1.903  -0.171   6.073  0.00  0.00    -0.242 NA
ENDBRANCH  11  15
BRANCH   1  26
ATOM     25  N   UNL     1       1.655  -1.470   0.225  0.00  0.00    -0.312 N 
ATOM     26  C   UNL     1       2.056  -0.600   1.172  0.00  0.00    +0.218 C 
ATOM     27  O   UNL     1       1.827   0.584   1.045  0.00  0.00    -0.275 OA
ATOM     28  H   UNL     1       1.839  -2.417   0.327  0.00  0.00    +0.149 HD
BRANCH  25  30
ATOM     29  C   UNL     1      -0.550  -0.868  -0.644  0.00  0.00    +0.028 C 
ATOM     30  C   UNL     1       0.942  -0.985  -0.960  0.00  0.00    +0.075 C 
BRANCH  30  31
ATOM     31  C   UNL     1       1.143  -1.970  -2.114  0.00  0.00    -0.020 C 
ATOM     32  C   UNL     1       0.398  -1.464  -3.351  0.00  0.00    +0.012 C 
ATOM     33  C   UNL     1       2.635  -2.087  -2.430  0.00  0.00    +0.012 C 
ATOM     34  C   UNL     1       0.596  -3.342  -1.715  0.00  0.00    +0.012 C 
ENDBRANCH  30  31
ENDBRANCH  25  30
ENDBRANCH   1  26
TORSDOF 4
