REMARK  Name = ZINC20519195
REMARK  5 active torsions:
REMARK  status: ('A' for Active; 'I' for Inactive)
REMARK    1  A    between atoms: C_1  and  S_2
REMARK    2  A    between atoms: S_2  and  C_3
REMARK    3  A    between atoms: C_3  and  C_4
REMARK    4  A    between atoms: C_4  and  C_5
REMARK    5  A    between atoms: N_13  and  C_16
REMARK                            x       y       z     vdW  Elec       q    Type
REMARK                         _______ _______ _______ _____ _____    ______ ____
ROOT
ATOM      1  C   UNL     1      -3.356  -2.382   0.021  0.00  0.00    +0.068 C 
ATOM      2  C   UNL     1      -3.508  -3.915  -0.074  0.00  0.00    +0.107 C 
ATOM      3  C   UNL     1      -4.707  -4.256   0.855  0.00  0.00    +0.122 C 
ATOM      4  C   UNL     1      -4.073  -5.082   1.952  0.00  0.00    +0.228 C 
ATOM      5  O   UNL     1      -4.663  -5.566   2.893  0.00  0.00    -0.275 OA
ATOM      6  N   UNL     1      -2.760  -5.195   1.721  0.00  0.00    -0.238 N 
ATOM      7  C   UNL     1      -2.327  -4.577   0.598  0.00  0.00    +0.227 C 
ATOM      8  O   UNL     1      -1.185  -4.551   0.192  0.00  0.00    -0.275 OA
ATOM      9  C   UNL     1      -5.162  -2.901   1.410  0.00  0.00    +0.136 C 
ATOM     10  N   UNL     1      -3.978  -2.014   1.321  0.00  0.00    -0.295 NA
ATOM     11  C   UNL     1      -5.641  -3.020   2.829  0.00  0.00    +0.005 A 
ATOM     12  C   UNL     1      -5.049  -3.444   3.998  0.00  0.00    +0.008 A 
ATOM     13  C   UNL     1      -5.768  -3.440   5.180  0.00  0.00    +0.002 A 
ATOM     14  C   UNL     1      -7.082  -3.009   5.185  0.00  0.00    +0.022 A 
ATOM     15  C   UNL     1      -7.680  -2.582   4.017  0.00  0.00    +0.062 A 
ATOM     16  C   UNL     1      -6.963  -2.583   2.822  0.00  0.00    +0.057 A 
ATOM     17  N   UNL     1      -7.339  -2.204   1.531  0.00  0.00    -0.282 N 
ATOM     18  C   UNL     1      -6.338  -2.360   0.643  0.00  0.00    +0.243 C 
ATOM     19  O   UNL     1      -6.376  -2.112  -0.543  0.00  0.00    -0.273 OA
ATOM     20 CL   UNL     1      -9.329  -2.042   4.036  0.00  0.00    -0.082 Cl
ATOM     21  H   UNL     1      -3.338  -2.172   2.085  0.00  0.00    +0.123 HD
ATOM     22  H   UNL     1      -8.219  -1.867   1.300  0.00  0.00    +0.155 HD
ENDROOT
BRANCH   6  23
ATOM     23  C   UNL     1      -1.860  -5.935   2.609  0.00  0.00    +0.084 C 
ATOM     24  C   UNL     1      -0.729  -5.011   3.105  0.00  0.00    +0.023 C 
ATOM     25  C   UNL     1       0.519  -5.928   3.148  0.00  0.00    +0.002 C 
ATOM     26  C   UNL     1       0.334  -6.816   1.892  0.00  0.00    +0.002 C 
ATOM     27  C   UNL     1      -1.184  -7.082   1.838  0.00  0.00    +0.023 C 
ENDBRANCH   6  23
BRANCH   1  28
ATOM     28  C   UNL     1      -1.877  -1.992   0.009  0.00  0.00    +0.030 C 
BRANCH  28  29
ATOM     29  C   UNL     1      -1.752  -0.467   0.016  0.00  0.00    +0.070 C 
BRANCH  29  31
ATOM     30  C   UNL     1      -0.022   1.810   0.012  0.00  0.00    +0.084 C 
ATOM     31  S   UNL     1       0.002  -0.004   0.002  0.00  0.00    -0.164 S 
ENDBRANCH  29  31
ENDBRANCH  28  29
ENDBRANCH   1  28
TORSDOF 4
