REMARK  Name = ZINC40347763
REMARK  7 active torsions:
REMARK  status: ('A' for Active; 'I' for Inactive)
REMARK    1  A    between atoms: C_1  and  C_2
REMARK    2  A    between atoms: C_2  and  N_3
REMARK    3  A    between atoms: C_6  and  N_9
REMARK    4  A    between atoms: N_9  and  S_10
REMARK    5  A    between atoms: S_10  and  C_13
REMARK    6  A    between atoms: C_14  and  C_20
REMARK    7  A    between atoms: C_18  and  N_19
REMARK                            x       y       z     vdW  Elec       q    Type
REMARK                         _______ _______ _______ _____ _____    ______ ____
ROOT
ATOM      1  S   UNL     1      -6.149  -5.219  -1.996  0.00  0.00    +0.061 S 
ATOM      2  O   UNL     1      -7.373  -5.789  -1.553  0.00  0.00    -0.153 OA
ATOM      3  O   UNL     1      -5.654  -5.406  -3.315  0.00  0.00    -0.153 OA
ENDROOT
BRANCH   1   4
ATOM      4  C   UNL     1      -4.897  -5.801  -0.901  0.00  0.00    +0.129 A 
ATOM      5  C   UNL     1      -5.220  -6.151   0.396  0.00  0.00    -0.022 A 
ATOM      6  C   UNL     1      -4.238  -6.607   1.255  0.00  0.00    +0.005 A 
ATOM      7  C   UNL     1      -2.930  -6.717   0.820  0.00  0.00    +0.002 A 
ATOM      8  C   UNL     1      -2.600  -6.370  -0.475  0.00  0.00    +0.025 A 
ATOM      9  C   UNL     1      -3.585  -5.916  -1.343  0.00  0.00    +0.051 A 
ATOM     10  C   UNL     1      -6.644  -6.033   0.874  0.00  0.00    +0.046 C 
BRANCH   9  11
ATOM     11  N   UNL     1      -3.256  -5.569  -2.655  0.00  0.00    -0.356 N 
ATOM     12  H   UNL     1      -3.801  -4.929  -3.139  0.00  0.00    +0.142 HD
ATOM     13  H   UNL     1      -2.482  -5.968  -3.083  0.00  0.00    +0.142 HD
ENDBRANCH   9  11
ENDBRANCH   1   4
BRANCH   1  14
ATOM     14  N   UNL     1      -6.277  -3.584  -1.766  0.00  0.00    -0.187 NA
ATOM     15  H   UNL     1      -7.096  -3.208  -1.406  0.00  0.00    +0.148 HD
BRANCH  14  19
ATOM     16  N   UNL     1      -3.771  -0.197  -1.681  0.00  0.00    +0.380 N 
ATOM     17  C   UNL     1      -4.516  -0.435  -2.922  0.00  0.00    -0.077 C 
ATOM     18  C   UNL     1      -5.691  -1.376  -2.644  0.00  0.00    +0.002 C 
ATOM     19  C   UNL     1      -5.155  -2.706  -2.106  0.00  0.00    +0.073 C 
ATOM     20  C   UNL     1      -4.317  -2.437  -0.853  0.00  0.00    +0.002 C 
ATOM     21  C   UNL     1      -3.194  -1.457  -1.197  0.00  0.00    -0.077 C 
ATOM     22  H   UNL     1      -4.396   0.176  -0.982  0.00  0.00    -0.082 HD
BRANCH  16  24
ATOM     23  C   UNL     1      -3.297   2.119  -2.321  0.00  0.00    -0.017 C 
ATOM     24  C   UNL     1      -2.692   0.767  -1.936  0.00  0.00    -0.082 C 
ENDBRANCH  16  24
ENDBRANCH  14  19
ENDBRANCH   1  14
TORSDOF 5
