REMARK  Name = ZINC60780957
REMARK  4 active torsions:
REMARK  status: ('A' for Active; 'I' for Inactive)
REMARK    1  A    between atoms: C_1  and  C_2
REMARK    2  A    between atoms: C_2  and  N_3
REMARK    3  A    between atoms: C_9  and  C_11
REMARK    4  A    between atoms: C_12  and  C_13
REMARK                            x       y       z     vdW  Elec       q    Type
REMARK                         _______ _______ _______ _____ _____    ______ ____
ROOT
ATOM      1  C   UNL     1       4.928  -2.265   3.033  0.00  0.00    +0.068 C 
ATOM      2  C   UNL     1       5.942  -3.128   3.248  0.00  0.00    +0.013 C 
ENDROOT
BRANCH   2   3
ATOM      3  C   UNL     1       7.333  -2.653   3.208  0.00  0.00    -0.020 A 
ATOM      4  C   UNL     1       8.387  -3.548   3.425  0.00  0.00    +0.057 A 
ATOM      5  C   UNL     1       9.692  -3.097   3.387  0.00  0.00    +0.168 A 
ATOM      6  C   UNL     1       9.958  -1.750   3.132  0.00  0.00    +0.184 A 
ATOM      7  C   UNL     1       8.912  -0.862   2.917  0.00  0.00    +0.087 A 
ATOM      8  C   UNL     1       7.607  -1.306   2.949  0.00  0.00    +0.031 A 
ATOM      9 CL   UNL     1       9.249   0.811   2.602  0.00  0.00    -0.080 Cl
ATOM     10  O   UNL     1      11.309  -1.564   3.148  0.00  0.00    -0.451 OA
ATOM     11  C   UNL     1      11.850  -2.719   3.817  0.00  0.00    +0.466 C 
ATOM     12  O   UNL     1      10.878  -3.750   3.561  0.00  0.00    -0.453 OA
ENDBRANCH   2   3
BRANCH   1  19
ATOM     13  N   UNL     1       0.716  -0.502   1.173  0.00  0.00    -0.300 NA
ATOM     14  C   UNL     1       2.135  -0.126   1.130  0.00  0.00    +0.103 C 
ATOM     15  C   UNL     1       2.796  -0.482   2.466  0.00  0.00    +0.123 C 
ATOM     16  N   UNL     1       2.537  -1.902   2.752  0.00  0.00    -0.296 N 
ATOM     17  C   UNL     1       1.149  -2.384   2.679  0.00  0.00    +0.123 C 
ATOM     18  C   UNL     1       0.554  -1.953   1.335  0.00  0.00    +0.103 C 
ATOM     19  C   UNL     1       3.544  -2.738   3.072  0.00  0.00    +0.240 C 
ATOM     20  O   UNL     1       3.303  -3.887   3.394  0.00  0.00    -0.271 OA
BRANCH  13  22
ATOM     21  C   UNL     1      -0.013   1.507  -0.022  0.00  0.00    +0.020 C 
ATOM     22  C   UNL     1       0.007  -0.023  -0.021  0.00  0.00    +0.081 C 
ENDBRANCH  13  22
ENDBRANCH   1  19
TORSDOF 3
