REMARK  Name = ZINC63961474
REMARK  5 active torsions:
REMARK  status: ('A' for Active; 'I' for Inactive)
REMARK    1  A    between atoms: C_1  and  C_2
REMARK    2  A    between atoms: C_5  and  C_29
REMARK    3  A    between atoms: C_7  and  N_8
REMARK    4  A    between atoms: C_9  and  C_11
REMARK    5  A    between atoms: C_17  and  C_19
REMARK                            x       y       z     vdW  Elec       q    Type
REMARK                         _______ _______ _______ _____ _____    ______ ____
ROOT
ATOM      1  C   UNL     1      -0.125   0.055   4.876  0.00  0.00    +0.093 C 
ATOM      2  C   UNL     1      -0.193  -0.941   6.036  0.00  0.00    +0.016 C 
ATOM      3  C   UNL     1      -0.357  -0.181   7.354  0.00  0.00    +0.020 C 
ATOM      4  C   UNL     1       0.857   0.729   7.568  0.00  0.00    +0.108 C 
ATOM      5  N   UNL     1       1.015   1.592   6.389  0.00  0.00    -0.297 N 
ATOM      6  C   UNL     1       1.091   0.967   5.061  0.00  0.00    +0.120 C 
ATOM      7  C   UNL     1       1.088   2.931   6.523  0.00  0.00    +0.247 C 
ATOM      8  O   UNL     1       1.115   3.640   5.536  0.00  0.00    -0.270 OA
ENDROOT
BRANCH   7   9
ATOM      9  C   UNL     1       1.136   3.536   7.867  0.00  0.00    +0.045 A 
ATOM     10  C   UNL     1       2.097   3.134   8.783  0.00  0.00    +0.014 A 
ATOM     11  C   UNL     1       2.147   3.700  10.051  0.00  0.00    +0.001 A 
ATOM     12  C   UNL     1       1.259   4.662  10.430  0.00  0.00    +0.008 A 
ATOM     13  C   UNL     1       0.269   5.100   9.534  0.00  0.00    -0.017 A 
ATOM     14  C   UNL     1       0.205   4.539   8.235  0.00  0.00    -0.006 A 
ATOM     15  C   UNL     1      -0.780   4.980   7.341  0.00  0.00    +0.009 A 
ATOM     16  C   UNL     1      -1.660   5.945   7.729  0.00  0.00    +0.001 A 
ATOM     17  C   UNL     1      -1.595   6.503   9.004  0.00  0.00    +0.001 A 
ATOM     18  C   UNL     1      -0.659   6.090   9.902  0.00  0.00    +0.008 A 
ENDBRANCH   7   9
BRANCH   1  20
ATOM     19  N   UNL     1       0.084  -0.020   2.412  0.00  0.00    -0.285 N 
ATOM     20  C   UNL     1       0.003  -0.696   3.575  0.00  0.00    +0.222 C 
ATOM     21  O   UNL     1       0.034  -1.909   3.576  0.00  0.00    -0.275 OA
ATOM     22  H   UNL     1       0.124   0.949   2.416  0.00  0.00    +0.155 HD
BRANCH  19  29
ATOM     23  C   UNL     1      -1.206   1.154   0.169  0.00  0.00    +0.045 C 
ATOM     24  C   UNL     1      -0.510  -0.179   0.076  0.00  0.00    -0.029 A 
ATOM     25  C   UNL     1      -0.484  -0.861  -1.127  0.00  0.00    +0.006 A 
ATOM     26  C   UNL     1       0.152  -2.082  -1.220  0.00  0.00    +0.019 A 
ATOM     27  C   UNL     1       0.772  -2.633  -0.096  0.00  0.00    +0.054 A 
ATOM     28  C   UNL     1       0.746  -1.945   1.117  0.00  0.00    +0.042 A 
ATOM     29  C   UNL     1       0.108  -0.717   1.198  0.00  0.00    +0.038 A 
BRANCH  27  30
ATOM     30  C   UNL     1       1.432  -3.901  -0.189  0.00  0.00    +0.099 C 
ATOM     31  N   UNL     1       1.955  -4.906  -0.263  0.00  0.00    -0.191 NA
ENDBRANCH  27  30
ENDBRANCH  19  29
ENDBRANCH   1  20
TORSDOF 4
