REMARK  Name = ZINC21467524
REMARK  10 active torsions:
REMARK  status: ('A' for Active; 'I' for Inactive)
REMARK    1  A    between atoms: C_1  and  C_2
REMARK    2  A    between atoms: C_5  and  C_11
REMARK    3  A    between atoms: N_8  and  C_10
REMARK    4  A    between atoms: N_13  and  C_14
REMARK    5  A    between atoms: N_18  and  C_19
REMARK    6  A    between atoms: C_19  and  C_20
REMARK    7  A    between atoms: C_23  and  C_26
REMARK    8  A    between atoms: C_26  and  C_27
REMARK    9  A    between atoms: C_26  and  C_28
REMARK   10  A    between atoms: C_26  and  C_29
REMARK                            x       y       z     vdW  Elec       q    Type
REMARK                         _______ _______ _______ _____ _____    ______ ____
ROOT
ATOM      1  C   UNL     1       0.011  -3.174  -6.814  0.00  0.00    +0.124 A 
ATOM      2  C   UNL     1      -0.002  -2.125  -7.682  0.00  0.00    +0.065 A 
ATOM      3  C   UNL     1      -0.004  -2.643  -8.980  0.00  0.00    +0.136 A 
ATOM      4  N   UNL     1       0.008  -3.949  -8.904  0.00  0.00    -0.178 NA
ATOM      5  N   UNL     1       0.023  -4.314  -7.552  0.00  0.00    -0.246 N 
ENDROOT
BRANCH   1   8
ATOM      6  C   UNL     1       0.004  -1.888  -4.818  0.00  0.00    +0.256 C 
ATOM      7  O   UNL     1      -0.013  -0.871  -5.487  0.00  0.00    -0.269 OA
ATOM      8  N   UNL     1       0.017  -3.092  -5.423  0.00  0.00    -0.266 N 
ATOM      9  H   UNL     1       0.031  -3.903  -4.889  0.00  0.00    +0.157 HD
BRANCH   6  14
ATOM     10  C   UNL     1      -0.018   1.503   0.010  0.00  0.00    +0.068 C 
ATOM     11  C   UNL     1       0.002  -0.004   0.002  0.00  0.00    +0.068 A 
ATOM     12  C   UNL     1       0.008  -0.829  -1.170  0.00  0.00    +0.031 A 
ATOM     13  C   UNL     1      -0.001  -0.690  -2.567  0.00  0.00    +0.032 A 
ATOM     14  C   UNL     1       0.010  -1.802  -3.355  0.00  0.00    +0.077 A 
ATOM     15  S   UNL     1       0.034  -3.128  -2.160  0.00  0.00    -0.064 S 
ATOM     16  C   UNL     1       0.028  -2.145  -0.684  0.00  0.00    +0.107 A 
ATOM     17  N   UNL     1       0.033  -2.107   0.662  0.00  0.00    -0.260 N 
ATOM     18  N   UNL     1       0.023  -0.763   1.056  0.00  0.00    -0.175 NA
ATOM     19  C   UNL     1       0.053  -3.267   1.556  0.00  0.00    +0.173 C 
ENDBRANCH   6  14
ENDBRANCH   1   8
BRANCH   5  20
ATOM     20  C   UNL     1       0.044  -5.681  -7.027  0.00  0.00    +0.180 C 
BRANCH  20  21
ATOM     21  C   UNL     1      -1.369  -6.170  -6.840  0.00  0.00    -0.026 A 
ATOM     22  C   UNL     1      -2.019  -5.960  -5.638  0.00  0.00    +0.006 A 
ATOM     23  C   UNL     1      -3.316  -6.408  -5.467  0.00  0.00    +0.004 A 
ATOM     24  C   UNL     1      -3.962  -7.065  -6.497  0.00  0.00    -0.042 A 
ATOM     25  C   UNL     1      -3.312  -7.274  -7.699  0.00  0.00    +0.004 A 
ATOM     26  C   UNL     1      -2.017  -6.823  -7.872  0.00  0.00    +0.006 A 
BRANCH  24  27
ATOM     27  C   UNL     1      -5.375  -7.555  -6.309  0.00  0.00    -0.013 C 
ATOM     28  C   UNL     1      -6.288  -6.368  -5.997  0.00  0.00    +0.015 C 
ATOM     29  C   UNL     1      -5.851  -8.242  -7.590  0.00  0.00    +0.015 C 
ATOM     30  C   UNL     1      -5.420  -8.551  -5.149  0.00  0.00    +0.015 C 
ENDBRANCH  24  27
ENDBRANCH  20  21
ENDBRANCH   5  20
TORSDOF 5
