REMARK  Name = ZINC63063836
REMARK  2 active torsions:
REMARK  status: ('A' for Active; 'I' for Inactive)
REMARK    1  A    between atoms: C_5  and  O_7
REMARK    2  A    between atoms: C_12  and  C_14
REMARK                            x       y       z     vdW  Elec       q    Type
REMARK                         _______ _______ _______ _____ _____    ______ ____
ROOT
ATOM      1  C   UNL     1      -0.668   0.380   1.918  0.00  0.00    +0.004 A 
ATOM      2  C   UNL     1       0.002   1.211   1.040  0.00  0.00    +0.006 A 
ATOM      3  C   UNL     1       0.939   0.692   0.162  0.00  0.00    -0.022 A 
ATOM      4  C   UNL     1       1.205  -0.666   0.168  0.00  0.00    +0.081 A 
ATOM      5  C   UNL     1       0.528  -1.505   1.053  0.00  0.00    +0.138 A 
ATOM      6  C   UNL     1      -0.408  -0.977   1.927  0.00  0.00    +0.047 A 
ATOM      7  N   UNL     1       2.156  -1.218  -0.705  0.00  0.00    -0.268 N 
ATOM      8  C   UNL     1       2.648  -0.403  -1.824  0.00  0.00    +0.114 C 
ATOM      9  C   UNL     1       2.948   1.002  -1.284  0.00  0.00    +0.024 C 
ATOM     10  C   UNL     1       1.645   1.627  -0.785  0.00  0.00    +0.038 C 
ATOM     11  C   UNL     1       2.610  -2.473  -0.519  0.00  0.00    +0.223 C 
ATOM     12  O   UNL     1       2.502  -3.003   0.567  0.00  0.00    -0.275 OA
ENDROOT
BRANCH  11  13
ATOM     13  C   UNL     1       3.252  -3.219  -1.661  0.00  0.00    +0.080 C 
ATOM     14  C   UNL     1       3.037  -4.727  -1.477  0.00  0.00    +0.017 C 
ATOM     15  C   UNL     1       3.539  -5.444  -2.732  0.00  0.00    +0.027 C 
ATOM     16  C   UNL     1       4.917  -4.964  -3.085  0.00  0.00    -0.031 C 
ATOM     17  C   UNL     1       5.445  -3.874  -2.628  0.00  0.00    -0.030 C 
ATOM     18  C   UNL     1       4.756  -2.938  -1.678  0.00  0.00    +0.039 C 
ENDBRANCH  11  13
BRANCH   5  19
ATOM     19  O   UNL     1       0.786  -2.840   1.057  0.00  0.00    -0.505 OA
ATOM     20  H   UNL     1       0.777  -3.240   1.937  0.00  0.00    +0.292 HD
ENDBRANCH   5  19
TORSDOF 2
