REMARK  Name = ZINC00523154
REMARK  5 active torsions:
REMARK  status: ('A' for Active; 'I' for Inactive)
REMARK    1  A    between atoms: C_1  and  N_2
REMARK    2  A    between atoms: N_2  and  C_3
REMARK    3  A    between atoms: N_2  and  C_4
REMARK    4  A    between atoms: C_7  and  C_10
REMARK    5  A    between atoms: C_21  and  O_23
REMARK                            x       y       z     vdW  Elec       q    Type
REMARK                         _______ _______ _______ _____ _____    ______ ____
ROOT
ATOM      1  C   UNL     1      -0.006  -2.813  -4.924  0.00  0.00    +0.224 C 
ATOM      2  N   UNL     1       0.653  -1.985  -5.951  0.00  0.00    -0.313 N 
ATOM      3  C   UNL     1       2.028  -2.047  -5.992  0.00  0.00    +0.080 A 
ATOM      4  C   UNL     1       2.731  -3.156  -5.516  0.00  0.00    +0.068 A 
ATOM      5  C   UNL     1       4.186  -3.077  -5.612  0.00  0.00    -0.023 A 
ATOM      6  C   UNL     1       4.645  -1.934  -6.159  0.00  0.00    -0.004 A 
ATOM      7  S   UNL     1       3.184  -0.994  -6.536  0.00  0.00    -0.078 S 
ATOM      8  C   UNL     1       6.147  -1.909  -6.229  0.00  0.00    +0.043 C 
ATOM      9  C   UNL     1       6.602  -3.019  -5.255  0.00  0.00    +0.010 C 
ATOM     10  C   UNL     1       5.381  -3.960  -5.258  0.00  0.00    +0.037 C 
ATOM     11  C   UNL     1       1.942  -4.292  -4.973  0.00  0.00    +0.220 C 
ATOM     12  N   UNL     1       0.674  -4.089  -4.745  0.00  0.00    -0.223 NA
ATOM     13  H   UNL     1       0.146  -1.428  -6.562  0.00  0.00    +0.149 HD
ENDROOT
BRANCH   1  17
ATOM     14  C   UNL     1       0.000  -0.696  -1.211  0.00  0.00    +0.029 A 
ATOM     15  C   UNL     1       0.013  -2.085  -1.221  0.00  0.00    +0.023 A 
ATOM     16  C   UNL     1       0.010  -2.766  -2.422  0.00  0.00    +0.009 A 
ATOM     17  C   UNL     1      -0.005  -2.066  -3.615  0.00  0.00    -0.005 A 
ATOM     18  C   UNL     1      -0.018  -0.684  -3.609  0.00  0.00    +0.009 A 
ATOM     19  C   UNL     1      -0.021   0.004  -2.411  0.00  0.00    +0.023 A 
BRANCH  14  21
ATOM     20  C   UNL     1      -0.018   1.461   0.010  0.00  0.00    +0.129 C 
ATOM     21  N   UNL     1       0.002  -0.004   0.002  0.00  0.00    -0.336 N 
ATOM     22  C   UNL     1       0.024  -0.743   1.267  0.00  0.00    +0.129 C 
ENDBRANCH  14  21
ENDBRANCH   1  17
BRANCH  11  23
ATOM     23  O   UNL     1       2.518  -5.491  -4.724  0.00  0.00    -0.492 OA
ATOM     24  H   UNL     1       1.909  -6.154  -4.373  0.00  0.00    +0.294 HD
ENDBRANCH  11  23
TORSDOF 3
