REMARK  Name = ZINC35063949
REMARK  12 active torsions:
REMARK  status: ('A' for Active; 'I' for Inactive)
REMARK    1  A    between atoms: C_1  and  C_2
REMARK    2  A    between atoms: C_5  and  N_8
REMARK    3  A    between atoms: C_18  and  C_19
REMARK    4  A    between atoms: C_19  and  C_21
REMARK    5  A    between atoms: C_19  and  N_22
REMARK    6  A    between atoms: N_22  and  C_23
REMARK    7  A    between atoms: C_23  and  C_24
REMARK    8  A    between atoms: C_24  and  N_25
REMARK    9  A    between atoms: N_25  and  C_26
REMARK   10  A    between atoms: N_25  and  C_27
REMARK   11  A    between atoms: C_28  and  C_30
REMARK   12  A    between atoms: C_30  and  C_31
REMARK                            x       y       z     vdW  Elec       q    Type
REMARK                         _______ _______ _______ _____ _____    ______ ____
ROOT
ATOM      1  N   UNL     1      -1.060  -4.939   0.444  0.00  0.00    -0.263 N 
ATOM      2  C   UNL     1      -1.127  -5.722  -0.658  0.00  0.00    +0.266 A 
ATOM      3  O   UNL     1      -2.171  -5.868  -1.267  0.00  0.00    -0.267 OA
ATOM      4  C   UNL     1       0.109  -6.388  -1.092  0.00  0.00    +0.065 A 
ATOM      5  C   UNL     1       0.147  -7.214  -2.213  0.00  0.00    +0.015 A 
ATOM      6  C   UNL     1       1.333  -7.813  -2.575  0.00  0.00    +0.001 A 
ATOM      7  C   UNL     1       2.488  -7.600  -1.833  0.00  0.00    +0.002 A 
ATOM      8  C   UNL     1       2.472  -6.788  -0.722  0.00  0.00    +0.028 A 
ATOM      9  C   UNL     1       1.282  -6.168  -0.335  0.00  0.00    +0.078 A 
ATOM     10  N   UNL     1       1.221  -5.360   0.753  0.00  0.00    -0.231 NA
ATOM     11  C   UNL     1       0.116  -4.780   1.109  0.00  0.00    +0.138 A 
ENDROOT
BRANCH   1  16
ATOM     12  C   UNL     1      -5.718  -2.275   2.290  0.00  0.00    +0.044 C 
ATOM     13  C   UNL     1      -4.481  -2.982   1.800  0.00  0.00    -0.050 A 
ATOM     14  C   UNL     1      -4.250  -4.297   2.160  0.00  0.00    +0.005 A 
ATOM     15  C   UNL     1      -3.117  -4.948   1.712  0.00  0.00    +0.026 A 
ATOM     16  C   UNL     1      -2.210  -4.281   0.899  0.00  0.00    +0.051 A 
ATOM     17  C   UNL     1      -2.445  -2.961   0.539  0.00  0.00    +0.026 A 
ATOM     18  C   UNL     1      -3.583  -2.317   0.986  0.00  0.00    +0.005 A 
ENDBRANCH   1  16
BRANCH  11  19
ATOM     19  C   UNL     1       0.134  -3.891   2.326  0.00  0.00    +0.139 C 
ATOM     20  C   UNL     1       1.191  -2.800   2.144  0.00  0.00    +0.036 C 
BRANCH  19  21
ATOM     21  N   UNL     1       0.457  -4.691   3.510  0.00  0.00    -0.293 N 
ATOM     22  C   UNL     1      -0.416  -4.761   4.535  0.00  0.00    +0.220 C 
ATOM     23  O   UNL     1      -1.469  -4.162   4.476  0.00  0.00    -0.275 OA
BRANCH  21  24
ATOM     24  C   UNL     1       1.728  -5.415   3.581  0.00  0.00    +0.090 C 
BRANCH  24  25
ATOM     25  C   UNL     1       2.792  -4.516   4.214  0.00  0.00    -0.060 C 
BRANCH  25  26
ATOM     26  N   UNL     1       4.068  -5.242   4.285  0.00  0.00    +0.377 N 
ATOM     27  C   UNL     1       5.117  -4.341   4.782  0.00  0.00    -0.097 C 
ATOM     28  C   UNL     1       3.931  -6.384   5.199  0.00  0.00    -0.097 C 
ATOM     29  H   UNL     1       4.317  -5.574   3.366  0.00  0.00    -0.083 HD
ENDBRANCH  25  26
ENDBRANCH  24  25
ENDBRANCH  21  24
BRANCH  22  30
ATOM     30  C   UNL     1      -0.085  -5.584   5.753  0.00  0.00    +0.131 C 
BRANCH  30  31
ATOM     31  C   UNL     1      -1.218  -5.496   6.742  0.00  0.00    -0.039 A 
ATOM     32  C   UNL     1      -1.225  -4.497   7.698  0.00  0.00    +0.004 A 
ATOM     33  C   UNL     1      -2.264  -4.416   8.605  0.00  0.00    +0.000 A 
ATOM     34  C   UNL     1      -3.296  -5.334   8.558  0.00  0.00    +0.000 A 
ATOM     35  C   UNL     1      -3.290  -6.332   7.602  0.00  0.00    +0.000 A 
ATOM     36  C   UNL     1      -2.253  -6.411   6.691  0.00  0.00    +0.004 A 
ENDBRANCH  30  31
ENDBRANCH  22  30
ENDBRANCH  19  21
ENDBRANCH  11  19
TORSDOF 8
