REMARK  Name = ZINC14138269
REMARK  4 active torsions:
REMARK  status: ('A' for Active; 'I' for Inactive)
REMARK    1  A    between atoms: C_9  and  C_10
REMARK    2  A    between atoms: N_15  and  S_16
REMARK    3  A    between atoms: S_16  and  C_19
REMARK    4  A    between atoms: C_20  and  C_21
REMARK                            x       y       z     vdW  Elec       q    Type
REMARK                         _______ _______ _______ _____ _____    ______ ____
ROOT
ATOM      1  C   UNL     1      -3.530   4.597   2.723  0.00  0.00    +0.148 C 
ATOM      2  C   UNL     1      -3.368   5.691   3.799  0.00  0.00    +0.030 C 
ATOM      3  C   UNL     1      -2.204   6.556   3.246  0.00  0.00    +0.019 C 
ATOM      4  C   UNL     1      -2.467   6.492   1.720  0.00  0.00    +0.110 C 
ATOM      5  N   UNL     1      -2.948   5.120   1.478  0.00  0.00    -0.167 NA
ENDROOT
BRANCH   1  14
ATOM      6  C   UNL     1      -7.482   1.190   3.458  0.00  0.00    +0.005 A 
ATOM      7  C   UNL     1      -6.140   1.060   3.854  0.00  0.00    +0.018 A 
ATOM      8  C   UNL     1      -5.250   2.038   3.583  0.00  0.00    +0.094 A 
ATOM      9  N   UNL     1      -5.641   3.165   2.921  0.00  0.00    -0.285 N 
ATOM     10  C   UNL     1      -6.946   3.321   2.523  0.00  0.00    +0.161 A 
ATOM     11  C   UNL     1      -7.886   2.311   2.803  0.00  0.00    +0.048 A 
ATOM     12  N   UNL     1      -7.021   4.491   1.909  0.00  0.00    -0.129 NA
ATOM     13  N   UNL     1      -5.864   5.052   1.911  0.00  0.00    -0.132 NA
ATOM     14  C   UNL     1      -4.990   4.290   2.517  0.00  0.00    +0.157 A 
ENDBRANCH   1  14
BRANCH   5  15
ATOM     15  S   UNL     1      -2.856   4.305   0.039  0.00  0.00    +0.055 S 
ATOM     16  O   UNL     1      -2.776   5.290  -0.982  0.00  0.00    -0.153 OA
ATOM     17  O   UNL     1      -3.877   3.317   0.066  0.00  0.00    -0.153 OA
BRANCH  15  18
ATOM     18  C   UNL     1      -1.320   3.441   0.027  0.00  0.00    +0.153 C 
ATOM     19  C   UNL     1      -1.305   2.116   0.020  0.00  0.00    +0.028 C 
BRANCH  19  20
ATOM     20  C   UNL     1      -0.017   1.391   0.010  0.00  0.00    -0.024 A 
ATOM     21  C   UNL     1       1.185   2.100   0.002  0.00  0.00    +0.009 A 
ATOM     22  C   UNL     1       2.384   1.419  -0.014  0.00  0.00    +0.020 A 
ATOM     23  C   UNL     1       2.397   0.034  -0.021  0.00  0.00    +0.041 A 
ATOM     24  C   UNL     1       1.208  -0.675  -0.013  0.00  0.00    +0.020 A 
ATOM     25  C   UNL     1       0.002  -0.004   0.002  0.00  0.00    +0.009 A 
ATOM     26 CL   UNL     1       3.910  -0.817  -0.041  0.00  0.00    -0.084 Cl
ENDBRANCH  19  20
ENDBRANCH  15  18
ENDBRANCH   5  15
TORSDOF 4
