REMARK  Name = ZINC39363181
REMARK  4 active torsions:
REMARK  status: ('A' for Active; 'I' for Inactive)
REMARK    1  A    between atoms: C_1  and  C_2
REMARK    2  A    between atoms: C_4  and  C_8
REMARK    3  A    between atoms: C_14  and  C_17
REMARK    4  A    between atoms: C_17  and  C_18
REMARK                            x       y       z     vdW  Elec       q    Type
REMARK                         _______ _______ _______ _____ _____    ______ ____
ROOT
ATOM      1  C   UNL     1      -2.425  -0.594  -0.879  0.00  0.00    +0.246 C 
ATOM      2  O   UNL     1      -3.512  -1.077  -0.626  0.00  0.00    -0.270 OA
ATOM      3  N   UNL     1      -2.212  -0.002  -2.071  0.00  0.00    -0.293 N 
ATOM      4  C   UNL     1      -0.875   0.486  -2.447  0.00  0.00    +0.136 C 
ATOM      5  C   UNL     1      -1.007   1.935  -2.929  0.00  0.00    +0.179 C 
ATOM      6  O   UNL     1      -2.016   2.005  -3.940  0.00  0.00    -0.373 OA
ATOM      7  C   UNL     1      -3.322   1.639  -3.490  0.00  0.00    +0.136 C 
ATOM      8  C   UNL     1      -3.308   0.170  -3.038  0.00  0.00    +0.139 C 
ENDROOT
BRANCH   1  11
ATOM      9  C   UNL     1      -2.316   0.078   2.307  0.00  0.00    +0.040 C 
ATOM     10  C   UNL     1      -1.142   0.224   1.337  0.00  0.00    +0.161 C 
ATOM     11  C   UNL     1      -1.343  -0.655   0.115  0.00  0.00    +0.060 C 
ATOM     12  C   UNL     1      -0.295  -1.507   0.155  0.00  0.00    +0.145 C 
ATOM     13  N   UNL     1       0.484  -1.246   1.229  0.00  0.00    -0.161 NA
ATOM     14  N   UNL     1       0.095  -0.307   1.933  0.00  0.00    -0.180 NA
ENDBRANCH   1  11
BRANCH   7  15
ATOM     15  C   UNL     1      -4.324   1.812  -4.633  0.00  0.00    +0.036 C 
BRANCH  15  16
ATOM     16  C   UNL     1      -4.424   3.293  -5.005  0.00  0.00    -0.008 C 
ATOM     17  C   UNL     1      -5.013   4.075  -3.829  0.00  0.00    +0.003 C 
ATOM     18  C   UNL     1      -5.113   5.556  -4.200  0.00  0.00    +0.000 C 
ATOM     19  C   UNL     1      -6.018   5.715  -5.424  0.00  0.00    +0.000 C 
ATOM     20  C   UNL     1      -5.429   4.933  -6.599  0.00  0.00    +0.000 C 
ATOM     21  C   UNL     1      -5.329   3.452  -6.228  0.00  0.00    +0.003 C 
ENDBRANCH  15  16
ENDBRANCH   7  15
TORSDOF 3
