REMARK  Name = ZINC46844539
REMARK  10 active torsions:
REMARK  status: ('A' for Active; 'I' for Inactive)
REMARK    1  A    between atoms: C_1  and  C_2
REMARK    2  A    between atoms: C_2  and  C_4
REMARK    3  A    between atoms: C_2  and  N_16
REMARK    4  A    between atoms: C_6  and  O_14
REMARK    5  A    between atoms: C_7  and  O_12
REMARK    6  A    between atoms: C_8  and  O_10
REMARK    7  A    between atoms: O_10  and  C_11
REMARK    8  A    between atoms: O_12  and  C_13
REMARK    9  A    between atoms: O_14  and  C_15
REMARK   10  A    between atoms: C_17  and  C_19
REMARK                            x       y       z     vdW  Elec       q    Type
REMARK                         _______ _______ _______ _____ _____    ______ ____
ROOT
ATOM      1  C   UNL     1      -0.019   1.526   0.010  0.00  0.00    +0.033 C 
ATOM      2  C   UNL     1       0.002  -0.004   0.002  0.00  0.00    +0.101 C 
ENDROOT
BRANCH   2   3
ATOM      3  C   UNL     1       0.707  -0.490  -1.238  0.00  0.00    -0.020 A 
ATOM      4  C   UNL     1       2.089  -0.510  -1.282  0.00  0.00    +0.055 A 
ATOM      5  C   UNL     1       2.742  -0.956  -2.421  0.00  0.00    +0.165 A 
ATOM      6  C   UNL     1       2.005  -1.384  -3.519  0.00  0.00    +0.204 A 
ATOM      7  C   UNL     1       0.617  -1.363  -3.471  0.00  0.00    +0.165 A 
ATOM      8  C   UNL     1      -0.029  -0.920  -2.326  0.00  0.00    +0.055 A 
BRANCH   7   9
ATOM      9  O   UNL     1      -0.109  -1.780  -4.543  0.00  0.00    -0.491 OA
ATOM     10  C   UNL     1      -1.532  -1.731  -4.422  0.00  0.00    +0.277 C 
ENDBRANCH   7   9
BRANCH   6  11
ATOM     11  O   UNL     1       2.642  -1.822  -4.639  0.00  0.00    -0.488 OA
ATOM     12  C   UNL     1       2.944  -3.217  -4.710  0.00  0.00    +0.277 C 
ENDBRANCH   6  11
BRANCH   5  13
ATOM     13  O   UNL     1       4.101  -0.974  -2.464  0.00  0.00    -0.491 OA
ATOM     14  C   UNL     1       4.793  -0.520  -1.299  0.00  0.00    +0.277 C 
ENDBRANCH   5  13
ENDBRANCH   2   3
BRANCH   2  15
ATOM     15  N   UNL     1       0.711  -0.489   1.189  0.00  0.00    -0.305 N 
ATOM     16  C   UNL     1       0.051  -0.633   2.355  0.00  0.00    +0.245 C 
ATOM     17  O   UNL     1      -1.132  -0.361   2.423  0.00  0.00    -0.270 OA
ATOM     18  H   UNL     1       1.654  -0.707   1.135  0.00  0.00    +0.150 HD
BRANCH  16  19
ATOM     19  C   UNL     1       0.765  -1.122   3.551  0.00  0.00    +0.042 A 
ATOM     20  C   UNL     1       0.082  -1.278   4.760  0.00  0.00    +0.062 A 
ATOM     21  C   UNL     1       0.753  -1.736   5.877  0.00  0.00    +0.168 A 
ATOM     22  C   UNL     1       2.112  -2.042   5.798  0.00  0.00    +0.184 A 
ATOM     23  C   UNL     1       2.790  -1.888   4.596  0.00  0.00    +0.087 A 
ATOM     24  C   UNL     1       2.124  -1.436   3.476  0.00  0.00    +0.037 A 
ATOM     25 CL   UNL     1       4.481  -2.270   4.501  0.00  0.00    -0.080 Cl
ATOM     26  O   UNL     1       2.534  -2.469   7.022  0.00  0.00    -0.451 OA
ATOM     27  C   UNL     1       1.524  -2.032   7.951  0.00  0.00    +0.466 C 
ATOM     28  O   UNL     1       0.327  -1.971   7.153  0.00  0.00    -0.453 OA
ENDBRANCH  16  19
ENDBRANCH   2  15
TORSDOF 6
