REMARK  Name = ZINC64427231
REMARK  8 active torsions:
REMARK  status: ('A' for Active; 'I' for Inactive)
REMARK    1  A    between atoms: C_1  and  C_2
REMARK    2  A    between atoms: C_4  and  C_16
REMARK    3  A    between atoms: C_6  and  C_14
REMARK    4  A    between atoms: C_7  and  N_13
REMARK    5  A    between atoms: C_17  and  C_21
REMARK    6  A    between atoms: C_21  and  C_22
REMARK    7  A    between atoms: C_21  and  C_23
REMARK    8  A    between atoms: C_21  and  C_24
REMARK                            x       y       z     vdW  Elec       q    Type
REMARK                         _______ _______ _______ _____ _____    ______ ____
ROOT
ATOM      1  C   UNL     1       0.325   1.129  -0.370  0.00  0.00    +0.067 C 
ATOM      2  C   UNL     1       0.157  -0.366  -0.282  0.00  0.00    +0.063 C 
ATOM      3  C   UNL     1      -0.992  -0.983  -0.093  0.00  0.00    +0.005 C 
ATOM      4  C   UNL     1      -2.375  -0.463   0.147  0.00  0.00    +0.129 C 
ATOM      5  C   UNL     1      -3.024  -1.190   1.285  0.00  0.00    +0.071 C 
ATOM      6  C   UNL     1      -2.573  -2.286   1.914  0.00  0.00    +0.075 C 
ATOM      7  S   UNL     1      -1.056  -3.099   1.544  0.00  0.00    -0.077 S 
ATOM      8  C   UNL     1      -0.645  -2.472  -0.115  0.00  0.00    +0.220 C 
ATOM      9  N   UNL     1       0.815  -2.445  -0.293  0.00  0.00    -0.168 NA
ATOM     10  N   UNL     1       1.166  -1.265  -0.391  0.00  0.00    -0.158 NA
ENDROOT
BRANCH   4  11
ATOM     11  C   UNL     1      -3.201  -0.654  -1.099  0.00  0.00    +0.121 A 
ATOM     12  C   UNL     1      -3.859   0.313  -1.763  0.00  0.00    -0.000 A 
ATOM     13  C   UNL     1      -4.496  -0.306  -2.863  0.00  0.00    +0.045 A 
ATOM     14  C   UNL     1      -4.190  -1.614  -2.805  0.00  0.00    +0.195 A 
ATOM     15  O   UNL     1      -3.400  -1.819  -1.738  0.00  0.00    -0.467 OA
BRANCH  12  16
ATOM     16  C   UNL     1      -3.908   1.776  -1.403  0.00  0.00    -0.009 C 
ATOM     17  C   UNL     1      -4.801   2.516  -2.400  0.00  0.00    +0.015 C 
ATOM     18  C   UNL     1      -4.478   1.935   0.008  0.00  0.00    +0.015 C 
ATOM     19  C   UNL     1      -2.495   2.361  -1.451  0.00  0.00    +0.015 C 
ENDBRANCH  12  16
ENDBRANCH   4  11
BRANCH   6  20
ATOM     20  N   UNL     1      -3.350  -2.811   2.920  0.00  0.00    -0.352 N 
ATOM     21  H   UNL     1      -4.192  -2.390   3.152  0.00  0.00    +0.143 HD
ATOM     22  H   UNL     1      -3.056  -3.603   3.397  0.00  0.00    +0.143 HD
ENDBRANCH   6  20
BRANCH   5  23
ATOM     23  C   UNL     1      -4.266  -0.655   1.754  0.00  0.00    +0.098 C 
ATOM     24  N   UNL     1      -5.252  -0.230   2.126  0.00  0.00    -0.191 NA
ENDBRANCH   5  23
TORSDOF 4
