REMARK  Name = ZINC12324578
REMARK  7 active torsions:
REMARK  status: ('A' for Active; 'I' for Inactive)
REMARK    1  A    between atoms: C_1  and  C_2
REMARK    2  A    between atoms: C_2  and  C_27
REMARK    3  A    between atoms: C_6  and  C_20
REMARK    4  A    between atoms: C_8  and  O_12
REMARK    5  A    between atoms: C_9  and  C_10
REMARK    6  A    between atoms: O_12  and  C_13
REMARK    7  A    between atoms: C_13  and  C_14
REMARK                            x       y       z     vdW  Elec       q    Type
REMARK                         _______ _______ _______ _____ _____    ______ ____
ROOT
ATOM      1  C   UNL     1      -4.627   2.608   3.633  0.00  0.00    +0.041 C 
ATOM      2  C   UNL     1      -5.230   3.411   2.479  0.00  0.00    +0.068 C 
ATOM      3  C   UNL     1      -5.860   2.463   1.451  0.00  0.00    +0.071 C 
ATOM      4  C   UNL     1      -4.777   1.716   0.722  0.00  0.00    -0.015 A 
ATOM      5  C   UNL     1      -3.480   2.140   0.732  0.00  0.00    +0.012 A 
ATOM      6  C   UNL     1      -2.517   1.413   0.019  0.00  0.00    +0.115 A 
ATOM      7  N   UNL     1      -2.845   0.312  -0.650  0.00  0.00    -0.208 NA
ATOM      8  C   UNL     1      -4.086  -0.137  -0.675  0.00  0.00    +0.234 A 
ATOM      9  C   UNL     1      -5.101   0.550   0.011  0.00  0.00    +0.117 A 
ATOM     10  C   UNL     1      -3.059   3.371   1.488  0.00  0.00    +0.198 C 
ATOM     11  O   UNL     1      -4.201   4.160   1.823  0.00  0.00    -0.369 OA
ATOM     12  C   UNL     1      -6.296   4.366   3.020  0.00  0.00    +0.041 C 
ENDROOT
BRANCH   6  13
ATOM     13  C   UNL     1      -1.116   1.873   0.017  0.00  0.00    +0.153 A 
ATOM     14  C   UNL     1      -0.013   1.076   0.008  0.00  0.00    +0.051 A 
ATOM     15  C   UNL     1       1.105   1.931   0.002  0.00  0.00    +0.042 A 
ATOM     16  C   UNL     1       0.636   3.195   0.013  0.00  0.00    +0.196 A 
ATOM     17  O   UNL     1      -0.705   3.157   0.026  0.00  0.00    -0.461 OA
ENDBRANCH   6  13
BRANCH   9  18
ATOM     18  C   UNL     1      -6.449   0.067  -0.014  0.00  0.00    +0.105 C 
ATOM     19  N   UNL     1      -7.519  -0.317  -0.034  0.00  0.00    -0.191 NA
ENDBRANCH   9  18
BRANCH   8  20
ATOM     20  O   UNL     1      -4.382  -1.264  -1.366  0.00  0.00    -0.471 OA
BRANCH  20  21
ATOM     21  C   UNL     1      -3.303  -1.912  -2.042  0.00  0.00    +0.266 C 
BRANCH  21  22
ATOM     22  C   UNL     1      -3.818  -3.138  -2.751  0.00  0.00    -0.010 A 
ATOM     23  C   UNL     1      -3.832  -4.358  -2.100  0.00  0.00    +0.007 A 
ATOM     24  C   UNL     1      -4.309  -5.482  -2.748  0.00  0.00    +0.000 A 
ATOM     25  C   UNL     1      -4.763  -5.388  -4.051  0.00  0.00    +0.000 A 
ATOM     26  C   UNL     1      -4.745  -4.169  -4.703  0.00  0.00    +0.000 A 
ATOM     27  C   UNL     1      -4.272  -3.044  -4.053  0.00  0.00    +0.007 A 
ENDBRANCH  21  22
ENDBRANCH  20  21
ENDBRANCH   8  20
TORSDOF 5
