REMARK  Name = ZINC36865617
REMARK  3 active torsions:
REMARK  status: ('A' for Active; 'I' for Inactive)
REMARK    1  A    between atoms: C_1  and  C_2
REMARK    2  A    between atoms: C_2  and  C_3
REMARK    3  A    between atoms: C_2  and  N_4
REMARK                            x       y       z     vdW  Elec       q    Type
REMARK                         _______ _______ _______ _____ _____    ______ ____
ROOT
ATOM      1  N   UNL     1       1.141  -0.069  -1.302  0.00  0.00    -0.289 N 
ATOM      2  C   UNL     1       1.898  -1.217  -1.268  0.00  0.00    +0.218 A 
ATOM      3  N   UNL     1       1.764  -1.839  -2.403  0.00  0.00    -0.137 NA
ATOM      4  N   UNL     1       0.899  -1.087  -3.210  0.00  0.00    -0.253 N 
ATOM      5  C   UNL     1       0.527  -0.002  -2.500  0.00  0.00    +0.177 A 
ATOM      6  S   UNL     1      -0.530   1.238  -3.027  0.00  0.00    -0.011 S 
ATOM      7  N   UNL     1       2.675  -1.641  -0.200  0.00  0.00    -0.299 N 
ATOM      8  C   UNL     1       2.220  -1.445   1.183  0.00  0.00    +0.108 C 
ATOM      9  C   UNL     1       2.252  -2.795   1.907  0.00  0.00    +0.023 C 
ATOM     10  C   UNL     1       3.653  -3.401   1.789  0.00  0.00    -0.005 C 
ATOM     11  C   UNL     1       3.689  -4.734   2.539  0.00  0.00    +0.004 C 
ATOM     12  C   UNL     1       5.084  -5.351   2.422  0.00  0.00    +0.000 C 
ATOM     13  C   UNL     1       5.412  -5.590   0.947  0.00  0.00    +0.000 C 
ATOM     14  C   UNL     1       5.380  -4.256   0.197  0.00  0.00    +0.005 C 
ATOM     15  C   UNL     1       3.987  -3.634   0.314  0.00  0.00    +0.010 C 
ATOM     16  C   UNL     1       3.968  -2.301  -0.430  0.00  0.00    +0.111 C 
ATOM     17  H   UNL     1       0.617  -1.309  -4.111  0.00  0.00    +0.191 HD
ENDROOT
BRANCH   1  19
ATOM     18  C   UNL     1       1.433   2.291  -0.732  0.00  0.00    +0.031 C 
ATOM     19  C   UNL     1       1.019   0.910  -0.220  0.00  0.00    +0.086 C 
ATOM     20  C   UNL     1      -0.432   0.960   0.262  0.00  0.00    +0.031 C 
ENDBRANCH   1  19
TORSDOF 1
