REMARK  Name = ZINC36332257
REMARK  3 active torsions:
REMARK  status: ('A' for Active; 'I' for Inactive)
REMARK    1  A    between atoms: C_3  and  N_11
REMARK    2  A    between atoms: C_4  and  N_8
REMARK    3  A    between atoms: N_11  and  C_12
REMARK                            x       y       z     vdW  Elec       q    Type
REMARK                         _______ _______ _______ _____ _____    ______ ____
ROOT
ATOM      1  C   UNL     1      -0.011   1.389   0.033  0.00  0.00    +0.022 A 
ATOM      2  C   UNL     1       1.172   2.058   0.278  0.00  0.00    +0.026 A 
ATOM      3  C   UNL     1       2.378   1.371   0.240  0.00  0.00    +0.058 A 
ATOM      4  C   UNL     1       2.391   0.011  -0.044  0.00  0.00    +0.148 A 
ATOM      5  C   UNL     1       1.206  -0.653  -0.288  0.00  0.00    +0.054 A 
ATOM      6  C   UNL     1       0.005   0.035  -0.250  0.00  0.00    +0.043 A 
ATOM      7 CL   UNL     1      -1.484  -0.804  -0.557  0.00  0.00    -0.083 Cl
ENDROOT
BRANCH   4   8
ATOM      8  N   UNL     1       3.675  -0.725  -0.085  0.00  0.00    +0.058 N 
ATOM      9  O   UNL     1       4.662  -0.194  -0.539  0.00  0.00    -0.126 OA
ATOM     10  O   UNL     1       3.736  -1.857   0.335  0.00  0.00    -0.126 OA
ENDBRANCH   4   8
BRANCH   3  11
ATOM     11  N   UNL     1       3.577   2.046   0.488  0.00  0.00    -0.339 N 
ATOM     12  H   UNL     1       4.409   1.551   0.543  0.00  0.00    +0.146 HD
BRANCH  11  13
ATOM     13  C   UNL     1       3.576   3.500   0.663  0.00  0.00    +0.073 C 
ATOM     14  C   UNL     1       3.616   4.171  -0.707  0.00  0.00    +0.045 C 
ATOM     15  C   UNL     1       3.345   5.671  -0.562  0.00  0.00    +0.167 C 
ATOM     16  S   UNL     1       4.673   6.415   0.431  0.00  0.00    -0.031 S 
ATOM     17  O   UNL     1       4.280   7.731   0.797  0.00  0.00    -0.174 OA
ATOM     18  O   UNL     1       5.906   6.224  -0.248  0.00  0.00    -0.174 OA
ATOM     19  C   UNL     1       4.662   5.373   1.920  0.00  0.00    +0.167 C 
ATOM     20  C   UNL     1       4.786   3.907   1.499  0.00  0.00    +0.045 C 
ENDBRANCH  11  13
ENDBRANCH   3  11
TORSDOF 3
