REMARK  Name = ZINC00652073
REMARK  5 active torsions:
REMARK  status: ('A' for Active; 'I' for Inactive)
REMARK    1  A    between atoms: C_10  and  C_11
REMARK    2  A    between atoms: C_20  and  C_28
REMARK    3  A    between atoms: C_21  and  N_27
REMARK    4  A    between atoms: C_22  and  C_23
REMARK    5  A    between atoms: C_22  and  C_25
REMARK                            x       y       z     vdW  Elec       q    Type
REMARK                         _______ _______ _______ _____ _____    ______ ____
ROOT
ATOM      1  C   UNL     1      -2.485  -0.429   0.024  0.00  0.00    +0.067 C 
ATOM      2  C   UNL     1      -3.342  -0.923  -1.142  0.00  0.00    +0.030 C 
ATOM      3  C   UNL     1      -2.678  -0.690  -2.477  0.00  0.00    +0.009 C 
ATOM      4  C   UNL     1      -3.239   0.540  -3.188  0.00  0.00    +0.005 C 
ATOM      5  C   UNL     1      -4.749   0.343  -3.376  0.00  0.00    +0.027 C 
ATOM      6  C   UNL     1      -5.370   0.231  -2.007  0.00  0.00    -0.022 C 
ATOM      7  C   UNL     1      -4.710  -0.322  -1.008  0.00  0.00    -0.029 C 
ATOM      8  C   UNL     1      -5.331  -0.363   0.342  0.00  0.00    +0.074 C 
ATOM      9  C   UNL     1      -4.556  -0.641   1.420  0.00  0.00    +0.054 C 
ATOM     10  C   UNL     1      -3.089  -0.939   1.333  0.00  0.00    +0.188 C 
ENDROOT
BRANCH   1  20
ATOM     11  C   UNL     1       0.818   3.182  -1.478  0.00  0.00    +0.001 A 
ATOM     12  C   UNL     1       0.815   1.788  -1.494  0.00  0.00    +0.001 A 
ATOM     13  C   UNL     1      -0.243   1.084  -1.007  0.00  0.00    +0.009 A 
ATOM     14  C   UNL     1      -1.354   1.770  -0.485  0.00  0.00    -0.014 A 
ATOM     15  C   UNL     1      -1.349   3.187  -0.465  0.00  0.00    -0.018 A 
ATOM     16  C   UNL     1      -0.237   3.879  -0.977  0.00  0.00    +0.008 A 
ATOM     17  C   UNL     1      -2.456   3.873   0.061  0.00  0.00    +0.008 A 
ATOM     18  C   UNL     1      -3.515   3.169   0.548  0.00  0.00    +0.001 A 
ATOM     19  C   UNL     1      -3.518   1.775   0.533  0.00  0.00    +0.004 A 
ATOM     20  C   UNL     1      -2.462   1.078   0.031  0.00  0.00    -0.033 A 
ENDBRANCH   1  20
BRANCH   9  21
ATOM     21  N   UNL     1      -5.144  -0.650   2.654  0.00  0.00    -0.358 N 
ATOM     22  H   UNL     1      -4.543  -0.872   3.548  0.00  0.00    +0.142 HD
ATOM     23  H   UNL     1      -6.219  -0.436   2.752  0.00  0.00    +0.142 HD
ENDBRANCH   9  21
BRANCH  10  24
ATOM     24  C   UNL     1      -2.889  -2.394   1.420  0.00  0.00    +0.091 C 
ATOM     25  N   UNL     1      -2.734  -3.518   1.487  0.00  0.00    -0.194 NA
ENDBRANCH  10  24
BRANCH  10  26
ATOM     26  C   UNL     1      -2.402  -0.292   2.463  0.00  0.00    +0.091 C 
ATOM     27  N   UNL     1      -1.872   0.208   3.335  0.00  0.00    -0.194 NA
ENDBRANCH  10  26
BRANCH   8  28
ATOM     28  C   UNL     1      -6.732  -0.113   0.502  0.00  0.00    +0.101 C 
ATOM     29  N   UNL     1      -7.843   0.086   0.630  0.00  0.00    -0.191 NA
ENDBRANCH   8  28
TORSDOF 5
