REMARK  Name = ZINC41249838
REMARK  8 active torsions:
REMARK  status: ('A' for Active; 'I' for Inactive)
REMARK    1  A    between atoms: C_1  and  C_2
REMARK    2  A    between atoms: C_5  and  C_8
REMARK    3  A    between atoms: C_8  and  C_10
REMARK    4  A    between atoms: C_11  and  C_25
REMARK    5  A    between atoms: C_14  and  N_19
REMARK    6  A    between atoms: C_20  and  C_22
REMARK    7  A    between atoms: C_22  and  C_23
REMARK    8  A    between atoms: C_22  and  C_24
REMARK                            x       y       z     vdW  Elec       q    Type
REMARK                         _______ _______ _______ _____ _____    ______ ____
ROOT
ATOM      1  C   UNL     1       0.134  -5.018   1.223  0.00  0.00    +0.179 A 
ATOM      2  C   UNL     1       0.269  -6.367   1.337  0.00  0.00    +0.006 A 
ATOM      3  C   UNL     1       0.377  -6.644   2.768  0.00  0.00    +0.026 A 
ATOM      4  C   UNL     1       0.530  -7.809   3.524  0.00  0.00    +0.035 A 
ATOM      5  C   UNL     1       0.599  -7.723   4.902  0.00  0.00    +0.034 A 
ATOM      6  C   UNL     1       0.517  -6.482   5.531  0.00  0.00    +0.027 A 
ATOM      7  C   UNL     1       0.365  -5.329   4.794  0.00  0.00    +0.049 A 
ATOM      8  C   UNL     1       0.293  -5.392   3.407  0.00  0.00    +0.136 A 
ATOM      9  O   UNL     1       0.155  -4.454   2.449  0.00  0.00    -0.451 OA
ATOM     10  C   UNL     1       0.301  -7.372   0.215  0.00  0.00    +0.048 C 
ENDROOT
BRANCH   5  11
ATOM     11  N   UNL     1       0.753  -8.886   5.668  0.00  0.00    -0.285 N 
ATOM     12  C   UNL     1       1.499  -9.907   5.201  0.00  0.00    +0.220 C 
ATOM     13  O   UNL     1       1.972  -9.852   4.086  0.00  0.00    -0.275 OA
ATOM     14  H   UNL     1       0.321  -8.957   6.534  0.00  0.00    +0.155 HD
BRANCH  12  15
ATOM     15  C   UNL     1       1.747 -11.116   6.066  0.00  0.00    +0.069 C 
ATOM     16  C   UNL     1       2.616 -12.118   5.304  0.00  0.00    +0.017 C 
ATOM     17  C   UNL     1       2.464 -10.689   7.348  0.00  0.00    +0.017 C 
ENDBRANCH  12  15
ENDBRANCH   5  11
BRANCH   1  18
ATOM     18  C   UNL     1      -0.007  -4.286  -0.041  0.00  0.00    +0.228 C 
ATOM     19  O   UNL     1      -0.105  -4.896  -1.089  0.00  0.00    -0.283 OA
BRANCH  18  24
ATOM     20  C   UNL     1      -0.094   1.468  -0.043  0.00  0.00    +0.044 C 
ATOM     21  C   UNL     1      -0.071  -0.039  -0.042  0.00  0.00    -0.050 A 
ATOM     22  C   UNL     1      -0.069  -0.728  -1.242  0.00  0.00    +0.004 A 
ATOM     23  C   UNL     1      -0.048  -2.107  -1.249  0.00  0.00    +0.012 A 
ATOM     24  C   UNL     1      -0.029  -2.808  -0.042  0.00  0.00    +0.025 A 
ATOM     25  C   UNL     1      -0.031  -2.106   1.166  0.00  0.00    +0.012 A 
ATOM     26  C   UNL     1      -0.046  -0.727   1.158  0.00  0.00    +0.004 A 
ENDBRANCH  18  24
ENDBRANCH   1  18
TORSDOF 4
