REMARK  Name = ZINC45064000
REMARK  6 active torsions:
REMARK  status: ('A' for Active; 'I' for Inactive)
REMARK    1  A    between atoms: C_1  and  C_2
REMARK    2  A    between atoms: C_2  and  C_3
REMARK    3  A    between atoms: C_2  and  N_4
REMARK    4  A    between atoms: C_6  and  N_22
REMARK    5  A    between atoms: C_8  and  C_9
REMARK    6  A    between atoms: C_15  and  C_17
REMARK                            x       y       z     vdW  Elec       q    Type
REMARK                         _______ _______ _______ _____ _____    ______ ____
ROOT
ATOM      1  C   UNL     1      -1.185  -1.878  -2.018  0.00  0.00    +0.263 C 
ATOM      2  O   UNL     1      -1.846  -2.531  -2.804  0.00  0.00    -0.268 OA
ATOM      3  N   UNL     1       0.145  -1.754  -2.197  0.00  0.00    -0.293 N 
ATOM      4  C   UNL     1       1.083  -1.114  -1.256  0.00  0.00    +0.108 C 
ATOM      5  C   UNL     1       2.459  -1.751  -1.572  0.00  0.00    +0.021 C 
ATOM      6  C   UNL     1       2.388  -1.896  -3.115  0.00  0.00    +0.024 C 
ATOM      7  C   UNL     1       0.903  -2.239  -3.360  0.00  0.00    +0.080 C 
ENDROOT
BRANCH   1  12
ATOM      8  N   UNL     1      -3.152  -1.364  -0.506  0.00  0.00    -0.339 N 
ATOM      9  C   UNL     1      -3.374  -0.608   0.603  0.00  0.00    +0.109 A 
ATOM     10  C   UNL     1      -2.218   0.019   0.943  0.00  0.00    +0.043 A 
ATOM     11  C   UNL     1      -1.238  -0.359   0.014  0.00  0.00    +0.055 A 
ATOM     12  C   UNL     1      -1.835  -1.225  -0.878  0.00  0.00    +0.107 A 
BRANCH   8  14
ATOM     13  C   UNL     1      -4.594  -3.324  -0.256  0.00  0.00    +0.030 C 
ATOM     14  C   UNL     1      -4.149  -2.195  -1.187  0.00  0.00    +0.081 C 
ATOM     15  C   UNL     1      -5.359  -1.335  -1.560  0.00  0.00    +0.030 C 
ENDBRANCH   8  14
BRANCH  10  16
ATOM     16  N   UNL     1      -2.036   0.891   2.032  0.00  0.00    -0.357 N 
ATOM     17  H   UNL     1      -2.780   1.092   2.622  0.00  0.00    +0.142 HD
ATOM     18  H   UNL     1      -1.168   1.292   2.193  0.00  0.00    +0.142 HD
ENDBRANCH  10  16
ENDBRANCH   1  12
BRANCH   7  19
ATOM     19  C   UNL     1       0.412  -1.540  -4.629  0.00  0.00    +0.010 C 
ATOM     20  C   UNL     1      -1.003  -2.035  -4.992  0.00  0.00    +0.005 C 
ATOM     21  C   UNL     1      -0.999  -2.095  -6.540  0.00  0.00    +0.000 C 
ATOM     22  C   UNL     1       0.429  -2.604  -6.858  0.00  0.00    +0.000 C 
ATOM     23  C   UNL     1       1.323  -1.902  -5.816  0.00  0.00    +0.005 C 
ENDBRANCH   7  19
TORSDOF 4
