REMARK  Name = ZINC44019738
REMARK  4 active torsions:
REMARK  status: ('A' for Active; 'I' for Inactive)
REMARK    1  A    between atoms: C_1  and  C_2
REMARK    2  A    between atoms: C_6  and  N_8
REMARK    3  A    between atoms: C_12  and  N_17
REMARK    4  A    between atoms: C_23  and  C_25
REMARK                            x       y       z     vdW  Elec       q    Type
REMARK                         _______ _______ _______ _____ _____    ______ ____
ROOT
ATOM      1  N   UNL     1       1.450  -3.055   2.625  0.00  0.00    -0.229 N 
ATOM      2  C   UNL     1       2.033  -2.649   3.771  0.00  0.00    +0.263 A 
ATOM      3  O   UNL     1       2.752  -1.665   3.778  0.00  0.00    -0.267 OA
ATOM      4  C   UNL     1       1.807  -3.368   4.955  0.00  0.00    +0.112 A 
ATOM      5  C   UNL     1       0.997  -4.468   4.920  0.00  0.00    +0.108 A 
ATOM      6  N   UNL     1       0.423  -4.846   3.730  0.00  0.00    -0.295 N 
ATOM      7  H   UNL     1      -0.153  -5.626   3.699  0.00  0.00    +0.172 HD
ATOM      8  C   UNL     1       0.651  -4.137   2.610  0.00  0.00    +0.335 A 
ATOM      9  O   UNL     1       0.132  -4.482   1.566  0.00  0.00    -0.246 OA
ENDROOT
BRANCH   5  10
ATOM     10  N   UNL     1       0.759  -5.189   6.062  0.00  0.00    -0.313 N 
ATOM     11  C   UNL     1       0.789  -4.536   7.379  0.00  0.00    +0.125 C 
ATOM     12  C   UNL     1      -0.544  -4.803   8.089  0.00  0.00    +0.127 C 
ATOM     13  N   UNL     1      -0.834  -6.242   8.018  0.00  0.00    -0.292 N 
ATOM     14  C   UNL     1      -0.864  -6.895   6.702  0.00  0.00    +0.127 C 
ATOM     15  C   UNL     1       0.464  -6.627   5.992  0.00  0.00    +0.125 C 
ATOM     16  C   UNL     1      -1.067  -6.950   9.141  0.00  0.00    +0.282 C 
ATOM     17  O   UNL     1      -1.173  -8.161   9.085  0.00  0.00    -0.267 OA
BRANCH  16  18
ATOM     18  C   UNL     1      -1.193  -6.261  10.430  0.00  0.00    +0.189 A 
ATOM     19  C   UNL     1      -1.286  -6.860  11.653  0.00  0.00    +0.054 A 
ATOM     20  C   UNL     1      -1.389  -5.829  12.600  0.00  0.00    +0.042 A 
ATOM     21  C   UNL     1      -1.355  -4.661  11.921  0.00  0.00    +0.196 A 
ATOM     22  O   UNL     1      -1.232  -4.926  10.614  0.00  0.00    -0.458 OA
ENDBRANCH  16  18
ENDBRANCH   5  10
BRANCH   1  28
ATOM     23  C   UNL     1       4.509  -1.659  -0.965  0.00  0.00    +0.044 C 
ATOM     24  C   UNL     1       3.147  -1.646  -0.319  0.00  0.00    -0.048 A 
ATOM     25  C   UNL     1       2.116  -0.926  -0.896  0.00  0.00    +0.003 A 
ATOM     26  C   UNL     1       0.866  -0.911  -0.307  0.00  0.00    +0.002 A 
ATOM     27  C   UNL     1       0.642  -1.616   0.860  0.00  0.00    +0.026 A 
ATOM     28  C   UNL     1       1.674  -2.339   1.441  0.00  0.00    +0.055 A 
ATOM     29  C   UNL     1       2.928  -2.357   0.844  0.00  0.00    +0.029 A 
ENDBRANCH   1  28
TORSDOF 3
