REMARK  Name = ZINC28289481
REMARK  9 active torsions:
REMARK  status: ('A' for Active; 'I' for Inactive)
REMARK    1  A    between atoms: C_1  and  C_2
REMARK    2  A    between atoms: C_2  and  C_3
REMARK    3  A    between atoms: C_12  and  C_14
REMARK    4  A    between atoms: N_16  and  C_17
REMARK    5  A    between atoms: C_17  and  C_18
REMARK    6  A    between atoms: C_18  and  C_20
REMARK    7  A    between atoms: C_18  and  N_27
REMARK    8  A    between atoms: N_27  and  C_28
REMARK    9  A    between atoms: N_27  and  C_29
REMARK                            x       y       z     vdW  Elec       q    Type
REMARK                         _______ _______ _______ _____ _____    ______ ____
ROOT
ATOM      1  C   UNL     1      -2.092   0.511  -1.085  0.00  0.00    +0.279 C 
ATOM      2  O   UNL     1      -1.203  -0.213  -1.488  0.00  0.00    -0.267 OA
ATOM      3  N   UNL     1      -1.884   1.300  -0.012  0.00  0.00    -0.310 N 
ATOM      4  H   UNL     1      -2.689   1.955   0.353  0.00  0.00    +0.149 HD
ENDROOT
BRANCH   1  14
ATOM      5  C   UNL     1      -8.111   1.582  -3.026  0.00  0.00    -0.047 A 
ATOM      6  C   UNL     1      -7.798   2.355  -1.916  0.00  0.00    +0.007 A 
ATOM      7  C   UNL     1      -6.551   2.280  -1.335  0.00  0.00    +0.047 A 
ATOM      8  C   UNL     1      -5.591   1.422  -1.863  0.00  0.00    +0.139 A 
ATOM      9  C   UNL     1      -5.915   0.643  -2.987  0.00  0.00    +0.064 A 
ATOM     10  C   UNL     1      -7.183   0.732  -3.561  0.00  0.00    +0.019 A 
ATOM     11  C   UNL     1      -4.886  -0.261  -3.534  0.00  0.00    +0.193 A 
ATOM     12  O   UNL     1      -5.104  -0.962  -4.506  0.00  0.00    -0.287 OA
ATOM     13  C   UNL     1      -3.584  -0.276  -2.849  0.00  0.00    +0.103 A 
ATOM     14  C   UNL     1      -3.404   0.527  -1.774  0.00  0.00    +0.193 A 
ATOM     15  O   UNL     1      -4.369   1.332  -1.304  0.00  0.00    -0.450 OA
BRANCH   5  17
ATOM     16  C   UNL     1      -9.478   2.770  -4.720  0.00  0.00    +0.009 C 
ATOM     17  C   UNL     1      -9.481   1.681  -3.645  0.00  0.00    +0.032 C 
ENDBRANCH   5  17
ENDBRANCH   1  14
BRANCH   3  18
ATOM     18  C   UNL     1      -0.587   1.284   0.669  0.00  0.00    +0.094 C 
BRANCH  18  19
ATOM     19  C   UNL     1      -0.519   2.444   1.664  0.00  0.00    -0.020 C 
BRANCH  19  20
ATOM     20  C   UNL     1       0.753   2.345   2.465  0.00  0.00    -0.041 A 
ATOM     21  C   UNL     1       1.812   3.190   2.190  0.00  0.00    +0.003 A 
ATOM     22  C   UNL     1       2.977   3.102   2.928  0.00  0.00    +0.000 A 
ATOM     23  C   UNL     1       3.088   2.161   3.936  0.00  0.00    +0.001 A 
ATOM     24  C   UNL     1       2.032   1.312   4.208  0.00  0.00    +0.020 A 
ATOM     25  C   UNL     1       0.864   1.403   3.473  0.00  0.00    +0.043 A 
ATOM     26 CL   UNL     1      -0.463   0.337   3.814  0.00  0.00    -0.083 Cl
ENDBRANCH  19  20
BRANCH  19  27
ATOM     27  N   UNL     1      -0.538   3.718   0.932  0.00  0.00    +0.382 N 
ATOM     28  C   UNL     1       0.259   3.631  -0.299  0.00  0.00    -0.096 C 
ATOM     29  C   UNL     1      -1.916   4.136   0.639  0.00  0.00    -0.096 C 
ATOM     30  H   UNL     1      -0.083   4.485   1.576  0.00  0.00    -0.082 HD
ENDBRANCH  19  27
ENDBRANCH  18  19
ENDBRANCH   3  18
TORSDOF 6
