REMARK  Name = ZINC12885759
REMARK  7 active torsions:
REMARK  status: ('A' for Active; 'I' for Inactive)
REMARK    1  A    between atoms: C_1  and  C_2
REMARK    2  A    between atoms: C_17  and  C_19
REMARK    3  A    between atoms: C_19  and  C_21
REMARK    4  A    between atoms: C_19  and  O_22
REMARK    5  A    between atoms: N_25  and  C_28
REMARK    6  A    between atoms: C_28  and  C_29
REMARK    7  A    between atoms: C_29  and  C_30
REMARK                            x       y       z     vdW  Elec       q    Type
REMARK                         _______ _______ _______ _____ _____    ______ ____
ROOT
ATOM      1  C   UNL     1       2.395  -0.860   4.912  0.00  0.00    +0.044 C 
ATOM      2  C   UNL     1       2.677   0.408   4.146  0.00  0.00    -0.049 A 
ATOM      3  C   UNL     1       1.857   0.779   3.095  0.00  0.00    +0.008 A 
ATOM      4  C   UNL     1       2.115   1.937   2.396  0.00  0.00    -0.026 A 
ATOM      5  C   UNL     1       3.195   2.746   2.736  0.00  0.00    +0.054 A 
ATOM      6  C   UNL     1       4.016   2.364   3.796  0.00  0.00    +0.063 A 
ATOM      7  C   UNL     1       3.754   1.202   4.493  0.00  0.00    +0.025 A 
ATOM      8 CL   UNL     1       5.371   3.354   4.240  0.00  0.00    -0.082 Cl
ATOM      9  N   UNL     1       3.250   3.858   1.893  0.00  0.00    -0.285 N 
ATOM     10  C   UNL     1       2.256   3.856   0.984  0.00  0.00    +0.211 C 
ATOM     11  O   UNL     1       2.055   4.692   0.129  0.00  0.00    -0.277 OA
ATOM     12  C   UNL     1       1.445   2.615   1.234  0.00  0.00    +0.050 C 
ATOM     13  C   UNL     1       1.412   1.708  -0.002  0.00  0.00    +0.088 C 
ATOM     14  C   UNL     1      -0.013   1.086   0.008  0.00  0.00    +0.075 C 
ATOM     15  C   UNL     1      -0.689   1.663   1.270  0.00  0.00    -0.028 C 
ATOM     16  C   UNL     1      -0.656   1.666  -1.231  0.00  0.00    +0.224 C 
ATOM     17  O   UNL     1      -1.789   1.444  -1.601  0.00  0.00    -0.275 OA
ATOM     18  N   UNL     1       0.219   2.463  -1.854  0.00  0.00    -0.241 N 
ATOM     19  C   UNL     1       1.411   2.557  -1.254  0.00  0.00    +0.225 C 
ATOM     20  O   UNL     1       2.345   3.220  -1.651  0.00  0.00    -0.275 OA
ATOM     21  H   UNL     1       3.926   4.552   1.955  0.00  0.00    +0.155 HD
ATOM     22  N   UNL     1       0.053   2.906   1.523  0.00  0.00    +0.396 N 
ATOM     23  H   UNL     1      -0.288   3.655   0.909  0.00  0.00    -0.083 HD
ATOM     24  H   UNL     1      -0.055   3.191   2.503  0.00  0.00    -0.083 HD
ENDROOT
BRANCH  15  25
ATOM     25  C   UNL     1      -2.165   1.956   0.996  0.00  0.00    +0.098 C 
ATOM     26  C   UNL     1      -2.814   2.526   2.258  0.00  0.00    +0.036 C 
BRANCH  25  27
ATOM     27  O   UNL     1      -2.829   0.747   0.623  0.00  0.00    -0.394 OA
ATOM     28  H   UNL     1      -3.771   0.858   0.434  0.00  0.00    +0.210 HD
ENDBRANCH  25  27
ENDBRANCH  15  25
BRANCH  18  29
ATOM     29  C   UNL     1      -0.102   3.175  -3.094  0.00  0.00    +0.121 C 
BRANCH  29  30
ATOM     30  C   UNL     1       0.262   2.299  -4.294  0.00  0.00    +0.054 C 
BRANCH  30  31
ATOM     31  C   UNL     1      -0.068   3.032  -5.569  0.00  0.00    -0.046 A 
ATOM     32  C   UNL     1      -1.316   2.889  -6.145  0.00  0.00    +0.004 A 
ATOM     33  C   UNL     1      -1.621   3.565  -7.312  0.00  0.00    +0.000 A 
ATOM     34  C   UNL     1      -0.673   4.375  -7.909  0.00  0.00    +0.000 A 
ATOM     35  C   UNL     1       0.578   4.513  -7.336  0.00  0.00    +0.000 A 
ATOM     36  C   UNL     1       0.880   3.841  -6.166  0.00  0.00    +0.004 A 
ENDBRANCH  30  31
ENDBRANCH  29  30
ENDBRANCH  18  29
TORSDOF 5
