REMARK  Name = ZINC22796084
REMARK  9 active torsions:
REMARK  status: ('A' for Active; 'I' for Inactive)
REMARK    1  A    between atoms: C_1  and  C_2
REMARK    2  A    between atoms: C_2  and  C_3
REMARK    3  A    between atoms: C_6  and  N_9
REMARK    4  A    between atoms: C_10  and  C_12
REMARK    5  A    between atoms: N_14  and  C_15
REMARK    6  A    between atoms: C_15  and  C_16
REMARK    7  A    between atoms: C_16  and  C_18
REMARK    8  A    between atoms: C_16  and  N_25
REMARK    9  A    between atoms: N_28  and  C_31
REMARK                            x       y       z     vdW  Elec       q    Type
REMARK                         _______ _______ _______ _____ _____    ______ ____
ROOT
ATOM      1  C   UNL     1      -3.410   6.202   8.520  0.00  0.00    +0.128 C 
ENDROOT
BRANCH   1   4
ATOM      2  C   UNL     1      -3.699   4.627   6.684  0.00  0.00    +0.299 C 
ATOM      3  O   UNL     1      -4.692   4.206   7.241  0.00  0.00    -0.265 OA
ATOM      4  N   UNL     1      -2.986   5.625   7.242  0.00  0.00    -0.306 N 
ATOM      5  H   UNL     1      -2.086   6.007   6.738  0.00  0.00    +0.149 HD
BRANCH   2   7
ATOM      6  N   UNL     1      -3.980   3.040   4.823  0.00  0.00    -0.278 N 
ATOM      7  C   UNL     1      -3.267   4.039   5.381  0.00  0.00    +0.303 C 
ATOM      8  O   UNL     1      -2.274   4.460   4.824  0.00  0.00    -0.265 OA
ATOM      9  H   UNL     1      -4.926   2.718   5.281  0.00  0.00    +0.155 HD
BRANCH   6  13
ATOM     10  C   UNL     1      -2.598   1.176   1.365  0.00  0.00    -0.048 A 
ATOM     11  C   UNL     1      -1.699   1.607   2.323  0.00  0.00    +0.005 A 
ATOM     12  C   UNL     1      -2.153   2.230   3.469  0.00  0.00    +0.023 A 
ATOM     13  C   UNL     1      -3.516   2.414   3.663  0.00  0.00    +0.034 A 
ATOM     14  C   UNL     1      -4.418   1.976   2.701  0.00  0.00    +0.023 A 
ATOM     15  C   UNL     1      -3.956   1.358   1.555  0.00  0.00    +0.005 A 
BRANCH  10  17
ATOM     16  C   UNL     1      -1.850   1.554  -0.969  0.00  0.00    +0.009 C 
ATOM     17  C   UNL     1      -2.099   0.502   0.114  0.00  0.00    +0.032 C 
ENDBRANCH  10  17
ENDBRANCH   6  13
ENDBRANCH   2   7
ENDBRANCH   1   4
BRANCH   1  18
ATOM     18  C   UNL     1      -2.436   7.309   8.928  0.00  0.00    +0.104 C 
BRANCH  18  19
ATOM     19  N   UNL     1      -1.068   6.774   8.952  0.00  0.00    -0.297 NA
ATOM     20  C   UNL     1      -0.959   5.650   9.893  0.00  0.00    +0.066 C 
ATOM     21  C   UNL     1       0.457   5.071   9.830  0.00  0.00    -0.064 C 
ATOM     22  N   UNL     1       1.429   6.123  10.156  0.00  0.00    +0.379 N 
ATOM     23  C   UNL     1       1.320   7.247   9.215  0.00  0.00    -0.064 C 
ATOM     24  C   UNL     1      -0.096   7.826   9.278  0.00  0.00    +0.066 C 
ATOM     25  C   UNL     1       2.796   5.588  10.179  0.00  0.00    -0.096 C 
ATOM     26  H   UNL     1       1.197   6.500  11.163  0.00  0.00    -0.082 HD
ENDBRANCH  18  19
BRANCH  18  27
ATOM     27  C   UNL     1      -2.799   7.819  10.299  0.00  0.00    -0.029 A 
ATOM     28  C   UNL     1      -3.013   6.927  11.333  0.00  0.00    +0.008 A 
ATOM     29  C   UNL     1      -3.341   7.393  12.592  0.00  0.00    +0.038 A 
ATOM     30  C   UNL     1      -3.467   8.754  12.814  0.00  0.00    +0.123 A 
ATOM     31  C   UNL     1      -3.259   9.646  11.776  0.00  0.00    +0.038 A 
ATOM     32  C   UNL     1      -2.925   9.178  10.520  0.00  0.00    +0.008 A 
ATOM     33  F   UNL     1      -3.795   9.211  14.043  0.00  0.00    -0.205 F 
ENDBRANCH  18  27
ENDBRANCH   1  18
TORSDOF 7
