REMARK  Name = ZINC18200647
REMARK  3 active torsions:
REMARK  status: ('A' for Active; 'I' for Inactive)
REMARK    1  A    between atoms: C_3  and  C_6
REMARK    2  A    between atoms: C_11  and  C_20
REMARK    3  A    between atoms: C_23  and  C_26
REMARK                            x       y       z     vdW  Elec       q    Type
REMARK                         _______ _______ _______ _____ _____    ______ ____
ROOT
ATOM      1  C   UNL     1       4.192   2.557   3.629  0.00  0.00    +0.068 C 
ATOM      2  C   UNL     1       5.134   2.559   2.424  0.00  0.00    +0.063 C 
ATOM      3  C   UNL     1       4.360   2.221   1.173  0.00  0.00    +0.020 C 
ATOM      4  C   UNL     1       3.282   1.408   1.222  0.00  0.00    +0.041 C 
ATOM      5  C   UNL     1       2.490   1.048  -0.016  0.00  0.00    +0.175 C 
ATOM      6  N   UNL     1       3.237   1.417  -1.212  0.00  0.00    -0.219 N 
ATOM      7  C   UNL     1       4.319   2.234  -1.193  0.00  0.00    +0.220 A 
ATOM      8  N   UNL     1       4.746   2.370  -2.419  0.00  0.00    -0.180 NA
ATOM      9  C   UNL     1       3.970   1.655  -3.245  0.00  0.00    +0.233 A 
ATOM     10  N   UNL     1       3.033   1.055  -2.542  0.00  0.00    -0.132 NA
ATOM     11  N   UNL     1       4.129   1.562  -4.629  0.00  0.00    -0.326 N 
ATOM     12  N   UNL     1       4.801   2.767  -0.009  0.00  0.00    -0.287 N 
ATOM     13  C   UNL     1       2.848   0.859   2.442  0.00  0.00    +0.164 C 
ATOM     14  O   UNL     1       1.886   0.117   2.450  0.00  0.00    -0.292 OA
ATOM     15  C   UNL     1       3.547   1.171   3.735  0.00  0.00    +0.091 C 
ATOM     16  H   UNL     1       3.518   1.019  -5.152  0.00  0.00    +0.145 HD
ATOM     17  H   UNL     1       4.851   2.039  -5.067  0.00  0.00    +0.145 HD
ATOM     18  H   UNL     1       5.431   3.505  -0.013  0.00  0.00    +0.155 HD
ENDROOT
BRANCH   5  19
ATOM     19  C   UNL     1       1.175   1.783   0.000  0.00  0.00    -0.018 A 
ATOM     20  C   UNL     1      -0.013   1.076   0.008  0.00  0.00    +0.006 A 
ATOM     21  C   UNL     1      -1.219   1.751   0.017  0.00  0.00    +0.013 A 
ATOM     22  C   UNL     1      -1.238   3.133   0.029  0.00  0.00    +0.055 A 
ATOM     23  C   UNL     1      -0.050   3.840   0.022  0.00  0.00    +0.013 A 
ATOM     24  C   UNL     1       1.156   3.165   0.008  0.00  0.00    +0.006 A 
BRANCH  22  25
ATOM     25  C   UNL     1      -2.553   3.869   0.045  0.00  0.00    +0.417 C 
ATOM     26  F   UNL     1      -2.972   4.103  -1.268  0.00  0.00    -0.166 F 
ATOM     27  F   UNL     1      -3.511   3.096   0.710  0.00  0.00    -0.166 F 
ATOM     28  F   UNL     1      -2.396   5.090   0.710  0.00  0.00    -0.166 F 
ENDBRANCH  22  25
ENDBRANCH   5  19
BRANCH   1  31
ATOM     29  C   UNL     1       5.708   3.773   6.761  0.00  0.00    +0.041 A 
ATOM     30  C   UNL     1       4.752   3.879   5.725  0.00  0.00    +0.045 A 
ATOM     31  C   UNL     1       4.972   2.852   4.885  0.00  0.00    +0.109 A 
ATOM     32  O   UNL     1       6.001   2.130   5.358  0.00  0.00    -0.468 OA
ATOM     33  C   UNL     1       6.454   2.687   6.493  0.00  0.00    +0.195 A 
ENDBRANCH   1  31
TORSDOF 3
