REMARK  Name = ZINC47740309
REMARK  9 active torsions:
REMARK  status: ('A' for Active; 'I' for Inactive)
REMARK    1  A    between atoms: C_1  and  C_2
REMARK    2  A    between atoms: C_2  and  C_3
REMARK    3  A    between atoms: C_2  and  C_4
REMARK    4  A    between atoms: C_2  and  N_22
REMARK    5  A    between atoms: C_4  and  N_5
REMARK    6  A    between atoms: N_8  and  C_9
REMARK    7  A    between atoms: C_9  and  C_10
REMARK    8  A    between atoms: C_10  and  C_11
REMARK    9  A    between atoms: C_10  and  N_16
REMARK                            x       y       z     vdW  Elec       q    Type
REMARK                         _______ _______ _______ _____ _____    ______ ____
ROOT
ATOM      1  N   UNL     1      -0.993  -2.199   0.171  0.00  0.00    -0.301 N 
ATOM      2  C   UNL     1      -2.183  -2.696  -0.218  0.00  0.00    +0.300 C 
ATOM      3  O   UNL     1      -3.170  -1.986  -0.213  0.00  0.00    -0.253 OA
ATOM      4  N   UNL     1      -2.280  -3.981  -0.614  0.00  0.00    -0.298 N 
ATOM      5  H   UNL     1      -0.205  -2.765   0.168  0.00  0.00    +0.150 HD
ATOM      6  H   UNL     1      -1.493  -4.548  -0.618  0.00  0.00    +0.150 HD
ENDROOT
BRANCH   1   7
ATOM      7  C   UNL     1      -0.887  -0.802   0.601  0.00  0.00    +0.093 C 
BRANCH   7   9
ATOM      8  C   UNL     1       1.390  -0.561  -0.397  0.00  0.00    -0.008 C 
ATOM      9  C   UNL     1       0.576  -0.468   0.895  0.00  0.00    -0.055 C 
ATOM     10  C   UNL     1       0.672   0.952   1.456  0.00  0.00    -0.008 C 
BRANCH   9  11
ATOM     11  N   UNL     1       1.108  -1.420   1.879  0.00  0.00    +0.384 N 
ATOM     12  C   UNL     1       0.299  -1.361   3.102  0.00  0.00    -0.078 C 
ATOM     13  C   UNL     1       0.798  -2.409   4.099  0.00  0.00    -0.019 C 
ATOM     14  C   UNL     1       2.263  -2.122   4.441  0.00  0.00    -0.004 C 
ATOM     15  C   UNL     1       3.086  -2.113   3.149  0.00  0.00    -0.019 C 
ATOM     16  C   UNL     1       2.502  -1.077   2.187  0.00  0.00    -0.078 C 
ATOM     17  H   UNL     1       1.070  -2.353   1.497  0.00  0.00    -0.081 HD
ENDBRANCH   9  11
ENDBRANCH   7   9
ENDBRANCH   1   7
BRANCH   4  18
ATOM     18  C   UNL     1      -3.574  -4.521  -1.037  0.00  0.00    +0.130 C 
BRANCH  18  19
ATOM     19  C   UNL     1      -3.392  -5.964  -1.515  0.00  0.00    +0.111 C 
BRANCH  19  20
ATOM     20  N   UNL     1      -2.352  -6.009  -2.552  0.00  0.00    -0.289 NA
ATOM     21  C   UNL     1      -2.699  -5.138  -3.684  0.00  0.00    +0.113 C 
ATOM     22  C   UNL     1      -1.563  -5.168  -4.711  0.00  0.00    +0.175 C 
ATOM     23  O   UNL     1      -1.333  -6.520  -5.118  0.00  0.00    -0.377 OA
ATOM     24  C   UNL     1      -0.992  -7.396  -4.040  0.00  0.00    +0.175 C 
ATOM     25  C   UNL     1      -2.122  -7.388  -3.007  0.00  0.00    +0.113 C 
ENDBRANCH  19  20
BRANCH  19  26
ATOM     26  C   UNL     1      -2.981  -6.830  -0.353  0.00  0.00    +0.008 A 
ATOM     27  C   UNL     1      -3.739  -7.665   0.400  0.00  0.00    +0.013 A 
ATOM     28  C   UNL     1      -3.141  -8.369   1.428  0.00  0.00    +0.008 A 
ATOM     29  C   UNL     1      -1.814  -8.204   1.653  0.00  0.00    +0.045 A 
ATOM     30  S   UNL     1      -1.368  -7.029   0.386  0.00  0.00    -0.100 S 
ENDBRANCH  19  26
ENDBRANCH  18  19
ENDBRANCH   4  18
TORSDOF 7
