REMARK  Name = ZINC25797544
REMARK  8 active torsions:
REMARK  status: ('A' for Active; 'I' for Inactive)
REMARK    1  A    between atoms: C_1  and  O_2
REMARK    2  A    between atoms: O_2  and  C_3
REMARK    3  A    between atoms: C_7  and  C_14
REMARK    4  A    between atoms: C_14  and  N_15
REMARK    5  A    between atoms: N_18  and  C_21
REMARK    6  A    between atoms: C_21  and  C_22
REMARK    7  A    between atoms: C_25  and  O_29
REMARK    8  A    between atoms: O_29  and  C_30
REMARK                            x       y       z     vdW  Elec       q    Type
REMARK                         _______ _______ _______ _____ _____    ______ ____
ROOT
ATOM      1  N   UNL     1      -1.415   8.062  -0.357  0.00  0.00    +0.384 N 
ATOM      2  C   UNL     1      -1.484   6.735  -0.985  0.00  0.00    -0.063 C 
ATOM      3  C   UNL     1      -2.456   6.783  -2.166  0.00  0.00    +0.066 C 
ATOM      4  N   UNL     1      -2.003   7.796  -3.130  0.00  0.00    -0.302 NA
ATOM      5  C   UNL     1      -1.934   9.123  -2.501  0.00  0.00    +0.066 C 
ATOM      6  C   UNL     1      -0.962   9.075  -1.320  0.00  0.00    -0.063 C 
ATOM      7  H   UNL     1      -2.428   8.335  -0.028  0.00  0.00    -0.081 HD
ENDROOT
BRANCH   1   8
ATOM      8  C   UNL     1      -0.548   8.039   0.829  0.00  0.00    -0.042 C 
BRANCH   8  13
ATOM      9  C   UNL     1      -4.431   9.021   4.113  0.00  0.00    +0.124 A 
ATOM     10  C   UNL     1      -3.821   9.741   3.087  0.00  0.00    +0.046 A 
ATOM     11  C   UNL     1      -2.787   9.196   2.382  0.00  0.00    +0.015 A 
ATOM     12  C   UNL     1      -2.343   7.904   2.684  0.00  0.00    +0.019 A 
ATOM     13  C   UNL     1      -1.239   7.293   1.942  0.00  0.00    -0.047 A 
ATOM     14  C   UNL     1      -0.855   6.035   2.282  0.00  0.00    +0.094 A 
ATOM     15  C   UNL     1      -1.517   5.358   3.326  0.00  0.00    +0.337 A 
ATOM     16  O   UNL     1      -1.162   4.231   3.622  0.00  0.00    -0.245 OA
ATOM     17  O   UNL     1      -2.529   5.924   4.004  0.00  0.00    -0.422 OA
ATOM     18  C   UNL     1      -2.959   7.170   3.715  0.00  0.00    +0.143 A 
ATOM     19  C   UNL     1      -4.006   7.741   4.425  0.00  0.00    +0.092 A 
BRANCH   9  21
ATOM     20  C   UNL     1      -5.848  10.902   4.437  0.00  0.00    +0.277 C 
ATOM     21  O   UNL     1      -5.456   9.578   4.808  0.00  0.00    -0.495 OA
ENDBRANCH   9  21
ENDBRANCH   8  13
ENDBRANCH   1   8
BRANCH   4  22
ATOM     22  C   UNL     1      -2.870   7.820  -4.316  0.00  0.00    +0.119 C 
BRANCH  22  23
ATOM     23  C   UNL     1      -2.725   6.523  -5.069  0.00  0.00    -0.030 A 
ATOM     24  C   UNL     1      -1.770   6.404  -6.061  0.00  0.00    +0.008 A 
ATOM     25  C   UNL     1      -1.631   5.215  -6.751  0.00  0.00    +0.049 A 
ATOM     26  C   UNL     1      -2.458   4.142  -6.456  0.00  0.00    +0.155 A 
ATOM     27  C   UNL     1      -3.421   4.264  -5.462  0.00  0.00    +0.165 A 
ATOM     28  C   UNL     1      -3.552   5.455  -4.771  0.00  0.00    +0.047 A 
ATOM     29  F   UNL     1      -4.229   3.221  -5.171  0.00  0.00    -0.202 F 
BRANCH  26  30
ATOM     30  O   UNL     1      -2.327   2.973  -7.137  0.00  0.00    -0.492 OA
ATOM     31  C   UNL     1      -1.316   2.919  -8.145  0.00  0.00    +0.277 C 
ENDBRANCH  26  30
ENDBRANCH  22  23
ENDBRANCH   4  22
TORSDOF 6
