REMARK  Name = ZINC48735935
REMARK  7 active torsions:
REMARK  status: ('A' for Active; 'I' for Inactive)
REMARK    1  A    between atoms: C_1  and  C_2
REMARK    2  A    between atoms: C_5  and  C_10
REMARK    3  A    between atoms: C_6  and  O_9
REMARK    4  A    between atoms: C_7  and  C_8
REMARK    5  A    between atoms: C_15  and  C_18
REMARK    6  A    between atoms: C_18  and  O_20
REMARK    7  A    between atoms: O_20  and  C_21
REMARK                            x       y       z     vdW  Elec       q    Type
REMARK                         _______ _______ _______ _____ _____    ______ ____
ROOT
ATOM      1  C   UNL     1       0.059  -4.252  -0.036  0.00  0.00    +0.250 C 
ATOM      2  O   UNL     1       0.161  -4.869   1.007  0.00  0.00    -0.270 OA
ATOM      3  N   UNL     1      -0.040  -4.917  -1.204  0.00  0.00    -0.297 N 
ATOM      4  C   UNL     1      -0.061  -4.303  -2.540  0.00  0.00    +0.109 C 
ATOM      5  C   UNL     1      -0.211  -5.445  -3.567  0.00  0.00    +0.035 C 
ATOM      6  C   UNL     1      -0.835  -6.590  -2.725  0.00  0.00    +0.116 C 
ATOM      7  C   UNL     1      -0.138  -6.380  -1.355  0.00  0.00    +0.122 C 
ENDROOT
BRANCH   1  12
ATOM      8  C   UNL     1      -0.000   1.503   0.010  0.00  0.00    +0.044 C 
ATOM      9  C   UNL     1       0.013  -0.004   0.001  0.00  0.00    -0.044 A 
ATOM     10  C   UNL     1       0.822  -0.680  -0.898  0.00  0.00    +0.004 A 
ATOM     11  C   UNL     1       0.842  -2.058  -0.915  0.00  0.00    +0.017 A 
ATOM     12  C   UNL     1       0.043  -2.777  -0.023  0.00  0.00    +0.078 A 
ATOM     13  C   UNL     1      -0.774  -2.090   0.884  0.00  0.00    +0.132 A 
ATOM     14  C   UNL     1      -0.777  -0.702   0.892  0.00  0.00    -0.005 A 
ATOM     15  C   UNL     1      -1.649   0.043   1.869  0.00  0.00    +0.048 C 
BRANCH  13  16
ATOM     16  O   UNL     1      -1.554  -2.777   1.755  0.00  0.00    -0.506 OA
ATOM     17  H   UNL     1      -1.124  -2.975   2.598  0.00  0.00    +0.292 HD
ENDBRANCH  13  16
ENDBRANCH   1  12
BRANCH   6  18
ATOM     18  C   UNL     1      -0.489  -7.937  -3.305  0.00  0.00    +0.312 C 
ATOM     19  O   UNL     1       0.192  -8.010  -4.300  0.00  0.00    -0.250 OA
BRANCH  18  20
ATOM     20  O   UNL     1      -0.938  -9.056  -2.716  0.00  0.00    -0.468 OA
ATOM     21  C   UNL     1      -0.572 -10.299  -3.319  0.00  0.00    +0.280 C 
ENDBRANCH  18  20
ENDBRANCH   6  18
TORSDOF 4
