REMARK  Name = ZINC13914879
REMARK  6 active torsions:
REMARK  status: ('A' for Active; 'I' for Inactive)
REMARK    1  A    between atoms: C_1  and  C_2
REMARK    2  A    between atoms: C_2  and  O_3
REMARK    3  A    between atoms: O_3  and  C_4
REMARK    4  A    between atoms: C_6  and  C_12
REMARK    5  A    between atoms: C_9  and  O_10
REMARK    6  A    between atoms: N_13  and  O_14
REMARK                            x       y       z     vdW  Elec       q    Type
REMARK                         _______ _______ _______ _____ _____    ______ ____
ROOT
ATOM      1  C   UNL     1       0.777  -1.811  -1.336  0.00  0.00    +0.163 A 
ATOM      2  C   UNL     1       0.244  -2.666  -0.389  0.00  0.00    +0.059 A 
ATOM      3  C   UNL     1       0.354  -4.048  -0.559  0.00  0.00    +0.001 A 
ATOM      4  C   UNL     1       1.002  -4.560  -1.686  0.00  0.00    +0.027 A 
ATOM      5  C   UNL     1       1.531  -3.702  -2.627  0.00  0.00    +0.059 A 
ATOM      6  C   UNL     1       1.417  -2.329  -2.460  0.00  0.00    +0.172 A 
ATOM      7  I   UNL     1       2.503  -4.473  -4.315  0.00  0.00    -0.040 I 
ENDROOT
BRANCH   6   8
ATOM      8  O   UNL     1       1.935  -1.487  -3.393  0.00  0.00    -0.503 OA
ATOM      9  H   UNL     1       2.855  -1.236  -3.228  0.00  0.00    +0.292 HD
ENDBRANCH   6   8
BRANCH   3  10
ATOM     10  C   UNL     1      -0.212  -4.964   0.449  0.00  0.00    +0.160 C 
ATOM     11  N   UNL     1      -0.109  -6.244   0.290  0.00  0.00    -0.095 NA
BRANCH  11  12
ATOM     12  O   UNL     1      -0.653  -7.123   1.257  0.00  0.00    -0.409 OA
ATOM     13  H   UNL     1      -0.527  -8.060   1.052  0.00  0.00    +0.328 HD
ENDBRANCH  11  12
ENDBRANCH   3  10
BRANCH   1  14
ATOM     14  O   UNL     1       0.671  -0.465  -1.174  0.00  0.00    -0.489 OA
BRANCH  14  16
ATOM     15  C   UNL     1      -0.019   1.526   0.010  0.00  0.00    +0.048 C 
ATOM     16  C   UNL     1       0.002  -0.004   0.002  0.00  0.00    +0.226 C 
ENDBRANCH  14  16
ENDBRANCH   1  14
TORSDOF 5
