REMARK  Name = ZINC52796648
REMARK  7 active torsions:
REMARK  status: ('A' for Active; 'I' for Inactive)
REMARK    1  A    between atoms: C_1  and  C_2
REMARK    2  A    between atoms: C_7  and  N_12
REMARK    3  A    between atoms: C_9  and  C_11
REMARK    4  A    between atoms: C_13  and  C_15
REMARK    5  A    between atoms: C_15  and  N_16
REMARK    6  A    between atoms: C_19  and  C_23
REMARK    7  A    between atoms: C_19  and  C_24
REMARK                            x       y       z     vdW  Elec       q    Type
REMARK                         _______ _______ _______ _____ _____    ______ ____
ROOT
ATOM      1  N   UNL     1      -2.306  -5.644   2.320  0.00  0.00    -0.215 N 
ATOM      2  C   UNL     1      -2.157  -6.777   1.605  0.00  0.00    +0.251 C 
ATOM      3  O   UNL     1      -1.989  -6.870   0.408  0.00  0.00    -0.272 OA
ATOM      4  C   UNL     1      -2.244  -7.910   2.608  0.00  0.00    +0.135 C 
ATOM      5  N   UNL     1      -2.451  -7.220   3.893  0.00  0.00    -0.281 N 
ATOM      6  C   UNL     1      -2.468  -5.902   3.623  0.00  0.00    +0.310 C 
ATOM      7  O   UNL     1      -2.617  -5.041   4.468  0.00  0.00    -0.252 OA
ATOM      8  C   UNL     1      -3.431  -8.821   2.289  0.00  0.00    +0.047 C 
ATOM      9  H   UNL     1      -2.552  -7.634   4.764  0.00  0.00    +0.152 HD
ENDROOT
BRANCH   4  10
ATOM     10  C   UNL     1      -0.959  -8.697   2.630  0.00  0.00    -0.013 A 
ATOM     11  C   UNL     1      -0.187  -8.791   1.487  0.00  0.00    +0.009 A 
ATOM     12  C   UNL     1       0.992  -9.513   1.505  0.00  0.00    +0.041 A 
ATOM     13  C   UNL     1       1.400 -10.143   2.667  0.00  0.00    +0.158 A 
ATOM     14  C   UNL     1       0.625 -10.049   3.814  0.00  0.00    +0.159 A 
ATOM     15  C   UNL     1      -0.552  -9.322   3.794  0.00  0.00    +0.047 A 
ATOM     16  F   UNL     1       1.021 -10.664   4.950  0.00  0.00    -0.202 F 
ATOM     17  F   UNL     1       2.551 -10.849   2.686  0.00  0.00    -0.202 F 
ENDBRANCH   4  10
BRANCH   1  18
ATOM     18  C   UNL     1      -2.287  -4.298   1.743  0.00  0.00    +0.213 C 
BRANCH  18  20
ATOM     19  N   UNL     1      -0.612  -2.548   1.244  0.00  0.00    -0.311 N 
ATOM     20  C   UNL     1      -0.873  -3.776   1.733  0.00  0.00    +0.231 C 
ATOM     21  O   UNL     1       0.030  -4.462   2.164  0.00  0.00    -0.274 OA
ATOM     22  H   UNL     1      -1.333  -2.000   0.898  0.00  0.00    +0.149 HD
BRANCH  19  28
ATOM     23  C   UNL     1      -0.019   1.526   0.010  0.00  0.00    +0.008 C 
ATOM     24  C   UNL     1       0.002  -0.004   0.002  0.00  0.00    -0.009 C 
ATOM     25  C   UNL     1       0.718  -0.497  -1.257  0.00  0.00    +0.003 C 
ATOM     26  C   UNL     1       0.739  -2.027  -1.265  0.00  0.00    +0.002 C 
ATOM     27  C   UNL     1       1.479  -2.534  -0.026  0.00  0.00    +0.022 C 
ATOM     28  C   UNL     1       0.763  -2.041   1.233  0.00  0.00    +0.076 C 
ATOM     29  C   UNL     1       0.742  -0.511   1.242  0.00  0.00    +0.009 C 
ATOM     30  C   UNL     1       0.026  -0.018   2.500  0.00  0.00    +0.009 C 
ENDBRANCH  19  28
ENDBRANCH  18  20
ENDBRANCH   1  18
TORSDOF 4
