REMARK  Name = ZINC21778706
REMARK  0 active torsions:
REMARK  status: ('A' for Active; 'I' for Inactive)
REMARK                            x       y       z     vdW  Elec       q    Type
REMARK                         _______ _______ _______ _____ _____    ______ ____
ROOT
ATOM      1  C   UNL     1       2.357   5.461  -0.488  0.00  0.00    +0.005 A 
ATOM      2  C   UNL     1       1.163   6.139  -0.281  0.00  0.00    +0.018 A 
ATOM      3  C   UNL     1       0.013   5.421  -0.021  0.00  0.00    +0.084 A 
ATOM      4  N   UNL     1       0.036   4.102   0.026  0.00  0.00    -0.350 N 
ATOM      5  C   UNL     1       1.155   3.420  -0.160  0.00  0.00    +0.099 A 
ATOM      6  C   UNL     1       2.350   4.080  -0.426  0.00  0.00    +0.042 A 
ATOM      7  N   UNL     1       1.134   2.031  -0.095  0.00  0.00    -0.314 N 
ATOM      8  C   UNL     1      -0.220   1.538   0.195  0.00  0.00    +0.125 C 
ATOM      9  C   UNL     1      -0.216   0.007   0.179  0.00  0.00    +0.125 C 
ATOM     10  N   UNL     1       0.746  -0.488   1.173  0.00  0.00    -0.312 N 
ATOM     11  C   UNL     1       2.100   0.006   0.883  0.00  0.00    +0.125 C 
ATOM     12  C   UNL     1       2.096   1.536   0.899  0.00  0.00    +0.125 C 
ATOM     13  C   UNL     1       0.726  -1.867   1.238  0.00  0.00    +0.136 A 
ATOM     14  C   UNL     1       0.894  -2.534   2.466  0.00  0.00    +0.092 A 
ATOM     15  C   UNL     1       0.859  -3.942   2.471  0.00  0.00    +0.162 A 
ATOM     16  N   UNL     1       1.038  -4.331   3.765  0.00  0.00    -0.259 N 
ATOM     17  H   UNL     1       1.041  -5.401   4.023  0.00  0.00    +0.191 HD
ATOM     18  N   UNL     1       1.191  -3.183   4.552  0.00  0.00    -0.164 NA
ATOM     19  C   UNL     1       1.102  -2.121   3.801  0.00  0.00    +0.140 A 
ATOM     20 BR   UNL     1       1.230  -0.331   4.397  0.00  0.00    -0.026 Br
ATOM     21  N   UNL     1       0.679  -4.585   1.318  0.00  0.00    -0.216 NA
ATOM     22  C   UNL     1       0.531  -3.917   0.195  0.00  0.00    +0.225 A 
ATOM     23  N   UNL     1       0.552  -2.597   0.141  0.00  0.00    -0.220 NA
ATOM     24  H   UNL     1      -0.891   3.543   0.225  0.00  0.00    +0.166 HD
ENDROOT
TORSDOF 0
