REMARK  Name = ZINC07293842
REMARK  5 active torsions:
REMARK  status: ('A' for Active; 'I' for Inactive)
REMARK    1  A    between atoms: C_1  and  C_2
REMARK    2  A    between atoms: C_9  and  C_13
REMARK    3  A    between atoms: C_13  and  S_14
REMARK    4  A    between atoms: S_14  and  C_15
REMARK    5  A    between atoms: C_18  and  C_20
REMARK                            x       y       z     vdW  Elec       q    Type
REMARK                         _______ _______ _______ _____ _____    ______ ____
ROOT
ATOM      1  C   UNL     1      -0.018   1.503   0.010  0.00  0.00    +0.047 C 
ATOM      2  C   UNL     1       0.002  -0.004   0.002  0.00  0.00    -0.008 A 
ATOM      3  C   UNL     1       0.006  -0.685  -1.179  0.00  0.00    +0.008 A 
ATOM      4  C   UNL     1       0.025  -2.086  -1.169  0.00  0.00    +0.019 A 
ATOM      5  C   UNL     1       0.039  -2.757   0.005  0.00  0.00    +0.096 A 
ATOM      6  N   UNL     1       0.035  -2.087   1.190  0.00  0.00    -0.268 N 
ATOM      7  C   UNL     1       0.023  -0.720   1.213  0.00  0.00    +0.143 A 
ATOM      8  N   UNL     1       0.025  -0.056   2.368  0.00  0.00    -0.233 NA
ATOM      9  C   UNL     1       0.045  -0.693   3.528  0.00  0.00    +0.059 A 
ATOM     10  C   UNL     1       0.064  -2.074   3.559  0.00  0.00    +0.094 A 
ATOM     11  C   UNL     1       0.050  -2.779   2.349  0.00  0.00    +0.259 A 
ATOM     12  O   UNL     1       0.066  -3.999   2.343  0.00  0.00    -0.267 OA
ENDROOT
BRANCH   9  13
ATOM     13  C   UNL     1       0.047   0.089   4.816  0.00  0.00    +0.132 C 
BRANCH  13  14
ATOM     14  S   UNL     1       1.692   0.803   5.088  0.00  0.00    -0.091 S 
BRANCH  14  15
ATOM     15  C   UNL     1       1.533   1.673   6.611  0.00  0.00    +0.159 A 
ATOM     16  N   UNL     1       0.485   1.804   7.415  0.00  0.00    -0.135 NA
ATOM     17  N   UNL     1       0.546   2.473   8.482  0.00  0.00    -0.146 NA
ATOM     18  C   UNL     1       1.648   3.083   8.867  0.00  0.00    +0.100 A 
ATOM     19  S   UNL     1       2.741   2.630   7.523  0.00  0.00    -0.044 S 
ATOM     20  C   UNL     1       1.915   3.918  10.093  0.00  0.00    +0.075 C 
ENDBRANCH  14  15
ENDBRANCH  13  14
ENDBRANCH   9  13
TORSDOF 3
