REMARK  Name = ZINC40554304
REMARK  4 active torsions:
REMARK  status: ('A' for Active; 'I' for Inactive)
REMARK    1  A    between atoms: C_1  and  O_2
REMARK    2  A    between atoms: O_2  and  C_3
REMARK    3  A    between atoms: C_6  and  S_9
REMARK    4  A    between atoms: S_9  and  N_12
REMARK                            x       y       z     vdW  Elec       q    Type
REMARK                         _______ _______ _______ _____ _____    ______ ____
ROOT
ATOM      1  S   UNL     1      -5.207  -2.748   0.036  0.00  0.00    +0.061 S 
ATOM      2  O   UNL     1      -4.982  -4.040   0.584  0.00  0.00    -0.153 OA
ATOM      3  O   UNL     1      -6.142  -1.836   0.595  0.00  0.00    -0.153 OA
ENDROOT
BRANCH   1   4
ATOM      4  N   UNL     1      -5.651  -2.974  -1.542  0.00  0.00    -0.169 NA
ATOM      5  C   UNL     1      -6.438  -1.962  -2.265  0.00  0.00    +0.138 C 
ATOM      6  C   UNL     1      -5.738  -1.656  -3.594  0.00  0.00    +0.177 C 
ATOM      7  O   UNL     1      -5.479  -2.880  -4.288  0.00  0.00    -0.374 OA
ATOM      8  C   UNL     1      -4.611  -3.770  -3.587  0.00  0.00    +0.137 C 
ATOM      9  C   UNL     1      -5.268  -4.196  -2.276  0.00  0.00    +0.109 C 
ATOM     10  C   UNL     1      -6.540  -4.992  -2.580  0.00  0.00    +0.023 C 
ATOM     11  C   UNL     1      -6.193  -6.219  -3.424  0.00  0.00    +0.002 C 
ATOM     12  C   UNL     1      -5.566  -5.764  -4.744  0.00  0.00    +0.003 C 
ATOM     13  C   UNL     1      -4.304  -4.997  -4.439  0.00  0.00    +0.033 C 
ENDBRANCH   1   4
BRANCH   1  17
ATOM     14  C   UNL     1      -1.200  -0.637   0.010  0.00  0.00    +0.120 A 
ATOM     15  C   UNL     1      -2.375   0.101   0.019  0.00  0.00    +0.047 A 
ATOM     16  C   UNL     1      -3.596  -0.545   0.027  0.00  0.00    +0.032 A 
ATOM     17  C   UNL     1      -3.648  -1.927   0.026  0.00  0.00    +0.106 A 
ATOM     18  C   UNL     1      -2.479  -2.665   0.017  0.00  0.00    +0.032 A 
ATOM     19  C   UNL     1      -1.255  -2.024   0.003  0.00  0.00    +0.047 A 
BRANCH  14  21
ATOM     20  C   UNL     1      -0.017   1.425   0.010  0.00  0.00    +0.277 C 
ATOM     21  O   UNL     1       0.002  -0.004   0.002  0.00  0.00    -0.495 OA
ENDBRANCH  14  21
ENDBRANCH   1  17
TORSDOF 3
