REMARK  Name = ZINC06159135
REMARK  3 active torsions:
REMARK  status: ('A' for Active; 'I' for Inactive)
REMARK    1  A    between atoms: C_1  and  C_2
REMARK    2  A    between atoms: C_5  and  O_20
REMARK    3  A    between atoms: C_6  and  C_10
REMARK                            x       y       z     vdW  Elec       q    Type
REMARK                         _______ _______ _______ _____ _____    ______ ____
ROOT
ATOM      1  C   UNL     1      -2.037   1.994   1.239  0.00  0.00    +0.113 C 
ATOM      2  C   UNL     1      -1.323   1.736  -0.063  0.00  0.00    +0.232 C 
ATOM      3  O   UNL     1      -1.837   2.060  -1.108  0.00  0.00    -0.273 OA
ATOM      4  N   UNL     1      -0.112   1.146  -0.063  0.00  0.00    -0.238 N 
ATOM      5  C   UNL     1      -0.018  -0.198  -0.034  0.00  0.00    +0.215 A 
ATOM      6  C   UNL     1       1.248  -0.778  -0.041  0.00  0.00    +0.075 A 
ATOM      7  S   UNL     1       2.298   0.667  -0.089  0.00  0.00    -0.058 S 
ATOM      8  C   UNL     1       1.009   1.903  -0.097  0.00  0.00    +0.136 A 
ATOM      9  S   UNL     1       1.154   3.609  -0.137  0.00  0.00    -0.024 S 
ENDROOT
BRANCH   6  10
ATOM     10  C   UNL     1       1.603  -2.127  -0.015  0.00  0.00    +0.030 C 
ATOM     11  C   UNL     1       2.947  -2.494   0.094  0.00  0.00    +0.003 C 
ATOM     12  C   UNL     1       4.056  -1.645   0.305  0.00  0.00    +0.120 C 
ATOM     13  N   UNL     1       5.151  -2.361   0.353  0.00  0.00    -0.254 NA
ATOM     14  C   UNL     1       4.909  -3.679   0.181  0.00  0.00    +0.072 A 
ATOM     15  C   UNL     1       3.516  -3.850   0.008  0.00  0.00    +0.009 A 
ATOM     16  C   UNL     1       2.985  -5.120  -0.191  0.00  0.00    +0.010 A 
ATOM     17  C   UNL     1       3.823  -6.213  -0.218  0.00  0.00    +0.001 A 
ATOM     18  C   UNL     1       5.192  -6.054  -0.049  0.00  0.00    +0.002 A 
ATOM     19  C   UNL     1       5.738  -4.807   0.149  0.00  0.00    +0.028 A 
ENDBRANCH   6  10
BRANCH   5  20
ATOM     20  O   UNL     1      -1.128  -0.966   0.001  0.00  0.00    -0.492 OA
ATOM     21  H   UNL     1      -1.465  -1.209  -0.872  0.00  0.00    +0.294 HD
ENDBRANCH   5  20
TORSDOF 2
