REMARK  Name = ZINC02436535
REMARK  5 active torsions:
REMARK  status: ('A' for Active; 'I' for Inactive)
REMARK    1  A    between atoms: C_1  and  C_2
REMARK    2  A    between atoms: N_8  and  C_9
REMARK    3  A    between atoms: C_12  and  C_20
REMARK    4  A    between atoms: C_14  and  C_18
REMARK    5  A    between atoms: C_15  and  N_17
REMARK                            x       y       z     vdW  Elec       q    Type
REMARK                         _______ _______ _______ _____ _____    ______ ____
ROOT
ATOM      1  C   UNL     1      -6.876   0.477  -1.698  0.00  0.00    +0.064 C 
ATOM      2  C   UNL     1      -5.736   1.323  -1.193  0.00  0.00    +0.023 A 
ATOM      3  C   UNL     1      -4.579   0.731  -0.825  0.00  0.00    +0.068 A 
ATOM      4  C   UNL     1      -3.509   1.518  -0.352  0.00  0.00    +0.141 A 
ATOM      5  C   UNL     1      -3.669   2.885  -0.274  0.00  0.00    +0.072 A 
ATOM      6  C   UNL     1      -4.887   3.455  -0.666  0.00  0.00    +0.259 A 
ATOM      7  O   UNL     1      -5.043   4.665  -0.603  0.00  0.00    -0.267 OA
ATOM      8  N   UNL     1      -5.885   2.671  -1.115  0.00  0.00    -0.309 N 
ATOM      9  C   UNL     1      -2.555   3.762   0.227  0.00  0.00    +0.103 C 
ATOM     10  C   UNL     1      -1.254   3.009   0.210  0.00  0.00    +0.098 C 
ATOM     11  C   UNL     1      -1.226   1.659   0.103  0.00  0.00    +0.199 C 
ATOM     12  O   UNL     1      -2.351   0.929   0.015  0.00  0.00    -0.441 OA
ENDROOT
BRANCH   9  13
ATOM     13  C   UNL     1      -2.855   4.194   1.639  0.00  0.00    -0.034 A 
ATOM     14  C   UNL     1      -3.015   3.246   2.633  0.00  0.00    +0.004 A 
ATOM     15  C   UNL     1      -3.286   3.642   3.929  0.00  0.00    +0.000 A 
ATOM     16  C   UNL     1      -3.406   4.986   4.230  0.00  0.00    +0.000 A 
ATOM     17  C   UNL     1      -3.252   5.934   3.236  0.00  0.00    +0.000 A 
ATOM     18  C   UNL     1      -2.976   5.538   1.940  0.00  0.00    +0.004 A 
ENDBRANCH   9  13
BRANCH   8  19
ATOM     19  C   UNL     1      -7.153   3.281  -1.523  0.00  0.00    +0.091 C 
ATOM     20  C   UNL     1      -7.768   4.326  -0.590  0.00  0.00    +0.027 C 
ATOM     21  C   UNL     1      -8.399   2.936  -0.706  0.00  0.00    +0.027 C 
ENDBRANCH   8  19
BRANCH  11  22
ATOM     22  N   UNL     1      -0.012   1.017   0.088  0.00  0.00    -0.328 N 
ATOM     23  H   UNL     1       0.024   0.051   0.015  0.00  0.00    +0.145 HD
ATOM     24  H   UNL     1       0.809   1.531   0.146  0.00  0.00    +0.145 HD
ENDBRANCH  11  22
BRANCH  10  25
ATOM     25  C   UNL     1      -0.021   3.732   0.305  0.00  0.00    +0.101 C 
ATOM     26  N   UNL     1       0.956   4.305   0.380  0.00  0.00    -0.191 NA
ENDBRANCH  10  25
TORSDOF 4
