REMARK  Name = ZINC46743582
REMARK  3 active torsions:
REMARK  status: ('A' for Active; 'I' for Inactive)
REMARK    1  A    between atoms: C_2  and  N_12
REMARK    2  A    between atoms: C_13  and  C_15
REMARK    3  A    between atoms: N_17  and  C_22
REMARK                            x       y       z     vdW  Elec       q    Type
REMARK                         _______ _______ _______ _____ _____    ______ ____
ROOT
ATOM      1  N   UNL     1       1.156   3.493   0.010  0.00  0.00    -0.279 N 
ATOM      2  C   UNL     1      -0.017   4.152  -0.077  0.00  0.00    +0.264 C 
ATOM      3  O   UNL     1      -1.064   3.532  -0.071  0.00  0.00    -0.268 OA
ATOM      4  H   UNL     1       1.988   3.989   0.070  0.00  0.00    +0.155 HD
ENDROOT
BRANCH   1   6
ATOM      5  C   UNL     1       0.148   1.386   0.624  0.00  0.00    +0.074 A 
ATOM      6  C   UNL     1       1.175   2.093   0.013  0.00  0.00    +0.056 A 
ATOM      7  C   UNL     1       2.220   1.410  -0.596  0.00  0.00    +0.066 A 
ATOM      8  C   UNL     1       2.236   0.028  -0.595  0.00  0.00    +0.071 A 
ATOM      9  C   UNL     1       1.212  -0.681   0.015  0.00  0.00    +0.164 A 
ATOM     10  C   UNL     1       0.166   0.000   0.627  0.00  0.00    +0.164 A 
ATOM     11  O   UNL     1      -0.844  -0.678   1.237  0.00  0.00    -0.485 OA
ATOM     12  C   UNL     1      -0.987  -2.062   0.898  0.00  0.00    +0.270 C 
ATOM     13  C   UNL     1       0.401  -2.714   0.946  0.00  0.00    +0.270 C 
ATOM     14  O   UNL     1       1.244  -2.042   0.002  0.00  0.00    -0.485 OA
ATOM     15 CL   UNL     1       3.505   2.293  -1.360  0.00  0.00    -0.081 Cl
ENDBRANCH   1   6
BRANCH   2  16
ATOM     16  C   UNL     1      -0.030   5.615  -0.180  0.00  0.00    +0.122 C 
ATOM     17  N   UNL     1       1.091   6.266  -0.191  0.00  0.00    -0.177 NA
ATOM     18  N   UNL     1       1.117   7.661  -0.286  0.00  0.00    -0.188 N 
ATOM     19  C   UNL     1       0.021   8.385   0.015  0.00  0.00    +0.235 C 
ATOM     20  O   UNL     1       0.050   9.595  -0.065  0.00  0.00    -0.274 OA
ATOM     21  C   UNL     1      -1.242   7.686   0.450  0.00  0.00    +0.104 C 
ATOM     22  C   UNL     1      -1.346   6.340  -0.277  0.00  0.00    +0.071 C 
BRANCH  18  23
ATOM     23  C   UNL     1       2.343   8.339  -0.715  0.00  0.00    +0.124 C 
ATOM     24  C   UNL     1       2.751   7.841  -2.111  0.00  0.00    +0.049 C 
ATOM     25  C   UNL     1       4.193   8.300  -2.435  0.00  0.00    +0.168 C 
ATOM     26  S   UNL     1       4.960   8.426  -0.768  0.00  0.00    -0.029 S 
ATOM     27  O   UNL     1       5.933   7.399  -0.628  0.00  0.00    -0.174 OA
ATOM     28  O   UNL     1       5.331   9.777  -0.530  0.00  0.00    -0.174 OA
ATOM     29  C   UNL     1       3.498   8.011   0.273  0.00  0.00    +0.190 C 
ENDBRANCH  18  23
ENDBRANCH   2  16
TORSDOF 3
