REMARK  Name = ZINC05671708
REMARK  4 active torsions:
REMARK  status: ('A' for Active; 'I' for Inactive)
REMARK    1  A    between atoms: C_3  and  N_24
REMARK    2  A    between atoms: C_6  and  C_7
REMARK    3  A    between atoms: C_8  and  C_9
REMARK    4  A    between atoms: C_14  and  C_17
REMARK                            x       y       z     vdW  Elec       q    Type
REMARK                         _______ _______ _______ _____ _____    ______ ____
ROOT
ATOM      1  C   UNL     1      -2.493  -2.862   0.011  0.00  0.00    +0.243 C 
ATOM      2  O   UNL     1      -3.557  -2.271   0.025  0.00  0.00    -0.270 OA
ATOM      3  N   UNL     1      -2.471  -4.210   0.004  0.00  0.00    -0.261 N 
ATOM      4  C   UNL     1      -3.661  -4.923   0.012  0.00  0.00    +0.165 A 
ATOM      5  N   UNL     1      -3.852  -6.230   0.012  0.00  0.00    -0.225 NA
ATOM      6  C   UNL     1      -5.071  -6.747   0.021  0.00  0.00    +0.080 A 
ATOM      7  C   UNL     1      -6.154  -5.912   0.029  0.00  0.00    +0.076 A 
ATOM      8  S   UNL     1      -5.343  -4.318   0.033  0.00  0.00    -0.060 S 
ATOM      9  H   UNL     1      -1.623  -4.681  -0.007  0.00  0.00    +0.157 HD
ENDROOT
BRANCH   6  10
ATOM     10  C   UNL     1      -5.261  -8.218   0.020  0.00  0.00    +0.001 A 
ATOM     11  C   UNL     1      -6.546  -8.757   0.023  0.00  0.00    +0.011 A 
ATOM     12  C   UNL     1      -6.717 -10.127   0.022  0.00  0.00    +0.020 A 
ATOM     13  C   UNL     1      -5.615 -10.964   0.019  0.00  0.00    +0.041 A 
ATOM     14  C   UNL     1      -4.336 -10.433   0.017  0.00  0.00    +0.020 A 
ATOM     15  C   UNL     1      -4.154  -9.065   0.012  0.00  0.00    +0.011 A 
ATOM     16 CL   UNL     1      -5.836 -12.686   0.019  0.00  0.00    -0.084 Cl
ENDBRANCH   6  10
BRANCH   1  18
ATOM     17  C   UNL     1      -1.260  -0.761   0.011  0.00  0.00    +0.013 C 
ATOM     18  C   UNL     1      -1.238  -2.109   0.003  0.00  0.00    +0.068 C 
BRANCH  17  24
ATOM     19  C   UNL     1      -0.017   1.394   0.010  0.00  0.00    +0.010 A 
ATOM     20  C   UNL     1       1.170   2.096   0.002  0.00  0.00    +0.033 A 
ATOM     21  C   UNL     1       2.378   1.421  -0.013  0.00  0.00    +0.126 A 
ATOM     22  C   UNL     1       2.405   0.037  -0.021  0.00  0.00    +0.033 A 
ATOM     23  C   UNL     1       1.226  -0.679  -0.014  0.00  0.00    +0.010 A 
ATOM     24  C   UNL     1       0.002  -0.004   0.002  0.00  0.00    -0.025 A 
BRANCH  21  25
ATOM     25  N   UNL     1       3.647   2.182  -0.022  0.00  0.00    +0.056 N 
ATOM     26  O   UNL     1       3.627   3.391  -0.016  0.00  0.00    -0.126 OA
ATOM     27  O   UNL     1       4.704   1.595  -0.036  0.00  0.00    -0.126 OA
ENDBRANCH  21  25
ENDBRANCH  17  24
ENDBRANCH   1  18
TORSDOF 4
