REMARK  Name = ZINC66398267
REMARK  6 active torsions:
REMARK  status: ('A' for Active; 'I' for Inactive)
REMARK    1  A    between atoms: C_1  and  C_2
REMARK    2  A    between atoms: C_7  and  C_8
REMARK    3  A    between atoms: C_8  and  C_10
REMARK    4  A    between atoms: C_8  and  N_12
REMARK    5  A    between atoms: C_13  and  C_15
REMARK    6  A    between atoms: C_18  and  N_21
REMARK                            x       y       z     vdW  Elec       q    Type
REMARK                         _______ _______ _______ _____ _____    ______ ____
ROOT
ATOM      1  N   UNL     1      -0.537  -0.808   3.554  0.00  0.00    -0.292 N 
ATOM      2  C   UNL     1      -1.190  -0.255   4.595  0.00  0.00    +0.245 C 
ATOM      3  O   UNL     1      -1.312   0.953   4.663  0.00  0.00    -0.270 OA
ATOM      4  H   UNL     1      -0.440  -1.772   3.500  0.00  0.00    +0.151 HD
ENDROOT
BRANCH   2   5
ATOM      5  C   UNL     1      -1.757  -1.116   5.654  0.00  0.00    +0.037 A 
ATOM      6  C   UNL     1      -1.614  -2.502   5.582  0.00  0.00    +0.015 A 
ATOM      7  C   UNL     1      -2.145  -3.300   6.574  0.00  0.00    +0.033 A 
ATOM      8  C   UNL     1      -2.820  -2.729   7.639  0.00  0.00    +0.126 A 
ATOM      9  C   UNL     1      -2.966  -1.355   7.716  0.00  0.00    +0.033 A 
ATOM     10  C   UNL     1      -2.434  -0.546   6.734  0.00  0.00    +0.015 A 
BRANCH   8  11
ATOM     11  N   UNL     1      -3.388  -3.591   8.699  0.00  0.00    +0.056 N 
ATOM     12  O   UNL     1      -3.262  -4.792   8.634  0.00  0.00    -0.126 OA
ATOM     13  O   UNL     1      -3.977  -3.095   9.631  0.00  0.00    -0.126 OA
ENDBRANCH   8  11
ENDBRANCH   2   5
BRANCH   1  14
ATOM     14  C   UNL     1       0.025   0.045   2.504  0.00  0.00    +0.207 C 
BRANCH  14  21
ATOM     15  C   UNL     1      -0.097   1.486   0.003  0.00  0.00    +0.044 C 
ATOM     16  C   UNL     1      -0.017  -0.019   0.003  0.00  0.00    -0.045 A 
ATOM     17  C   UNL     1       0.003  -0.710  -1.195  0.00  0.00    +0.004 A 
ATOM     18  C   UNL     1       0.076  -2.090  -1.195  0.00  0.00    +0.000 A 
ATOM     19  C   UNL     1       0.129  -2.780   0.002  0.00  0.00    +0.000 A 
ATOM     20  C   UNL     1       0.110  -2.089   1.199  0.00  0.00    +0.007 A 
ATOM     21  C   UNL     1       0.041  -0.709   1.199  0.00  0.00    -0.010 A 
ENDBRANCH  14  21
BRANCH  14  22
ATOM     22  C   UNL     1       1.400   0.427   2.867  0.00  0.00    +0.090 C 
ATOM     23  N   UNL     1       2.460   0.723   3.147  0.00  0.00    -0.194 NA
ENDBRANCH  14  22
ENDBRANCH   1  14
TORSDOF 5
