REMARK  Name = ZINC04540434
REMARK  7 active torsions:
REMARK  status: ('A' for Active; 'I' for Inactive)
REMARK    1  A    between atoms: C_1  and  C_2
REMARK    2  A    between atoms: C_12  and  C_13
REMARK    3  A    between atoms: C_13  and  C_14
REMARK    4  A    between atoms: C_14  and  O_16
REMARK    5  A    between atoms: O_16  and  C_17
REMARK    6  A    between atoms: C_21  and  C_22
REMARK    7  A    between atoms: C_21  and  N_49
REMARK                            x       y       z     vdW  Elec       q    Type
REMARK                         _______ _______ _______ _____ _____    ______ ____
ROOT
ATOM      1  C   UNL     1      -2.538  -0.474   0.008  0.00  0.00    +0.045 C 
ATOM      2  C   UNL     1      -2.504   1.032   0.019  0.00  0.00    -0.029 A 
ATOM      3  C   UNL     1      -1.233   1.761   0.018  0.00  0.00    +0.021 A 
ATOM      4  C   UNL     1      -0.013   1.076   0.008  0.00  0.00    +0.015 A 
ATOM      5  C   UNL     1       1.157   1.776   0.001  0.00  0.00    +0.046 A 
ATOM      6  C   UNL     1       1.149   3.172   0.008  0.00  0.00    +0.123 A 
ATOM      7  C   UNL     1      -0.048   3.864   0.023  0.00  0.00    +0.021 A 
ATOM      8  C   UNL     1      -1.252   3.167   0.032  0.00  0.00    +0.144 A 
ATOM      9  O   UNL     1      -2.421   3.837   0.048  0.00  0.00    -0.422 OA
ATOM     10  C   UNL     1      -3.580   3.169   0.039  0.00  0.00    +0.341 A 
ATOM     11  O   UNL     1      -4.619   3.805   0.050  0.00  0.00    -0.245 OA
ATOM     12  C   UNL     1      -3.650   1.763   0.030  0.00  0.00    +0.051 A 
ATOM     13  C   UNL     1      -0.071   5.371   0.027  0.00  0.00    -0.030 C 
ATOM     14  C   UNL     1       2.306   5.220  -0.354  0.00  0.00    +0.158 C 
ATOM     15  O   UNL     1       2.335   3.836   0.003  0.00  0.00    -0.509 OA
ATOM     16  N   UNL     1       1.251   5.873   0.448  0.00  0.00    +0.408 N 
ATOM     17  H   UNL     1       1.396   5.649   1.439  0.00  0.00    -0.076 HD
ENDROOT
BRANCH  12  18
ATOM     18  C   UNL     1      -4.989   1.071   0.032  0.00  0.00    +0.163 C 
BRANCH  18  19
ATOM     19  C   UNL     1      -5.428   0.831   1.454  0.00  0.00    +0.311 C 
ATOM     20  O   UNL     1      -4.725   1.185   2.371  0.00  0.00    -0.250 OA
BRANCH  19  21
ATOM     21  O   UNL     1      -6.599   0.224   1.701  0.00  0.00    -0.468 OA
ATOM     22  C   UNL     1      -6.957   0.026   3.094  0.00  0.00    +0.280 C 
ENDBRANCH  19  21
ENDBRANCH  18  19
ENDBRANCH  12  18
BRANCH  16  23
ATOM     23  C   UNL     1       1.315   7.342   0.271  0.00  0.00    -0.038 C 
BRANCH  23  24
ATOM     24  C   UNL     1       2.590   7.855   0.889  0.00  0.00    -0.064 A 
ATOM     25  C   UNL     1       2.611   8.233   2.218  0.00  0.00    +0.002 A 
ATOM     26  C   UNL     1       3.782   8.698   2.786  0.00  0.00    +0.000 A 
ATOM     27  C   UNL     1       4.930   8.796   2.022  0.00  0.00    +0.000 A 
ATOM     28  C   UNL     1       4.908   8.423   0.691  0.00  0.00    +0.000 A 
ATOM     29  C   UNL     1       3.738   7.953   0.124  0.00  0.00    +0.002 A 
ENDBRANCH  23  24
ENDBRANCH  16  23
TORSDOF 5
