REMARK  Name = ZINC39634250
REMARK  7 active torsions:
REMARK  status: ('A' for Active; 'I' for Inactive)
REMARK    1  A    between atoms: C_1  and  C_2
REMARK    2  A    between atoms: C_5  and  C_8
REMARK    3  A    between atoms: C_8  and  N_9
REMARK    4  A    between atoms: C_10  and  C_12
REMARK    5  A    between atoms: C_23  and  C_25
REMARK    6  A    between atoms: C_30  and  O_31
REMARK    7  A    between atoms: O_31  and  C_32
REMARK                            x       y       z     vdW  Elec       q    Type
REMARK                         _______ _______ _______ _____ _____    ______ ____
ROOT
ATOM      1  C   UNL     1       3.142  -6.545  -0.051  0.00  0.00    +0.100 C 
ATOM      2  C   UNL     1       3.908  -6.003   1.177  0.00  0.00    +0.121 C 
ATOM      3  N   UNL     1       3.805  -7.081   2.188  0.00  0.00    -0.296 N 
ATOM      4  C   UNL     1       3.958  -8.333   1.410  0.00  0.00    +0.115 C 
ATOM      5  C   UNL     1       3.180  -8.075   0.104  0.00  0.00    -0.004 C 
ATOM      6  C   UNL     1       3.908  -8.708  -1.078  0.00  0.00    -0.010 C 
ATOM      7  C   UNL     1       3.882 -10.232  -0.931  0.00  0.00    -0.082 C 
ATOM      8  N   UNL     1       2.491 -10.697  -0.882  0.00  0.00    +0.379 N 
ATOM      9  C   UNL     1       1.825 -10.157   0.310  0.00  0.00    -0.082 C 
ATOM     10  C   UNL     1       1.764  -8.630   0.215  0.00  0.00    -0.010 C 
ATOM     11  C   UNL     1       3.615  -6.952   3.517  0.00  0.00    +0.250 C 
ATOM     12  O   UNL     1       3.410  -5.854   3.998  0.00  0.00    -0.270 OA
ATOM     13  H   UNL     1       2.004 -10.384  -1.708  0.00  0.00    -0.086 HD
ATOM     14  H   UNL     1       2.476 -11.705  -0.847  0.00  0.00    -0.086 HD
ENDROOT
BRANCH  11  15
ATOM     15  C   UNL     1       3.656  -8.142   4.387  0.00  0.00    +0.078 A 
ATOM     16  C   UNL     1       4.534  -9.191   4.101  0.00  0.00    +0.017 A 
ATOM     17  C   UNL     1       4.568 -10.300   4.918  0.00  0.00    +0.001 A 
ATOM     18  C   UNL     1       3.736 -10.381   6.022  0.00  0.00    +0.004 A 
ATOM     19  C   UNL     1       2.864  -9.351   6.316  0.00  0.00    +0.046 A 
ATOM     20  C   UNL     1       2.820  -8.225   5.508  0.00  0.00    +0.132 A 
BRANCH  20  21
ATOM     21  O   UNL     1       1.967  -7.211   5.798  0.00  0.00    -0.494 OA
ATOM     22  C   UNL     1       1.145  -7.366   6.957  0.00  0.00    +0.277 C 
ENDBRANCH  20  21
ENDBRANCH  11  15
BRANCH   1  24
ATOM     23  N   UNL     1       1.064  -5.856  -1.203  0.00  0.00    -0.311 N 
ATOM     24  C   UNL     1       1.718  -6.052  -0.041  0.00  0.00    +0.218 C 
ATOM     25  O   UNL     1       1.160  -5.832   1.013  0.00  0.00    -0.275 OA
ATOM     26  H   UNL     1       1.511  -6.032  -2.046  0.00  0.00    +0.149 HD
BRANCH  23  27
ATOM     27  C   UNL     1      -0.320  -5.377  -1.193  0.00  0.00    +0.139 C 
BRANCH  27  32
ATOM     28  C   UNL     1      -2.221  -4.858  -6.625  0.00  0.00    +0.044 C 
ATOM     29  C   UNL     1      -1.725  -4.993  -5.209  0.00  0.00    -0.050 A 
ATOM     30  C   UNL     1      -1.888  -6.186  -4.530  0.00  0.00    +0.003 A 
ATOM     31  C   UNL     1      -1.433  -6.311  -3.231  0.00  0.00    +0.005 A 
ATOM     32  C   UNL     1      -0.815  -5.242  -2.610  0.00  0.00    -0.030 A 
ATOM     33  C   UNL     1      -0.651  -4.048  -3.289  0.00  0.00    +0.005 A 
ATOM     34  C   UNL     1      -1.102  -3.926  -4.590  0.00  0.00    +0.003 A 
ENDBRANCH  27  32
ENDBRANCH  23  27
ENDBRANCH   1  24
TORSDOF 5
