REMARK  Name = ZINC12490065
REMARK  10 active torsions:
REMARK  status: ('A' for Active; 'I' for Inactive)
REMARK    1  A    between atoms: C_1  and  N_2
REMARK    2  A    between atoms: N_2  and  C_3
REMARK    3  A    between atoms: N_2  and  C_4
REMARK    4  A    between atoms: C_7  and  C_10
REMARK    5  A    between atoms: C_10  and  N_11
REMARK    6  A    between atoms: C_20  and  C_22
REMARK    7  A    between atoms: N_24  and  C_25
REMARK    8  A    between atoms: C_25  and  C_26
REMARK    9  A    between atoms: C_29  and  O_32
REMARK   10  A    between atoms: O_32  and  C_33
REMARK                            x       y       z     vdW  Elec       q    Type
REMARK                         _______ _______ _______ _____ _____    ______ ____
ROOT
ATOM      1  N   UNL     1      -5.278  -3.514   1.071  0.00  0.00    -0.281 NA
ATOM      2  C   UNL     1      -4.468  -4.548   1.737  0.00  0.00    +0.140 C 
ATOM      3  C   UNL     1      -4.724  -4.467   3.222  0.00  0.00    +0.051 A 
ATOM      4  C   UNL     1      -5.780  -3.814   3.758  0.00  0.00    +0.040 A 
ATOM      5  N   UNL     1      -5.689  -3.945   5.107  0.00  0.00    -0.349 N 
ATOM      6  H   UNL     1      -6.303  -3.583   5.765  0.00  0.00    +0.166 HD
ATOM      7  C   UNL     1      -4.579  -4.678   5.359  0.00  0.00    +0.171 A 
ATOM      8  N   UNL     1      -4.009  -4.985   4.222  0.00  0.00    -0.349 N 
ATOM      9  C   UNL     1      -6.822  -3.101   2.936  0.00  0.00    +0.083 C 
ATOM     10  C   UNL     1      -6.686  -3.583   1.484  0.00  0.00    +0.149 C 
ATOM     11  H   UNL     1      -3.197  -5.506   4.122  0.00  0.00    +0.166 HD
ENDROOT
BRANCH  10  12
ATOM     12  C   UNL     1      -7.517  -2.705   0.584  0.00  0.00    +0.231 C 
ATOM     13  O   UNL     1      -7.062  -1.661   0.168  0.00  0.00    -0.274 OA
ATOM     14  N   UNL     1      -8.765  -3.080   0.242  0.00  0.00    -0.310 N 
ATOM     15  H   UNL     1      -9.129  -3.915   0.575  0.00  0.00    +0.149 HD
BRANCH  14  16
ATOM     16  C   UNL     1      -9.573  -2.227  -0.633  0.00  0.00    +0.139 C 
BRANCH  16  17
ATOM     17  C   UNL     1     -10.917  -2.869  -0.860  0.00  0.00    -0.030 A 
ATOM     18  C   UNL     1     -11.097  -3.739  -1.919  0.00  0.00    +0.009 A 
ATOM     19  C   UNL     1     -12.328  -4.328  -2.129  0.00  0.00    +0.046 A 
ATOM     20  C   UNL     1     -13.386  -4.047  -1.276  0.00  0.00    +0.120 A 
ATOM     21  C   UNL     1     -13.203  -3.174  -0.214  0.00  0.00    +0.046 A 
ATOM     22  C   UNL     1     -11.968  -2.591  -0.005  0.00  0.00    +0.009 A 
BRANCH  20  23
ATOM     23  O   UNL     1     -14.598  -4.625  -1.481  0.00  0.00    -0.495 OA
ATOM     24  C   UNL     1     -15.640  -4.289  -0.563  0.00  0.00    +0.277 C 
ENDBRANCH  20  23
ENDBRANCH  16  17
ENDBRANCH  14  16
ENDBRANCH  10  12
BRANCH   1  25
ATOM     25  C   UNL     1      -5.152  -3.606  -0.389  0.00  0.00    +0.120 C 
BRANCH  25  29
ATOM     26  C   UNL     1      -1.245  -2.336  -1.567  0.00  0.00    +0.029 A 
ATOM     27  C   UNL     1      -1.482  -3.672  -1.270  0.00  0.00    +0.023 A 
ATOM     28  C   UNL     1      -2.746  -4.079  -0.889  0.00  0.00    +0.007 A 
ATOM     29  C   UNL     1      -3.774  -3.158  -0.804  0.00  0.00    -0.033 A 
ATOM     30  C   UNL     1      -3.541  -1.827  -1.100  0.00  0.00    +0.007 A 
ATOM     31  C   UNL     1      -2.279  -1.413  -1.476  0.00  0.00    +0.023 A 
BRANCH  26  33
ATOM     32  C   UNL     1       0.282  -0.510  -2.260  0.00  0.00    +0.129 C 
ATOM     33  N   UNL     1       0.032  -1.921  -1.952  0.00  0.00    -0.336 N 
ATOM     34  C   UNL     1       1.121  -2.896  -2.048  0.00  0.00    +0.129 C 
ENDBRANCH  26  33
ENDBRANCH  25  29
ENDBRANCH   1  25
TORSDOF 7
