REMARK  Name = ZINC67521072
REMARK  6 active torsions:
REMARK  status: ('A' for Active; 'I' for Inactive)
REMARK    1  A    between atoms: C_1  and  C_2
REMARK    2  A    between atoms: C_2  and  O_3
REMARK    3  A    between atoms: O_3  and  C_4
REMARK    4  A    between atoms: C_11  and  C_13
REMARK    5  A    between atoms: C_14  and  C_24
REMARK    6  A    between atoms: N_20  and  C_23
REMARK                            x       y       z     vdW  Elec       q    Type
REMARK                         _______ _______ _______ _____ _____    ______ ____
ROOT
ATOM      1  C   UNL     1      -1.052  -6.160  -1.985  0.00  0.00    +0.080 A 
ATOM      2  C   UNL     1      -0.266  -7.152  -2.494  0.00  0.00    -0.017 A 
ATOM      3  C   UNL     1      -0.607  -8.489  -2.277  0.00  0.00    +0.076 A 
ATOM      4  C   UNL     1      -1.780  -8.711  -1.520  0.00  0.00    +0.116 A 
ATOM      5  S   UNL     1      -2.340  -7.068  -1.147  0.00  0.00    -0.064 S 
ATOM      6  N   UNL     1      -2.213  -9.934  -1.242  0.00  0.00    -0.230 NA
ATOM      7  C   UNL     1      -1.575 -10.995  -1.654  0.00  0.00    +0.203 A 
ATOM      8  N   UNL     1      -0.438 -10.909  -2.387  0.00  0.00    -0.302 N 
ATOM      9  C   UNL     1       0.089  -9.716  -2.727  0.00  0.00    +0.262 A 
ATOM     10  O   UNL     1       1.111  -9.649  -3.387  0.00  0.00    -0.267 OA
ATOM     11  C   UNL     1       0.232 -12.138  -2.820  0.00  0.00    +0.153 C 
ATOM     12  C   UNL     1       0.966  -6.805  -3.289  0.00  0.00    +0.046 C 
ENDROOT
BRANCH   1  19
ATOM     13  C   UNL     1       0.269  -2.113   0.005  0.00  0.00    +0.136 C 
ATOM     14  C   UNL     1      -0.241  -2.591   1.367  0.00  0.00    +0.035 C 
ATOM     15  C   UNL     1      -0.394  -4.113   1.351  0.00  0.00    +0.021 C 
ATOM     16  C   UNL     1      -1.420  -4.509   0.285  0.00  0.00    +0.108 C 
ATOM     17  N   UNL     1      -1.012  -3.929  -1.002  0.00  0.00    -0.295 N 
ATOM     18  C   UNL     1      -0.750  -2.486  -1.077  0.00  0.00    +0.139 C 
ATOM     19  C   UNL     1      -0.879  -4.708  -2.094  0.00  0.00    +0.254 C 
ATOM     20  O   UNL     1      -0.616  -4.206  -3.171  0.00  0.00    -0.269 OA
BRANCH  13  21
ATOM     21  O   UNL     1       0.440  -0.694   0.031  0.00  0.00    -0.375 OA
BRANCH  21  23
ATOM     22  C   UNL     1       1.569   1.305  -0.723  0.00  0.00    +0.034 C 
ATOM     23  C   UNL     1       1.475  -0.218  -0.831  0.00  0.00    +0.157 C 
ENDBRANCH  21  23
ENDBRANCH  13  21
ENDBRANCH   1  19
TORSDOF 3
