REMARK  Name = ZINC66907092
REMARK  6 active torsions:
REMARK  status: ('A' for Active; 'I' for Inactive)
REMARK    1  A    between atoms: C_1  and  C_2
REMARK    2  A    between atoms: C_2  and  S_3
REMARK    3  A    between atoms: S_3  and  N_6
REMARK    4  A    between atoms: N_6  and  C_7
REMARK    5  A    between atoms: N_6  and  C_8
REMARK    6  A    between atoms: N_16  and  C_17
REMARK                            x       y       z     vdW  Elec       q    Type
REMARK                         _______ _______ _______ _____ _____    ______ ____
ROOT
ATOM      1  C   UNL     1      -0.974  -3.078  -0.850  0.00  0.00    +0.082 C 
ATOM      2  C   UNL     1      -1.904  -4.205  -0.392  0.00  0.00    +0.039 C 
ATOM      3  C   UNL     1      -2.353  -5.018  -1.610  0.00  0.00    +0.111 C 
ATOM      4  N   UNL     1      -1.161  -5.476  -2.337  0.00  0.00    -0.285 N 
ATOM      5  C   UNL     1      -0.157  -4.484  -2.745  0.00  0.00    +0.111 C 
ATOM      6  C   UNL     1       0.267  -3.677  -1.514  0.00  0.00    +0.039 C 
ATOM      7  C   UNL     1      -0.993  -6.782  -2.625  0.00  0.00    +0.306 C 
ATOM      8  O   UNL     1      -1.781  -7.605  -2.200  0.00  0.00    -0.252 OA
ATOM      9  N   UNL     1       0.050  -7.176  -3.383  0.00  0.00    -0.268 N 
ATOM     10  H   UNL     1       0.721  -6.532  -3.658  0.00  0.00    +0.156 HD
ENDROOT
BRANCH   9  11
ATOM     11  C   UNL     1       0.165  -8.518  -3.774  0.00  0.00    +0.051 A 
ATOM     12  C   UNL     1      -0.976  -9.283  -4.015  0.00  0.00    +0.028 A 
ATOM     13  C   UNL     1      -0.816 -10.601  -4.399  0.00  0.00    +0.043 A 
ATOM     14  C   UNL     1       0.469 -11.117  -4.532  0.00  0.00    +0.099 A 
ATOM     15  N   UNL     1       1.530 -10.362  -4.295  0.00  0.00    -0.348 N 
ATOM     16  C   UNL     1       1.413  -9.098  -3.932  0.00  0.00    +0.107 A 
ATOM     17  N   UNL     1       0.642 -12.444  -4.919  0.00  0.00    -0.317 N 
ATOM     18  C   UNL     1      -0.438 -13.396  -5.220  0.00  0.00    +0.106 C 
ATOM     19  C   UNL     1       0.226 -14.743  -5.575  0.00  0.00    +0.020 C 
ATOM     20  C   UNL     1       1.621 -14.631  -4.905  0.00  0.00    +0.020 C 
ATOM     21  C   UNL     1       1.937 -13.125  -5.099  0.00  0.00    +0.106 C 
ATOM     22  H   UNL     1       2.415 -10.745  -4.394  0.00  0.00    +0.167 HD
ENDBRANCH   9  11
BRANCH   1  23
ATOM     23  N   UNL     1      -0.570  -2.278   0.309  0.00  0.00    -0.181 NA
ATOM     24  C   UNL     1       0.156  -2.907   1.416  0.00  0.00    +0.131 C 
BRANCH  23  25
ATOM     25  S   UNL     1      -0.932  -0.663   0.368  0.00  0.00    +0.032 S 
ATOM     26  O   UNL     1      -0.985  -0.354   1.754  0.00  0.00    -0.158 OA
ATOM     27  O   UNL     1      -2.085  -0.521  -0.450  0.00  0.00    -0.158 OA
BRANCH  25  29
ATOM     28  C   UNL     1       0.259   1.675  -0.403  0.00  0.00    +0.029 C 
ATOM     29  C   UNL     1       0.487   0.162  -0.403  0.00  0.00    +0.182 C 
ENDBRANCH  25  29
ENDBRANCH  23  25
ENDBRANCH   1  23
TORSDOF 4
