REMARK  Name = ZINC07741123
REMARK  10 active torsions:
REMARK  status: ('A' for Active; 'I' for Inactive)
REMARK    1  A    between atoms: C_1  and  N_2
REMARK    2  A    between atoms: N_2  and  C_22
REMARK    3  A    between atoms: C_3  and  C_5
REMARK    4  A    between atoms: C_5  and  N_6
REMARK    5  A    between atoms: C_10  and  C_12
REMARK    6  A    between atoms: C_15  and  O_20
REMARK    7  A    between atoms: C_17  and  O_18
REMARK    8  A    between atoms: O_18  and  C_19
REMARK    9  A    between atoms: O_20  and  C_21
REMARK   10  A    between atoms: C_22  and  C_28
REMARK                            x       y       z     vdW  Elec       q    Type
REMARK                         _______ _______ _______ _____ _____    ______ ____
ROOT
ATOM      1  N   UNL     1      -0.374  -0.844   3.715  0.00  0.00    +0.390 N 
ATOM      2  C   UNL     1      -1.625  -1.468   4.198  0.00  0.00    -0.077 C 
ATOM      3  C   UNL     1      -1.391  -1.700   5.712  0.00  0.00    -0.020 C 
ATOM      4  C   UNL     1      -0.580  -0.437   6.101  0.00  0.00    -0.012 C 
ATOM      5  C   UNL     1       0.292  -0.185   4.853  0.00  0.00    -0.033 C 
ATOM      6  H   UNL     1       0.232  -1.555   3.332  0.00  0.00    -0.080 HD
ENDROOT
BRANCH   5   7
ATOM      7  C   UNL     1       0.402   1.296   4.595  0.00  0.00    -0.019 A 
ATOM      8  C   UNL     1      -0.596   2.148   5.028  0.00  0.00    +0.009 A 
ATOM      9  C   UNL     1      -0.498   3.506   4.793  0.00  0.00    +0.046 A 
ATOM     10  C   UNL     1       0.604   4.017   4.121  0.00  0.00    +0.124 A 
ATOM     11  C   UNL     1       1.606   3.164   3.686  0.00  0.00    +0.091 A 
ATOM     12  C   UNL     1       1.508   1.803   3.928  0.00  0.00    +0.125 A 
BRANCH  12  13
ATOM     13  O   UNL     1       2.491   0.965   3.507  0.00  0.00    -0.495 OA
ATOM     14  C   UNL     1       3.601   1.556   2.827  0.00  0.00    +0.277 C 
ENDBRANCH  12  13
BRANCH  10  15
ATOM     15  O   UNL     1       0.700   5.353   3.890  0.00  0.00    -0.495 OA
ATOM     16  C   UNL     1      -0.370   6.172   4.366  0.00  0.00    +0.277 C 
ENDBRANCH  10  15
ENDBRANCH   5   7
BRANCH   1  17
ATOM     17  C   UNL     1      -0.686   0.151   2.680  0.00  0.00    +0.020 C 
BRANCH  17  20
ATOM     18  C   UNL     1      -1.450   1.630   0.387  0.00  0.00    +0.133 C 
ATOM     19  N   UNL     1      -1.598   0.173   0.381  0.00  0.00    -0.288 N 
ATOM     20  C   UNL     1      -1.239  -0.545   1.464  0.00  0.00    +0.200 C 
ATOM     21  O   UNL     1      -1.361  -1.752   1.459  0.00  0.00    -0.278 OA
BRANCH  19  22
ATOM     22  C   UNL     1      -2.136  -0.504  -0.802  0.00  0.00    +0.123 C 
ATOM     23  C   UNL     1      -1.098  -1.491  -1.340  0.00  0.00    +0.041 C 
ATOM     24  C   UNL     1      -1.659  -2.198  -2.575  0.00  0.00    +0.003 C 
ATOM     25  C   UNL     1      -1.984  -1.161  -3.653  0.00  0.00    +0.000 C 
ATOM     26  C   UNL     1      -3.022  -0.174  -3.114  0.00  0.00    +0.003 C 
ATOM     27  C   UNL     1      -2.461   0.533  -1.879  0.00  0.00    +0.041 C 
BRANCH  22  28
ATOM     28  C   UNL     1      -3.361  -1.232  -0.436  0.00  0.00    +0.089 C 
ATOM     29  N   UNL     1      -4.308  -1.794  -0.153  0.00  0.00    -0.194 NA
ENDBRANCH  22  28
ENDBRANCH  19  22
ENDBRANCH  17  20
ENDBRANCH   1  17
TORSDOF 7
