REMARK  Name = ZINC11582551
REMARK  4 active torsions:
REMARK  status: ('A' for Active; 'I' for Inactive)
REMARK    1  A    between atoms: C_4  and  C_7
REMARK    2  A    between atoms: C_7  and  N_8
REMARK    3  A    between atoms: C_13  and  C_27
REMARK    4  A    between atoms: N_15  and  C_21
REMARK                            x       y       z     vdW  Elec       q    Type
REMARK                         _______ _______ _______ _____ _____    ______ ____
ROOT
ATOM      1  N   UNL     1       4.152  -0.952   1.338  0.00  0.00    -0.235 N 
ATOM      2  C   UNL     1       4.915  -0.089   2.018  0.00  0.00    +0.231 C 
ATOM      3  O   UNL     1       5.331   0.966   1.591  0.00  0.00    -0.275 OA
ATOM      4  C   UNL     1       5.176  -0.634   3.403  0.00  0.00    +0.145 C 
ATOM      5  C   UNL     1       6.672  -1.001   3.535  0.00  0.00    +0.157 C 
ATOM      6  N   UNL     1       6.624  -2.364   4.119  0.00  0.00    -0.244 N 
ATOM      7  O   UNL     1       5.518  -2.993   3.470  0.00  0.00    -0.257 OA
ATOM      8  C   UNL     1       4.448  -2.006   3.394  0.00  0.00    +0.249 C 
ATOM      9  C   UNL     1       3.820  -2.055   2.018  0.00  0.00    +0.254 C 
ATOM     10  O   UNL     1       3.126  -2.956   1.597  0.00  0.00    -0.272 OA
ENDROOT
BRANCH   6  11
ATOM     11  C   UNL     1       7.470  -2.909   5.087  0.00  0.00    +0.065 A 
ATOM     12  C   UNL     1       8.502  -2.146   5.619  0.00  0.00    +0.028 A 
ATOM     13  C   UNL     1       9.337  -2.689   6.576  0.00  0.00    +0.002 A 
ATOM     14  C   UNL     1       9.147  -3.990   7.004  0.00  0.00    +0.000 A 
ATOM     15  C   UNL     1       8.121  -4.752   6.477  0.00  0.00    +0.002 A 
ATOM     16  C   UNL     1       7.279  -4.214   5.523  0.00  0.00    +0.028 A 
ENDBRANCH   6  11
BRANCH   5  17
ATOM     17  C   UNL     1       7.339  -1.018   2.184  0.00  0.00    -0.022 A 
ATOM     18  C   UNL     1       7.191  -2.113   1.354  0.00  0.00    +0.006 A 
ATOM     19  C   UNL     1       7.803  -2.129   0.115  0.00  0.00    +0.000 A 
ATOM     20  C   UNL     1       8.563  -1.049  -0.295  0.00  0.00    +0.000 A 
ATOM     21  C   UNL     1       8.711   0.047   0.535  0.00  0.00    +0.000 A 
ATOM     22  C   UNL     1       8.095   0.064   1.773  0.00  0.00    +0.006 A 
ENDBRANCH   5  17
BRANCH   1  23
ATOM     23  C   UNL     1       3.711  -0.707  -0.038  0.00  0.00    +0.151 C 
BRANCH  23  27
ATOM     24  C   UNL     1      -0.017   1.378   0.010  0.00  0.00    +0.000 A 
ATOM     25  C   UNL     1       1.171   2.086   0.002  0.00  0.00    +0.000 A 
ATOM     26  C   UNL     1       2.377   1.411  -0.013  0.00  0.00    +0.005 A 
ATOM     27  C   UNL     1       2.396   0.029  -0.020  0.00  0.00    -0.030 A 
ATOM     28  C   UNL     1       1.208  -0.679  -0.012  0.00  0.00    +0.005 A 
ATOM     29  C   UNL     1       0.002  -0.004   0.002  0.00  0.00    +0.000 A 
ENDBRANCH  23  27
ENDBRANCH   1  23
TORSDOF 4
