REMARK  Name = ZINC60407178
REMARK  11 active torsions:
REMARK  status: ('A' for Active; 'I' for Inactive)
REMARK    1  A    between atoms: C_1  and  C_2
REMARK    2  A    between atoms: C_5  and  C_7
REMARK    3  A    between atoms: C_7  and  N_8
REMARK    4  A    between atoms: N_8  and  C_9
REMARK    5  A    between atoms: C_9  and  C_10
REMARK    6  A    between atoms: C_10  and  N_11
REMARK    7  A    between atoms: N_11  and  C_12
REMARK    8  A    between atoms: N_11  and  C_13
REMARK    9  A    between atoms: C_14  and  C_16
REMARK   10  A    between atoms: C_17  and  C_26
REMARK   11  A    between atoms: C_19  and  C_21
REMARK                            x       y       z     vdW  Elec       q    Type
REMARK                         _______ _______ _______ _____ _____    ______ ____
ROOT
ATOM      1  N   UNL     1       1.983  -3.620  -1.407  0.00  0.00    -0.291 N 
ATOM      2  C   UNL     1       1.278  -4.592  -2.019  0.00  0.00    +0.269 C 
ATOM      3  O   UNL     1       1.591  -4.959  -3.136  0.00  0.00    -0.268 OA
ENDROOT
BRANCH   2   4
ATOM      4  C   UNL     1       0.128  -5.211  -1.335  0.00  0.00    +0.167 A 
ATOM      5  C   UNL     1      -0.723  -6.134  -1.862  0.00  0.00    +0.135 A 
ATOM      6  O   UNL     1      -1.624  -6.433  -0.911  0.00  0.00    -0.439 OA
ATOM      7  C   UNL     1      -1.333  -5.707   0.185  0.00  0.00    +0.235 A 
ATOM      8  N   UNL     1      -0.275  -4.971  -0.060  0.00  0.00    -0.204 NA
ATOM      9  C   UNL     1      -0.667  -6.711  -3.253  0.00  0.00    +0.089 C 
BRANCH   7  10
ATOM     10  C   UNL     1      -2.078  -5.738   1.452  0.00  0.00    +0.074 A 
ATOM     11  C   UNL     1      -3.188  -6.488   1.793  0.00  0.00    +0.021 A 
ATOM     12  C   UNL     1      -3.714  -6.343   3.056  0.00  0.00    +0.008 A 
ATOM     13  C   UNL     1      -3.130  -5.475   3.923  0.00  0.00    +0.046 A 
ATOM     14  S   UNL     1      -1.779  -4.823   2.956  0.00  0.00    -0.092 S 
ENDBRANCH   7  10
ENDBRANCH   2   4
BRANCH   1  15
ATOM     15  C   UNL     1       1.682  -3.261  -0.019  0.00  0.00    +0.182 C 
BRANCH  15  20
ATOM     16  C   UNL     1      -0.068   1.469   0.057  0.00  0.00    +0.086 C 
ATOM     17  C   UNL     1      -0.032  -0.037   0.036  0.00  0.00    +0.102 A 
ATOM     18  C   UNL     1      -1.105  -0.850   0.031  0.00  0.00    +0.045 A 
ATOM     19  C   UNL     1      -0.614  -2.175   0.009  0.00  0.00    +0.046 A 
ATOM     20  C   UNL     1       0.729  -2.094   0.002  0.00  0.00    +0.122 A 
ATOM     21  O   UNL     1       1.075  -0.796   0.013  0.00  0.00    -0.463 OA
ENDBRANCH  15  20
ENDBRANCH   1  15
BRANCH   1  22
ATOM     22  C   UNL     1       3.050  -2.923  -2.130  0.00  0.00    +0.090 C 
BRANCH  22  23
ATOM     23  C   UNL     1       4.347  -3.726  -2.024  0.00  0.00    -0.060 C 
BRANCH  23  24
ATOM     24  N   UNL     1       5.417  -3.027  -2.749  0.00  0.00    +0.377 N 
ATOM     25  C   UNL     1       6.688  -3.735  -2.548  0.00  0.00    -0.097 C 
ATOM     26  C   UNL     1       5.096  -2.993  -4.182  0.00  0.00    -0.097 C 
ATOM     27  H   UNL     1       5.498  -2.084  -2.400  0.00  0.00    -0.083 HD
ENDBRANCH  23  24
ENDBRANCH  22  23
ENDBRANCH   1  22
TORSDOF 7
