REMARK  Name = ZINC43150539
REMARK  8 active torsions:
REMARK  status: ('A' for Active; 'I' for Inactive)
REMARK    1  A    between atoms: C_1  and  C_2
REMARK    2  A    between atoms: C_4  and  C_26
REMARK    3  A    between atoms: C_5  and  N_9
REMARK    4  A    between atoms: C_6  and  C_8
REMARK    5  A    between atoms: C_18  and  C_20
REMARK    6  A    between atoms: N_22  and  C_23
REMARK    7  A    between atoms: C_23  and  C_24
REMARK    8  A    between atoms: C_23  and  C_25
REMARK                            x       y       z     vdW  Elec       q    Type
REMARK                         _______ _______ _______ _____ _____    ______ ____
ROOT
ATOM      1  N   UNL     1      -0.193  -4.716  -0.195  0.00  0.00    -0.269 N 
ATOM      2  C   UNL     1       0.384  -5.389   0.820  0.00  0.00    +0.307 C 
ATOM      3  O   UNL     1       0.784  -4.788   1.798  0.00  0.00    -0.252 OA
ATOM      4  N   UNL     1       0.517  -6.729   0.751  0.00  0.00    -0.282 N 
ATOM      5  C   UNL     1      -0.045  -7.479  -0.381  0.00  0.00    +0.128 C 
ATOM      6  C   UNL     1       1.075  -8.303  -1.028  0.00  0.00    +0.127 C 
ATOM      7  N   UNL     1       1.785  -9.039   0.028  0.00  0.00    -0.291 N 
ATOM      8  C   UNL     1       2.347  -8.289   1.160  0.00  0.00    +0.127 C 
ATOM      9  C   UNL     1       1.232  -7.465   1.803  0.00  0.00    +0.128 C 
ATOM     10  C   UNL     1       1.918 -10.379  -0.041  0.00  0.00    +0.302 C 
ATOM     11  O   UNL     1       2.394 -10.990   0.893  0.00  0.00    -0.265 OA
ATOM     12  H   UNL     1      -0.579  -5.201  -0.942  0.00  0.00    +0.156 HD
ENDROOT
BRANCH   1  17
ATOM     13  C   UNL     1      -0.363   0.954  -0.106  0.00  0.00    +0.044 C 
ATOM     14  C   UNL     1      -0.318  -0.552  -0.129  0.00  0.00    -0.050 A 
ATOM     15  C   UNL     1       0.290  -1.208  -1.185  0.00  0.00    +0.008 A 
ATOM     16  C   UNL     1       0.333  -2.588  -1.209  0.00  0.00    -0.029 A 
ATOM     17  C   UNL     1      -0.234  -3.317  -0.173  0.00  0.00    +0.041 A 
ATOM     18  C   UNL     1      -0.844  -2.656   0.885  0.00  0.00    -0.029 A 
ATOM     19  C   UNL     1      -0.879  -1.276   0.907  0.00  0.00    +0.008 A 
ATOM     20  C   UNL     1      -1.461  -3.444   2.012  0.00  0.00    +0.045 C 
ATOM     21  C   UNL     1       0.995  -3.301  -2.360  0.00  0.00    +0.045 C 
ENDBRANCH   1  17
BRANCH  10  22
ATOM     22  C   UNL     1       1.480 -11.111  -1.268  0.00  0.00    +0.299 C 
ATOM     23  O   UNL     1       1.128 -10.492  -2.251  0.00  0.00    -0.265 OA
ATOM     24  N   UNL     1       1.475 -12.459  -1.283  0.00  0.00    -0.305 N 
ATOM     25  H   UNL     1       1.756 -12.953  -0.497  0.00  0.00    +0.149 HD
BRANCH  24  26
ATOM     26  C   UNL     1       1.045 -13.176  -2.486  0.00  0.00    +0.067 C 
ATOM     27  C   UNL     1       2.227 -13.316  -3.446  0.00  0.00    +0.027 C 
ATOM     28  C   UNL     1       0.537 -14.566  -2.096  0.00  0.00    +0.027 C 
ENDBRANCH  24  26
ENDBRANCH  10  22
TORSDOF 3
