REMARK  Name = ZINC58267859
REMARK  8 active torsions:
REMARK  status: ('A' for Active; 'I' for Inactive)
REMARK    1  A    between atoms: C_1  and  C_2
REMARK    2  A    between atoms: C_5  and  C_24
REMARK    3  A    between atoms: N_12  and  C_13
REMARK    4  A    between atoms: C_15  and  C_22
REMARK    5  A    between atoms: N_17  and  C_18
REMARK    6  A    between atoms: C_18  and  C_19
REMARK    7  A    between atoms: C_18  and  C_20
REMARK    8  A    between atoms: C_18  and  C_21
REMARK                            x       y       z     vdW  Elec       q    Type
REMARK                         _______ _______ _______ _____ _____    ______ ____
ROOT
ATOM      1  C   UNL     1      -0.016   1.521  -0.007  0.00  0.00    +0.009 C 
ATOM      2  C   UNL     1       0.005  -0.009  -0.011  0.00  0.00    +0.004 C 
ATOM      3  C   UNL     1      -1.431  -0.540   0.001  0.00  0.00    +0.009 C 
ATOM      4  C   UNL     1      -1.411  -2.069  -0.036  0.00  0.00    +0.004 C 
ATOM      5  C   UNL     1      -0.691  -2.597   1.209  0.00  0.00    +0.112 C 
ATOM      6  N   UNL     1       0.639  -1.978   1.284  0.00  0.00    -0.285 N 
ATOM      7  C   UNL     1       0.742  -0.513   1.234  0.00  0.00    +0.112 C 
ATOM      8  C   UNL     1       1.746  -2.740   1.395  0.00  0.00    +0.307 C 
ATOM      9  O   UNL     1       1.644  -3.944   1.527  0.00  0.00    -0.252 OA
ATOM     10  N   UNL     1       2.965  -2.166   1.360  0.00  0.00    -0.255 N 
ATOM     11  C   UNL     1      -2.847  -2.598  -0.059  0.00  0.00    +0.009 C 
ATOM     12  H   UNL     1       3.046  -1.200   1.331  0.00  0.00    +0.158 HD
ENDROOT
BRANCH  10  13
ATOM     13  C   UNL     1       4.112  -2.963   1.365  0.00  0.00    +0.108 A 
ATOM     14  C   UNL     1       4.132  -4.315   1.397  0.00  0.00    +0.062 A 
ATOM     15  C   UNL     1       5.544  -4.710   1.389  0.00  0.00    +0.071 A 
ATOM     16  C   UNL     1       6.266  -3.551   1.352  0.00  0.00    +0.107 A 
ATOM     17  N   UNL     1       5.399  -2.506   1.333  0.00  0.00    -0.329 N 
BRANCH  17  18
ATOM     18  C   UNL     1       5.787  -1.094   1.287  0.00  0.00    +0.038 C 
ATOM     19  C   UNL     1       7.312  -0.985   1.261  0.00  0.00    +0.034 C 
ATOM     20  C   UNL     1       5.207  -0.446   0.028  0.00  0.00    +0.034 C 
ATOM     21  C   UNL     1       5.245  -0.376   2.525  0.00  0.00    +0.034 C 
ENDBRANCH  17  18
BRANCH  15  22
ATOM     22  C   UNL     1       6.063  -6.045   1.415  0.00  0.00    +0.101 C 
ATOM     23  N   UNL     1       6.474  -7.104   1.435  0.00  0.00    -0.191 NA
ENDBRANCH  15  22
ENDBRANCH  10  13
TORSDOF 3
