REMARK  Name = ZINC08964634
REMARK  8 active torsions:
REMARK  status: ('A' for Active; 'I' for Inactive)
REMARK    1  A    between atoms: C_1  and  C_2
REMARK    2  A    between atoms: C_2  and  N_3
REMARK    3  A    between atoms: C_6  and  C_7
REMARK    4  A    between atoms: N_8  and  C_9
REMARK    5  A    between atoms: C_9  and  C_10
REMARK    6  A    between atoms: C_17  and  O_18
REMARK    7  A    between atoms: O_18  and  C_19
REMARK    8  A    between atoms: C_25  and  N_54
REMARK                            x       y       z     vdW  Elec       q    Type
REMARK                         _______ _______ _______ _____ _____    ______ ____
ROOT
ATOM      1  C   UNL     1      -2.441   3.924   0.044  0.00  0.00    -0.012 C 
ATOM      2  C   UNL     1      -1.233   3.024   0.073  0.00  0.00    -0.011 A 
ATOM      3  C   UNL     1      -1.349   1.650   0.063  0.00  0.00    -0.040 A 
ATOM      4  C   UNL     1      -0.212   0.858   0.084  0.00  0.00    +0.053 A 
ATOM      5  C   UNL     1       1.047   1.436   0.107  0.00  0.00    +0.170 A 
ATOM      6  C   UNL     1       1.169   2.821   0.114  0.00  0.00    +0.208 A 
ATOM      7  C   UNL     1       0.028   3.611   0.098  0.00  0.00    +0.167 A 
ATOM      8  O   UNL     1       2.496   3.143   0.138  0.00  0.00    -0.449 OA
ATOM      9  C   UNL     1       3.188   1.947  -0.268  0.00  0.00    +0.467 C 
ATOM     10  O   UNL     1       2.297   0.887   0.125  0.00  0.00    -0.452 OA
ATOM     11  C   UNL     1      -2.695   0.971   0.041  0.00  0.00    +0.017 C 
ATOM     12  C   UNL     1      -3.772   1.962  -0.401  0.00  0.00    -0.074 C 
ATOM     13  C   UNL     1      -4.844   4.024   0.289  0.00  0.00    -0.095 C 
ATOM     14  N   UNL     1      -3.642   3.173   0.438  0.00  0.00    +0.384 N 
ATOM     15  H   UNL     1      -3.553   2.892   1.421  0.00  0.00    -0.081 HD
ENDROOT
BRANCH   7  16
ATOM     16  O   UNL     1       0.143   4.966   0.106  0.00  0.00    -0.491 OA
ATOM     17  C   UNL     1       0.221   5.619  -1.162  0.00  0.00    +0.277 C 
ENDBRANCH   7  16
BRANCH   1  18
ATOM     18  C   UNL     1      -2.229   5.085   1.017  0.00  0.00    +0.130 C 
BRANCH  18  20
ATOM     19  C   UNL     1      -1.972   5.410   3.419  0.00  0.00    +0.099 C 
ATOM     20  N   UNL     1      -2.071   4.561   2.376  0.00  0.00    -0.296 NA
BRANCH  19  24
ATOM     21  N   UNL     1      -1.688   5.252   7.096  0.00  0.00    -0.253 N 
ATOM     22  C   UNL     1      -1.839   5.805   5.875  0.00  0.00    +0.238 C 
ATOM     23  O   UNL     1      -1.983   7.006   5.747  0.00  0.00    -0.274 OA
ATOM     24  C   UNL     1      -1.824   4.915   4.701  0.00  0.00    +0.202 C 
ATOM     25  C   UNL     1      -1.650   3.473   4.954  0.00  0.00    +0.236 C 
ATOM     26  O   UNL     1      -1.632   2.675   4.035  0.00  0.00    -0.274 OA
ATOM     27  N   UNL     1      -1.505   3.063   6.231  0.00  0.00    -0.266 N 
ATOM     28  C   UNL     1      -1.528   3.930   7.252  0.00  0.00    +0.146 C 
ATOM     29  S   UNL     1      -1.344   3.317   8.840  0.00  0.00    -0.018 S 
ATOM     30  H   UNL     1      -1.386   2.118   6.414  0.00  0.00    +0.157 HD
BRANCH  21  32
ATOM     31  C   UNL     1      -3.134   6.255   8.795  0.00  0.00    +0.025 C 
ATOM     32  C   UNL     1      -1.700   6.115   8.280  0.00  0.00    +0.112 C 
ENDBRANCH  21  32
ENDBRANCH  19  24
ENDBRANCH  18  20
ENDBRANCH   1  18
TORSDOF 5
