REMARK  Name = ZINC34954794
REMARK  10 active torsions:
REMARK  status: ('A' for Active; 'I' for Inactive)
REMARK    1  A    between atoms: C_1  and  C_2
REMARK    2  A    between atoms: C_2  and  C_3
REMARK    3  A    between atoms: C_2  and  C_4
REMARK    4  A    between atoms: N_9  and  C_23
REMARK    5  A    between atoms: C_13  and  C_21
REMARK    6  A    between atoms: C_14  and  N_20
REMARK    7  A    between atoms: C_15  and  C_16
REMARK    8  A    between atoms: C_15  and  C_18
REMARK    9  A    between atoms: C_23  and  C_24
REMARK   10  A    between atoms: C_23  and  C_25
REMARK                            x       y       z     vdW  Elec       q    Type
REMARK                         _______ _______ _______ _____ _____    ______ ____
ROOT
ATOM      1  C   UNL     1      -1.468  -0.421   0.086  0.00  0.00    +0.040 C 
ATOM      2  C   UNL     1      -1.564  -1.947   0.142  0.00  0.00    +0.040 C 
ATOM      3  C   UNL     1      -1.023  -2.498   1.442  0.00  0.00    +0.093 C 
ATOM      4  N   UNL     1       0.347  -2.999   1.297  0.00  0.00    -0.296 NA
ATOM      5  C   UNL     1       0.389  -4.081   0.297  0.00  0.00    +0.112 C 
ATOM      6  C   UNL     1      -0.017  -3.492  -1.032  0.00  0.00    -0.007 C 
ATOM      7  C   UNL     1      -0.873  -2.504  -1.069  0.00  0.00    -0.027 C 
ATOM      8  C   UNL     1      -1.165  -1.858  -2.373  0.00  0.00    +0.074 C 
ATOM      9  C   UNL     1      -1.780  -0.648  -2.391  0.00  0.00    +0.054 C 
ATOM     10  C   UNL     1      -2.213   0.080  -1.151  0.00  0.00    +0.184 C 
ENDROOT
BRANCH   1  12
ATOM     11  C   UNL     1       0.453  -0.015  -1.460  0.00  0.00    +0.007 C 
ATOM     12  C   UNL     1       0.002  -0.004   0.002  0.00  0.00    -0.011 C 
ATOM     13  C   UNL     1       0.166   1.405   0.576  0.00  0.00    +0.007 C 
ENDBRANCH   1  12
BRANCH   9  14
ATOM     14  N   UNL     1      -2.018  -0.061  -3.602  0.00  0.00    -0.358 N 
ATOM     15  H   UNL     1      -1.749  -0.508  -4.419  0.00  0.00    +0.142 HD
ATOM     16  H   UNL     1      -2.456   0.804  -3.644  0.00  0.00    +0.142 HD
ENDBRANCH   9  14
BRANCH   4  17
ATOM     17  C   UNL     1       0.880  -3.455   2.588  0.00  0.00    +0.051 C 
ATOM     18  C   UNL     1       2.308  -3.970   2.397  0.00  0.00    +0.024 C 
ATOM     19  C   UNL     1       0.886  -2.288   3.578  0.00  0.00    +0.024 C 
ENDBRANCH   4  17
BRANCH  10  20
ATOM     20  C   UNL     1      -1.951   1.519  -1.320  0.00  0.00    +0.091 C 
ATOM     21  N   UNL     1      -1.748   2.629  -1.450  0.00  0.00    -0.195 NA
ENDBRANCH  10  20
BRANCH  10  22
ATOM     22  C   UNL     1      -3.658  -0.122  -0.956  0.00  0.00    +0.091 C 
ATOM     23  N   UNL     1      -4.773  -0.279  -0.805  0.00  0.00    -0.195 NA
ENDBRANCH  10  22
BRANCH   8  24
ATOM     24  C   UNL     1      -0.801  -2.503  -3.599  0.00  0.00    +0.101 C 
ATOM     25  N   UNL     1      -0.513  -3.015  -4.571  0.00  0.00    -0.191 NA
ENDBRANCH   8  24
TORSDOF 6
