REMARK  Name = ZINC03460680
REMARK  6 active torsions:
REMARK  status: ('A' for Active; 'I' for Inactive)
REMARK    1  A    between atoms: C_1  and  C_2
REMARK    2  A    between atoms: C_2  and  C_23
REMARK    3  A    between atoms: N_5  and  C_9
REMARK    4  A    between atoms: C_9  and  C_10
REMARK    5  A    between atoms: N_12  and  C_13
REMARK    6  A    between atoms: C_18  and  C_19
REMARK                            x       y       z     vdW  Elec       q    Type
REMARK                         _______ _______ _______ _____ _____    ______ ____
ROOT
ATOM      1  C   UNL     1      -1.865  10.090  -0.607  0.00  0.00    +0.047 C 
ATOM      2  C   UNL     1      -3.199   9.543  -0.095  0.00  0.00    +0.135 C 
ATOM      3  C   UNL     1      -3.468   8.168  -0.673  0.00  0.00    +0.251 C 
ATOM      4  O   UNL     1      -3.595   7.878  -1.843  0.00  0.00    -0.272 OA
ATOM      5  N   UNL     1      -3.537   7.335   0.384  0.00  0.00    -0.215 N 
ATOM      6  C   UNL     1      -3.355   7.987   1.538  0.00  0.00    +0.310 C 
ATOM      7  O   UNL     1      -3.377   7.450   2.628  0.00  0.00    -0.252 OA
ATOM      8  N   UNL     1      -3.141   9.303   1.357  0.00  0.00    -0.281 N 
ATOM      9  H   UNL     1      -2.983   9.965   2.048  0.00  0.00    +0.152 HD
ENDROOT
BRANCH   2  10
ATOM     10  C   UNL     1      -4.322  10.490  -0.432  0.00  0.00    -0.016 A 
ATOM     11  C   UNL     1      -5.038  10.323  -1.603  0.00  0.00    +0.006 A 
ATOM     12  C   UNL     1      -6.072  11.188  -1.909  0.00  0.00    +0.000 A 
ATOM     13  C   UNL     1      -6.383  12.226  -1.050  0.00  0.00    +0.000 A 
ATOM     14  C   UNL     1      -5.663  12.396   0.118  0.00  0.00    +0.000 A 
ATOM     15  C   UNL     1      -4.633  11.527   0.427  0.00  0.00    +0.006 A 
ENDBRANCH   2  10
BRANCH   5  16
ATOM     16  C   UNL     1      -3.786   5.895   0.283  0.00  0.00    +0.214 C 
BRANCH  16  17
ATOM     17  C   UNL     1      -2.473   5.166   0.153  0.00  0.00    +0.235 C 
ATOM     18  O   UNL     1      -1.432   5.789   0.146  0.00  0.00    -0.274 OA
ATOM     19  N   UNL     1      -2.456   3.823   0.045  0.00  0.00    -0.284 N 
ATOM     20  H   UNL     1      -3.290   3.331  -0.015  0.00  0.00    +0.155 HD
BRANCH  19  21
ATOM     21  C   UNL     1      -1.236   3.139   0.020  0.00  0.00    +0.045 A 
ATOM     22  C   UNL     1      -0.130   3.711  -0.594  0.00  0.00    +0.024 A 
ATOM     23  C   UNL     1       1.073   3.033  -0.617  0.00  0.00    +0.002 A 
ATOM     24  C   UNL     1       1.177   1.785  -0.030  0.00  0.00    +0.001 A 
ATOM     25  C   UNL     1       0.077   1.212   0.581  0.00  0.00    +0.014 A 
ATOM     26  C   UNL     1      -1.131   1.883   0.603  0.00  0.00    +0.076 A 
BRANCH  26  27
ATOM     27  C   UNL     1      -2.331   1.255   1.264  0.00  0.00    +0.419 C 
ATOM     28  F   UNL     1      -1.978   0.003   1.778  0.00  0.00    -0.166 F 
ATOM     29  F   UNL     1      -2.774   2.078   2.304  0.00  0.00    -0.166 F 
ATOM     30  F   UNL     1      -3.354   1.100   0.322  0.00  0.00    -0.166 F 
ENDBRANCH  26  27
ENDBRANCH  19  21
ENDBRANCH  16  17
ENDBRANCH   5  16
TORSDOF 5
