REMARK  Name = ZINC35486630
REMARK  10 active torsions:
REMARK  status: ('A' for Active; 'I' for Inactive)
REMARK    1  A    between atoms: C_1  and  N_2
REMARK    2  A    between atoms: N_2  and  C_3
REMARK    3  A    between atoms: N_2  and  C_4
REMARK    4  A    between atoms: C_4  and  C_5
REMARK    5  A    between atoms: C_5  and  N_6
REMARK    6  A    between atoms: C_7  and  C_23
REMARK    7  A    between atoms: C_26  and  O_31
REMARK    8  A    between atoms: C_27  and  O_29
REMARK    9  A    between atoms: O_29  and  C_30
REMARK   10  A    between atoms: O_31  and  C_32
REMARK                            x       y       z     vdW  Elec       q    Type
REMARK                         _______ _______ _______ _____ _____    ______ ____
ROOT
ATOM      1  N   UNL     1      -3.452  -0.617  -1.276  0.00  0.00    -0.285 N 
ATOM      2  C   UNL     1      -3.894  -1.929  -1.777  0.00  0.00    +0.145 C 
ATOM      3  C   UNL     1      -5.370  -1.976  -1.550  0.00  0.00    +0.072 A 
ATOM      4  C   UNL     1      -6.361  -3.014  -1.850  0.00  0.00    +0.199 A 
ATOM      5  O   UNL     1      -6.061  -4.139  -2.208  0.00  0.00    -0.287 OA
ATOM      6  C   UNL     1      -7.765  -2.564  -1.673  0.00  0.00    +0.065 A 
ATOM      7  C   UNL     1      -8.822  -3.365  -2.107  0.00  0.00    +0.030 A 
ATOM      8  C   UNL     1     -10.118  -2.929  -1.940  0.00  0.00    +0.019 A 
ATOM      9  C   UNL     1     -10.368  -1.699  -1.344  0.00  0.00    +0.019 A 
ATOM     10  C   UNL     1      -9.332  -0.903  -0.911  0.00  0.00    +0.048 A 
ATOM     11  C   UNL     1      -8.011  -1.322  -1.067  0.00  0.00    +0.140 A 
ATOM     12  O   UNL     1      -7.013  -0.524  -0.624  0.00  0.00    -0.450 OA
ATOM     13  C   UNL     1      -5.739  -0.797  -0.966  0.00  0.00    +0.199 A 
ATOM     14  C   UNL     1      -4.534   0.034  -0.800  0.00  0.00    +0.283 C 
ATOM     15  O   UNL     1      -4.517   1.145  -0.309  0.00  0.00    -0.267 OA
ATOM     16 BR   UNL     1     -11.559  -4.006  -2.522  0.00  0.00    -0.050 Br
ENDROOT
BRANCH   2  17
ATOM     17  C   UNL     1      -3.588  -2.054  -3.247  0.00  0.00    -0.019 A 
ATOM     18  C   UNL     1      -3.771  -0.969  -4.084  0.00  0.00    +0.009 A 
ATOM     19  C   UNL     1      -3.492  -1.079  -5.434  0.00  0.00    +0.050 A 
ATOM     20  C   UNL     1      -3.027  -2.278  -5.950  0.00  0.00    +0.162 A 
ATOM     21  C   UNL     1      -2.842  -3.369  -5.107  0.00  0.00    +0.162 A 
ATOM     22  C   UNL     1      -3.120  -3.252  -3.755  0.00  0.00    +0.055 A 
BRANCH  21  23
ATOM     23  O   UNL     1      -2.387  -4.548  -5.609  0.00  0.00    -0.491 OA
ATOM     24  C   UNL     1      -2.221  -5.626  -4.685  0.00  0.00    +0.277 C 
ENDBRANCH  21  23
BRANCH  20  25
ATOM     25  O   UNL     1      -2.752  -2.387  -7.277  0.00  0.00    -0.491 OA
ATOM     26  C   UNL     1      -2.966  -1.226  -8.082  0.00  0.00    +0.277 C 
ENDBRANCH  20  25
ENDBRANCH   2  17
BRANCH   1  27
ATOM     27  C   UNL     1      -2.078  -0.110  -1.286  0.00  0.00    +0.090 C 
BRANCH  27  28
ATOM     28  C   UNL     1      -1.376  -0.512   0.012  0.00  0.00    -0.060 C 
BRANCH  28  30
ATOM     29  C   UNL     1      -0.018   1.465   0.010  0.00  0.00    -0.097 C 
ATOM     30  N   UNL     1       0.002  -0.004   0.002  0.00  0.00    +0.377 N 
ATOM     31  C   UNL     1       0.713  -0.491   1.192  0.00  0.00    -0.097 C 
ATOM     32  H   UNL     1       0.474  -0.330  -0.828  0.00  0.00    -0.083 HD
ENDBRANCH  28  30
ENDBRANCH  27  28
ENDBRANCH   1  27
TORSDOF 6
