REMARK  Name = ZINC20436578
REMARK  5 active torsions:
REMARK  status: ('A' for Active; 'I' for Inactive)
REMARK    1  A    between atoms: C_1  and  C_2
REMARK    2  A    between atoms: C_6  and  C_28
REMARK    3  A    between atoms: C_7  and  N_8
REMARK    4  A    between atoms: C_18  and  C_19
REMARK    5  A    between atoms: C_18  and  C_25
REMARK                            x       y       z     vdW  Elec       q    Type
REMARK                         _______ _______ _______ _____ _____    ______ ____
ROOT
ATOM      1  N   UNL     1      -0.731   2.391  -0.447  0.00  0.00    -0.231 N 
ATOM      2  C   UNL     1       0.573   2.647  -0.221  0.00  0.00    +0.255 C 
ATOM      3  O   UNL     1       1.024   3.759  -0.423  0.00  0.00    -0.269 OA
ATOM      4  C   UNL     1       1.448   1.569   0.273  0.00  0.00    +0.058 A 
ATOM      5  C   UNL     1       2.745   1.825   0.711  0.00  0.00    +0.015 A 
ATOM      6  C   UNL     1       3.520   0.787   1.187  0.00  0.00    +0.001 A 
ATOM      7  C   UNL     1       3.016  -0.503   1.231  0.00  0.00    +0.002 A 
ATOM      8  C   UNL     1       1.733  -0.772   0.795  0.00  0.00    +0.024 A 
ATOM      9  C   UNL     1       0.944   0.258   0.311  0.00  0.00    +0.042 A 
ATOM     10  N   UNL     1      -0.349   0.035  -0.149  0.00  0.00    -0.310 N 
ATOM     11  C   UNL     1      -1.331   1.121  -0.050  0.00  0.00    +0.236 C 
ATOM     12  H   UNL     1      -0.642  -0.934  -0.580  0.00  0.00    +0.149 HD
ENDROOT
BRANCH   1  19
ATOM     13  C   UNL     1      -1.827   4.477   1.147  0.00  0.00    +0.045 C 
ATOM     14  C   UNL     1      -2.077   4.392  -0.337  0.00  0.00    -0.029 A 
ATOM     15  C   UNL     1      -2.853   5.348  -0.963  0.00  0.00    +0.005 A 
ATOM     16  C   UNL     1      -3.087   5.267  -2.323  0.00  0.00    +0.001 A 
ATOM     17  C   UNL     1      -2.541   4.234  -3.062  0.00  0.00    +0.005 A 
ATOM     18  C   UNL     1      -1.759   3.279  -2.443  0.00  0.00    -0.029 A 
ATOM     19  C   UNL     1      -1.522   3.357  -1.077  0.00  0.00    +0.045 A 
ATOM     20  C   UNL     1      -1.163   2.154  -3.249  0.00  0.00    +0.045 C 
ENDBRANCH   1  19
BRANCH  11  21
ATOM     21  C   UNL     1      -1.817   1.227   1.372  0.00  0.00    +0.005 A 
ATOM     22  C   UNL     1      -2.775   2.165   1.707  0.00  0.00    +0.008 A 
ATOM     23  C   UNL     1      -3.225   2.259   3.011  0.00  0.00    +0.000 A 
ATOM     24  C   UNL     1      -2.708   1.421   3.982  0.00  0.00    +0.000 A 
ATOM     25  C   UNL     1      -1.746   0.487   3.648  0.00  0.00    +0.000 A 
ATOM     26  C   UNL     1      -1.300   0.390   2.343  0.00  0.00    +0.008 A 
ENDBRANCH  11  21
BRANCH  11  27
ATOM     27  C   UNL     1      -2.501   0.820  -0.952  0.00  0.00    +0.402 C 
ATOM     28  O   UNL     1      -2.956   1.686  -1.661  0.00  0.00    -0.242 OA
ATOM     29  O   UNL     1      -3.036  -0.411  -0.967  0.00  0.00    -0.242 OA
ENDBRANCH  11  27
TORSDOF 3
