REMARK  Name = ZINC19526914
REMARK  6 active torsions:
REMARK  status: ('A' for Active; 'I' for Inactive)
REMARK    1  A    between atoms: C_1  and  C_2
REMARK    2  A    between atoms: C_2  and  N_3
REMARK    3  A    between atoms: C_5  and  C_10
REMARK    4  A    between atoms: C_16  and  C_18
REMARK    5  A    between atoms: C_23  and  C_30
REMARK    6  A    between atoms: C_26  and  C_29
REMARK                            x       y       z     vdW  Elec       q    Type
REMARK                         _______ _______ _______ _____ _____    ______ ____
ROOT
ATOM      1  C   UNL     1       1.392   4.582  -0.313  0.00  0.00    +0.221 C 
ATOM      2  O   UNL     1       0.762   5.329  -1.031  0.00  0.00    -0.275 OA
ATOM      3  N   UNL     1       2.724   4.737  -0.183  0.00  0.00    -0.293 N 
ATOM      4  C   UNL     1       3.608   3.908   0.657  0.00  0.00    +0.108 C 
ATOM      5  C   UNL     1       4.831   4.807   0.958  0.00  0.00    +0.021 C 
ATOM      6  C   UNL     1       4.994   5.573  -0.382  0.00  0.00    +0.030 C 
ATOM      7  C   UNL     1       3.537   5.765  -0.850  0.00  0.00    +0.127 C 
ENDROOT
BRANCH   7   8
ATOM      8  C   UNL     1       3.452   5.595  -2.345  0.00  0.00    +0.085 A 
ATOM      9  C   UNL     1       3.651   6.603  -3.297  0.00  0.00    +0.070 A 
ATOM     10  C   UNL     1       3.489   6.049  -4.519  0.00  0.00    +0.118 A 
ATOM     11  N   UNL     1       3.195   4.734  -4.346  0.00  0.00    -0.239 N 
ATOM     12  N   UNL     1       3.185   4.477  -2.976  0.00  0.00    -0.172 NA
ATOM     13  C   UNL     1       2.946   3.803  -5.450  0.00  0.00    +0.214 C 
ATOM     14  C   UNL     1       2.598   4.606  -6.709  0.00  0.00    +0.058 C 
ATOM     15  C   UNL     1       3.640   5.708  -6.928  0.00  0.00    +0.071 C 
ATOM     16  N   UNL     1       3.588   6.637  -5.782  0.00  0.00    -0.327 N 
ATOM     17  C   UNL     1       3.325   6.463  -8.221  0.00  0.00    +0.028 C 
ATOM     18  H   UNL     1       3.628   7.723  -5.952  0.00  0.00    +0.148 HD
BRANCH  13  19
ATOM     19  C   UNL     1       1.781   2.880  -5.090  0.00  0.00    +0.412 C 
ATOM     20  F   UNL     1       0.633   3.646  -4.860  0.00  0.00    -0.168 F 
ATOM     21  F   UNL     1       1.546   1.992  -6.145  0.00  0.00    -0.168 F 
ATOM     22  F   UNL     1       2.098   2.157  -3.934  0.00  0.00    -0.168 F 
ENDBRANCH  13  19
ENDBRANCH   7   8
BRANCH   1  25
ATOM     23  N   UNL     1      -1.127   1.963   0.018  0.00  0.00    -0.301 N 
ATOM     24  C   UNL     1      -0.800   3.394   0.017  0.00  0.00    +0.121 C 
ATOM     25  C   UNL     1       0.685   3.479   0.433  0.00  0.00    +0.101 C 
ATOM     26  C   UNL     1       1.214   2.092   0.002  0.00  0.00    +0.110 C 
ATOM     27  C   UNL     1      -0.014   1.209   0.009  0.00  0.00    +0.216 C 
ATOM     28  O   UNL     1       0.002  -0.004   0.002  0.00  0.00    -0.276 OA
BRANCH  23  30
ATOM     29  C   UNL     1      -2.952   1.242   1.476  0.00  0.00    +0.024 C 
ATOM     30  C   UNL     1      -2.490   1.427   0.029  0.00  0.00    +0.104 C 
ENDBRANCH  23  30
ENDBRANCH   1  25
TORSDOF 4
