REMARK  Name = ZINC48488335
REMARK  1 active torsions:
REMARK  status: ('A' for Active; 'I' for Inactive)
REMARK    1  A    between atoms: C_3  and  N_9
REMARK                            x       y       z     vdW  Elec       q    Type
REMARK                         _______ _______ _______ _____ _____    ______ ____
ROOT
ATOM      1  N   UNL     1       3.585   2.128  -0.021  0.00  0.00    -0.268 N 
ATOM      2  C   UNL     1       3.568   3.472  -0.116  0.00  0.00    +0.307 C 
ATOM      3  O   UNL     1       2.510   4.070  -0.103  0.00  0.00    -0.252 OA
ATOM      4  N   UNL     1       4.726   4.154  -0.225  0.00  0.00    -0.275 N 
ATOM      5  C   UNL     1       4.743   5.624  -0.325  0.00  0.00    +0.128 C 
ATOM      6  C   UNL     1       5.511   6.175   0.878  0.00  0.00    +0.123 C 
ATOM      7  N   UNL     1       6.757   5.446   1.074  0.00  0.00    -0.313 N 
ATOM      8  C   UNL     1       6.995   4.216   0.615  0.00  0.00    +0.231 C 
ATOM      9  O   UNL     1       8.043   3.682   0.910  0.00  0.00    -0.274 OA
ATOM     10  C   UNL     1       6.023   3.462  -0.244  0.00  0.00    +0.205 C 
ATOM     11  H   UNL     1       4.431   1.656   0.034  0.00  0.00    +0.156 HD
ATOM     12  H   UNL     1       7.463   5.886   1.572  0.00  0.00    +0.149 HD
ENDROOT
BRANCH   1  15
ATOM     13  C   UNL     1       0.075   1.244   0.635  0.00  0.00    +0.040 A 
ATOM     14  C   UNL     1       1.262   1.951   0.617  0.00  0.00    +0.027 A 
ATOM     15  C   UNL     1       2.381   1.412  -0.002  0.00  0.00    +0.049 A 
ATOM     16  C   UNL     1       2.305   0.162  -0.604  0.00  0.00    +0.042 A 
ATOM     17  C   UNL     1       1.116  -0.542  -0.584  0.00  0.00    +0.055 A 
ATOM     18  C   UNL     1       0.001  -0.001   0.035  0.00  0.00    +0.125 A 
ATOM     19  F   UNL     1      -1.161  -0.691   0.053  0.00  0.00    -0.205 F 
ATOM     20 BR   UNL     1       3.827  -0.575  -1.449  0.00  0.00    -0.048 Br
ENDBRANCH   1  15
TORSDOF 1
