REMARK  Name = ZINC39316127
REMARK  3 active torsions:
REMARK  status: ('A' for Active; 'I' for Inactive)
REMARK    1  A    between atoms: C_1  and  C_2
REMARK    2  A    between atoms: C_5  and  C_8
REMARK    3  A    between atoms: C_10  and  C_20
REMARK                            x       y       z     vdW  Elec       q    Type
REMARK                         _______ _______ _______ _____ _____    ______ ____
ROOT
ATOM      1  C   UNL     1       0.059  -4.239   0.006  0.00  0.00    +0.143 C 
ATOM      2  C   UNL     1      -1.226  -4.761   0.620  0.00  0.00    +0.066 C 
ATOM      3  C   UNL     1      -1.107  -5.610   1.699  0.00  0.00    +0.007 A 
ATOM      4  C   UNL     1      -2.290  -6.165   2.357  0.00  0.00    +0.010 A 
ATOM      5  C   UNL     1      -2.120  -6.995   3.414  0.00  0.00    +0.001 A 
ATOM      6  C   UNL     1      -0.843  -7.331   3.886  0.00  0.00    +0.002 A 
ATOM      7  C   UNL     1       0.293  -6.854   3.325  0.00  0.00    +0.024 A 
ATOM      8  C   UNL     1       0.231  -5.979   2.216  0.00  0.00    +0.041 A 
ATOM      9  N   UNL     1       1.344  -5.517   1.673  0.00  0.00    -0.284 N 
ATOM     10  C   UNL     1       1.359  -4.693   0.629  0.00  0.00    +0.229 C 
ATOM     11  O   UNL     1       2.418  -4.305   0.177  0.00  0.00    -0.274 OA
ATOM     12  H   UNL     1       2.192  -5.793   2.054  0.00  0.00    +0.155 HD
ENDROOT
BRANCH   1  17
ATOM     13  C   UNL     1      -0.094   1.534   0.221  0.00  0.00    +0.044 C 
ATOM     14  C   UNL     1      -0.054   0.028   0.165  0.00  0.00    -0.050 A 
ATOM     15  C   UNL     1      -0.031  -0.618  -1.057  0.00  0.00    +0.003 A 
ATOM     16  C   UNL     1       0.006  -1.998  -1.109  0.00  0.00    +0.005 A 
ATOM     17  C   UNL     1       0.020  -2.733   0.062  0.00  0.00    -0.031 A 
ATOM     18  C   UNL     1      -0.003  -2.087   1.284  0.00  0.00    +0.005 A 
ATOM     19  C   UNL     1      -0.035  -0.706   1.335  0.00  0.00    +0.003 A 
ENDBRANCH   1  17
BRANCH   2  20
ATOM     20  C   UNL     1      -2.547  -4.376   0.085  0.00  0.00    +0.384 C 
ATOM     21  O   UNL     1      -2.663  -4.064  -1.091  0.00  0.00    -0.241 OA
ATOM     22  O   UNL     1      -3.525  -4.371   0.819  0.00  0.00    -0.241 OA
ENDBRANCH   2  20
TORSDOF 2
