REMARK  Name = ZINC49402848
REMARK  7 active torsions:
REMARK  status: ('A' for Active; 'I' for Inactive)
REMARK    1  A    between atoms: C_1  and  C_2
REMARK    2  A    between atoms: C_2  and  C_3
REMARK    3  A    between atoms: C_6  and  N_9
REMARK    4  A    between atoms: C_10  and  C_12
REMARK    5  A    between atoms: C_12  and  N_13
REMARK    6  A    between atoms: C_16  and  C_21
REMARK    7  A    between atoms: C_24  and  C_27
REMARK                            x       y       z     vdW  Elec       q    Type
REMARK                         _______ _______ _______ _____ _____    ______ ____
ROOT
ATOM      1  N   UNL     1       1.900  -2.519   8.133  0.00  0.00    -0.247 N 
ATOM      2  C   UNL     1       1.669  -1.399   8.878  0.00  0.00    +0.065 C 
ATOM      3  C   UNL     1       0.817  -1.421   9.926  0.00  0.00    +0.082 C 
ATOM      4  C   UNL     1       0.128  -2.730  10.249  0.00  0.00    +0.144 C 
ATOM      5  N   UNL     1       0.446  -3.881   9.386  0.00  0.00    -0.288 N 
ATOM      6  C   UNL     1       1.315  -3.701   8.371  0.00  0.00    +0.307 C 
ATOM      7  O   UNL     1       1.579  -4.643   7.650  0.00  0.00    -0.252 OA
ATOM      8  C   UNL     1       0.760  -0.146  10.517  0.00  0.00    +0.339 C 
ATOM      9  O   UNL     1       0.075   0.137  11.482  0.00  0.00    -0.245 OA
ATOM     10  O   UNL     1       1.564   0.720   9.871  0.00  0.00    -0.455 OA
ATOM     11  C   UNL     1       2.198   0.014   8.796  0.00  0.00    +0.284 C 
ATOM     12  H   UNL     1       0.038  -4.746   9.542  0.00  0.00    +0.151 HD
ENDROOT
BRANCH   4  13
ATOM     13  C   UNL     1       0.478  -3.102  11.667  0.00  0.00    -0.022 A 
ATOM     14  C   UNL     1       1.699  -3.688  11.946  0.00  0.00    +0.006 A 
ATOM     15  C   UNL     1       2.020  -4.029  13.247  0.00  0.00    +0.004 A 
ATOM     16  C   UNL     1       1.121  -3.785  14.268  0.00  0.00    -0.050 A 
ATOM     17  C   UNL     1      -0.099  -3.198  13.988  0.00  0.00    +0.004 A 
ATOM     18  C   UNL     1      -0.419  -2.853  12.688  0.00  0.00    +0.006 A 
ATOM     19  C   UNL     1       1.471  -4.158  15.685  0.00  0.00    +0.044 C 
ENDBRANCH   4  13
BRANCH   1  20
ATOM     20  C   UNL     1       2.836  -2.423   7.010  0.00  0.00    +0.211 C 
BRANCH  20  22
ATOM     21  N   UNL     1       2.746  -1.883   4.598  0.00  0.00    -0.284 N 
ATOM     22  C   UNL     1       2.085  -2.032   5.763  0.00  0.00    +0.235 C 
ATOM     23  O   UNL     1       0.887  -1.852   5.809  0.00  0.00    -0.274 OA
ATOM     24  H   UNL     1       3.692  -2.093   4.546  0.00  0.00    +0.155 HD
BRANCH  21  28
ATOM     25  C   UNL     1       0.725  -0.523   1.218  0.00  0.00    -0.048 A 
ATOM     26  C   UNL     1       0.078  -1.339   2.127  0.00  0.00    +0.005 A 
ATOM     27  C   UNL     1       0.745  -1.792   3.249  0.00  0.00    +0.023 A 
ATOM     28  C   UNL     1       2.067  -1.427   3.463  0.00  0.00    +0.033 A 
ATOM     29  C   UNL     1       2.715  -0.608   2.547  0.00  0.00    +0.023 A 
ATOM     30  C   UNL     1       2.044  -0.162   1.425  0.00  0.00    +0.005 A 
BRANCH  25  32
ATOM     31  C   UNL     1       0.181  -1.031  -1.147  0.00  0.00    +0.009 C 
ATOM     32  C   UNL     1      -0.005  -0.031  -0.004  0.00  0.00    +0.032 C 
ENDBRANCH  25  32
ENDBRANCH  21  28
ENDBRANCH  20  22
ENDBRANCH   1  20
TORSDOF 5
