REMARK  Name = ZINC07525859
REMARK  6 active torsions:
REMARK  status: ('A' for Active; 'I' for Inactive)
REMARK    1  A    between atoms: C_1  and  C_2
REMARK    2  A    between atoms: C_7  and  C_8
REMARK    3  A    between atoms: C_8  and  C_9
REMARK    4  A    between atoms: N_11  and  N_12
REMARK    5  A    between atoms: C_13  and  C_15
REMARK    6  A    between atoms: C_15  and  N_16
REMARK                            x       y       z     vdW  Elec       q    Type
REMARK                         _______ _______ _______ _____ _____    ______ ____
ROOT
ATOM      1  N   UNL     1      -0.842  -5.850  -1.683  0.00  0.00    -0.233 N 
ATOM      2  C   UNL     1      -0.529  -4.563  -1.433  0.00  0.00    +0.248 C 
ATOM      3  O   UNL     1      -0.263  -3.815  -2.350  0.00  0.00    -0.272 OA
ATOM      4  H   UNL     1      -1.054  -6.448  -0.950  0.00  0.00    +0.173 HD
ENDROOT
BRANCH   1   7
ATOM      5  C   UNL     1      -1.171  -7.611  -3.251  0.00  0.00    +0.233 C 
ATOM      6  O   UNL     1      -1.438  -8.359  -2.335  0.00  0.00    -0.274 OA
ATOM      7  N   UNL     1      -0.859  -6.324  -3.002  0.00  0.00    -0.234 N 
ATOM      8  H   UNL     1      -0.646  -5.725  -3.735  0.00  0.00    +0.173 HD
BRANCH   5   9
ATOM      9  C   UNL     1      -1.190  -8.120  -4.670  0.00  0.00    +0.132 C 
BRANCH   9  16
ATOM     10  C   UNL     1      -3.974  -8.894  -4.648  0.00  0.00    +0.044 C 
ATOM     11  C   UNL     1      -2.898  -9.949  -4.664  0.00  0.00    -0.047 A 
ATOM     12  C   UNL     1      -3.244 -11.288  -4.669  0.00  0.00    +0.003 A 
ATOM     13  C   UNL     1      -2.257 -12.256  -4.684  0.00  0.00    +0.000 A 
ATOM     14  C   UNL     1      -0.925 -11.886  -4.694  0.00  0.00    +0.000 A 
ATOM     15  C   UNL     1      -0.580 -10.547  -4.695  0.00  0.00    +0.004 A 
ATOM     16  C   UNL     1      -1.567  -9.579  -4.674  0.00  0.00    -0.036 A 
ENDBRANCH   9  16
ENDBRANCH   5   9
ENDBRANCH   1   7
BRANCH   2  17
ATOM     17  C   UNL     1      -0.510  -4.054  -0.015  0.00  0.00    +0.228 C 
BRANCH  17  18
ATOM     18  N   UNL     1      -0.144  -2.635  -0.011  0.00  0.00    -0.193 N 
ATOM     19  C   UNL     1       1.151  -2.091  -0.019  0.00  0.00    +0.061 A 
ATOM     20  C   UNL     1       2.365  -2.775  -0.034  0.00  0.00    +0.025 A 
ATOM     21  C   UNL     1       3.571  -2.085  -0.041  0.00  0.00    +0.002 A 
ATOM     22  C   UNL     1       3.633  -0.723  -0.035  0.00  0.00    +0.009 A 
ATOM     23  C   UNL     1       2.435   0.011  -0.020  0.00  0.00    -0.014 A 
ATOM     24  C   UNL     1       1.216  -0.699  -0.013  0.00  0.00    +0.031 A 
ATOM     25  C   UNL     1       0.002  -0.004   0.002  0.00  0.00    +0.118 A 
ATOM     26  C   UNL     1      -0.016   1.341   0.009  0.00  0.00    +0.029 A 
ATOM     27  C   UNL     1       1.189   2.056   0.002  0.00  0.00    +0.003 A 
ATOM     28  C   UNL     1       2.392   1.415  -0.012  0.00  0.00    +0.009 A 
ATOM     29  S   UNL     1      -1.183  -1.319   0.006  0.00  0.00    +0.076 S 
ATOM     30  O   UNL     1      -1.844  -1.304   1.264  0.00  0.00    -0.150 OA
ATOM     31  O   UNL     1      -1.867  -1.290  -1.240  0.00  0.00    -0.150 OA
ENDBRANCH  17  18
ENDBRANCH   2  17
TORSDOF 5
