REMARK  Name = ZINC07961390
REMARK  3 active torsions:
REMARK  status: ('A' for Active; 'I' for Inactive)
REMARK    1  A    between atoms: C_11  and  N_14
REMARK    2  A    between atoms: C_15  and  C_17
REMARK    3  A    between atoms: C_22  and  N_23
REMARK                            x       y       z     vdW  Elec       q    Type
REMARK                         _______ _______ _______ _____ _____    ______ ____
ROOT
ATOM      1  N   UNL     1      -0.991  -1.153   1.070  0.00  0.00    -0.281 N 
ATOM      2  C   UNL     1      -2.143  -0.483   1.269  0.00  0.00    +0.251 C 
ATOM      3  O   UNL     1      -2.118   0.683   1.610  0.00  0.00    -0.270 OA
ATOM      4  H   UNL     1      -1.010  -2.061   0.730  0.00  0.00    +0.155 HD
ENDROOT
BRANCH   1  15
ATOM      5  C   UNL     1       3.352   5.293   1.160  0.00  0.00    +0.000 A 
ATOM      6  C   UNL     1       2.039   5.186   0.737  0.00  0.00    +0.001 A 
ATOM      7  C   UNL     1       1.392   3.969   0.779  0.00  0.00    +0.009 A 
ATOM      8  C   UNL     1       2.062   2.839   1.250  0.00  0.00    -0.014 A 
ATOM      9  C   UNL     1       3.383   2.956   1.673  0.00  0.00    -0.035 A 
ATOM     10  C   UNL     1       4.022   4.177   1.628  0.00  0.00    +0.004 A 
ATOM     11  C   UNL     1       3.840   1.589   2.122  0.00  0.00    +0.071 C 
ATOM     12  C   UNL     1       2.662   0.668   1.920  0.00  0.00    -0.035 A 
ATOM     13  C   UNL     1       1.618   1.431   1.402  0.00  0.00    -0.012 A 
ATOM     14  C   UNL     1       0.397   0.818   1.119  0.00  0.00    +0.032 A 
ATOM     15  C   UNL     1       0.233  -0.538   1.354  0.00  0.00    +0.034 A 
ATOM     16  C   UNL     1       1.283  -1.287   1.871  0.00  0.00    +0.023 A 
ATOM     17  C   UNL     1       2.493  -0.681   2.152  0.00  0.00    +0.006 A 
ENDBRANCH   1  15
BRANCH   2  18
ATOM     18  C   UNL     1      -3.439  -1.167   1.071  0.00  0.00    +0.069 A 
ATOM     19  C   UNL     1      -3.475  -2.462   0.549  0.00  0.00    +0.035 A 
ATOM     20  C   UNL     1      -4.689  -3.095   0.367  0.00  0.00    +0.042 A 
ATOM     21  C   UNL     1      -5.867  -2.448   0.702  0.00  0.00    +0.022 A 
ATOM     22  C   UNL     1      -5.836  -1.166   1.219  0.00  0.00    +0.035 A 
ATOM     23  C   UNL     1      -4.630  -0.524   1.411  0.00  0.00    +0.138 A 
ATOM     24 CL   UNL     1      -4.737  -4.704  -0.281  0.00  0.00    -0.084 Cl
BRANCH  23  25
ATOM     25  N   UNL     1      -4.600   0.846   1.970  0.00  0.00    +0.057 N 
ATOM     26  O   UNL     1      -3.870   1.103   2.911  0.00  0.00    -0.126 OA
ATOM     27  O   UNL     1      -5.304   1.716   1.489  0.00  0.00    -0.126 OA
ENDBRANCH  23  25
ENDBRANCH   2  18
TORSDOF 3
