REMARK  Name = ZINC63831333
REMARK  8 active torsions:
REMARK  status: ('A' for Active; 'I' for Inactive)
REMARK    1  A    between atoms: C_1  and  O_2
REMARK    2  A    between atoms: O_2  and  C_3
REMARK    3  A    between atoms: C_6  and  C_9
REMARK    4  A    between atoms: C_9  and  C_11
REMARK    5  A    between atoms: C_9  and  C_22
REMARK    6  A    between atoms: C_11  and  N_12
REMARK    7  A    between atoms: C_13  and  C_15
REMARK    8  A    between atoms: C_15  and  N_16
REMARK                            x       y       z     vdW  Elec       q    Type
REMARK                         _______ _______ _______ _____ _____    ______ ____
ROOT
ATOM      1  C   UNL     1       2.505  -2.503  -4.381  0.00  0.00    +0.064 C 
ENDROOT
BRANCH   1   2
ATOM      2  C   UNL     1       1.505  -3.369  -5.104  0.00  0.00    -0.033 C 
ATOM      3  C   UNL     1       1.118  -3.260  -6.396  0.00  0.00    -0.000 A 
ATOM      4  C   UNL     1       1.498  -2.337  -7.473  0.00  0.00    +0.010 A 
ATOM      5  C   UNL     1       0.925  -2.479  -8.690  0.00  0.00    +0.001 A 
ATOM      6  C   UNL     1      -0.019  -3.482  -8.948  0.00  0.00    +0.002 A 
ATOM      7  C   UNL     1      -0.418  -4.367  -8.010  0.00  0.00    +0.026 A 
ATOM      8  C   UNL     1       0.119  -4.311  -6.694  0.00  0.00    +0.043 A 
ATOM      9  N   UNL     1      -0.103  -5.041  -5.629  0.00  0.00    -0.380 N 
ATOM     10  C   UNL     1       0.735  -4.539  -4.534  0.00  0.00    +0.145 C 
ATOM     11  H   UNL     1      -0.716  -5.791  -5.574  0.00  0.00    +0.160 HD
ENDBRANCH   1   2
BRANCH   1  15
ATOM     12  C   UNL     1       0.606  -0.607  -1.056  0.00  0.00    +0.120 A 
ATOM     13  C   UNL     1       1.173   0.161  -2.062  0.00  0.00    +0.046 A 
ATOM     14  C   UNL     1       1.786  -0.455  -3.136  0.00  0.00    +0.008 A 
ATOM     15  C   UNL     1       1.835  -1.835  -3.209  0.00  0.00    -0.038 A 
ATOM     16  C   UNL     1       1.270  -2.602  -2.207  0.00  0.00    +0.008 A 
ATOM     17  C   UNL     1       0.661  -1.992  -1.128  0.00  0.00    +0.046 A 
BRANCH  12  19
ATOM     18  C   UNL     1      -0.017   1.425   0.010  0.00  0.00    +0.277 C 
ATOM     19  O   UNL     1       0.002  -0.004   0.002  0.00  0.00    -0.495 OA
ENDBRANCH  12  19
ENDBRANCH   1  15
BRANCH   1  20
ATOM     20  C   UNL     1       3.662  -3.370  -3.882  0.00  0.00    +0.116 C 
BRANCH  20  21
ATOM     21  N   UNL     1       4.387  -3.925  -5.028  0.00  0.00    -0.313 N 
ATOM     22  C   UNL     1       5.453  -4.725  -4.828  0.00  0.00    +0.227 C 
ATOM     23  O   UNL     1       5.812  -4.986  -3.699  0.00  0.00    -0.274 OA
ATOM     24  H   UNL     1       4.099  -3.716  -5.931  0.00  0.00    +0.149 HD
BRANCH  22  25
ATOM     25  C   UNL     1       6.198  -5.296  -6.007  0.00  0.00    +0.180 C 
BRANCH  25  26
ATOM     26  N   UNL     1       7.310  -6.128  -5.527  0.00  0.00    -0.290 NA
ATOM     27  C   UNL     1       8.323  -5.311  -4.844  0.00  0.00    +0.113 C 
ATOM     28  C   UNL     1       9.430  -6.223  -4.309  0.00  0.00    +0.175 C 
ATOM     29  O   UNL     1       9.983  -6.977  -5.391  0.00  0.00    -0.377 OA
ATOM     30  C   UNL     1       9.024  -7.785  -6.079  0.00  0.00    +0.175 C 
ATOM     31  C   UNL     1       7.912  -6.889  -6.631  0.00  0.00    +0.113 C 
ENDBRANCH  25  26
ENDBRANCH  22  25
ENDBRANCH  20  21
ENDBRANCH   1  20
TORSDOF 7
