REMARK  Name = ZINC06535860
REMARK  2 active torsions:
REMARK  status: ('A' for Active; 'I' for Inactive)
REMARK    1  A    between atoms: C_9  and  C_14
REMARK    2  A    between atoms: C_14  and  C_15
REMARK                            x       y       z     vdW  Elec       q    Type
REMARK                         _______ _______ _______ _____ _____    ______ ____
ROOT
ATOM      1  C   UNL     1       3.884   3.063   1.779  0.00  0.00    +0.045 C 
ENDROOT
BRANCH   1  10
ATOM      2  C   UNL     1      -1.254   3.134   0.030  0.00  0.00    +0.001 A 
ATOM      3  C   UNL     1      -1.218   1.748   0.017  0.00  0.00    +0.004 A 
ATOM      4  C   UNL     1      -0.013   1.076   0.008  0.00  0.00    +0.047 A 
ATOM      5  C   UNL     1       1.181   1.785   0.000  0.00  0.00    +0.142 A 
ATOM      6  C   UNL     1       1.145   3.188  -0.003  0.00  0.00    +0.061 A 
ATOM      7  C   UNL     1      -0.081   3.857   0.017  0.00  0.00    +0.015 A 
ATOM      8  C   UNL     1       2.407   3.949  -0.033  0.00  0.00    +0.180 C 
ATOM      9  O   UNL     1       2.431   5.136  -0.284  0.00  0.00    -0.291 OA
ATOM     10  C   UNL     1       3.676   3.169   0.267  0.00  0.00    +0.170 C 
ATOM     11  C   UNL     1       3.474   1.788  -0.329  0.00  0.00    +0.323 C 
ATOM     12  O   UNL     1       4.288   1.309  -1.083  0.00  0.00    -0.250 OA
ATOM     13  O   UNL     1       2.359   1.113   0.007  0.00  0.00    -0.425 OA
ENDBRANCH   1  10
BRANCH   1  14
ATOM     14  C   UNL     1       5.226   2.386   2.064  0.00  0.00    +0.170 C 
ATOM     15  C   UNL     1       5.392   2.162   3.558  0.00  0.00    +0.180 C 
ATOM     16  O   UNL     1       5.118   1.102   4.079  0.00  0.00    -0.291 OA
ATOM     17  C   UNL     1       5.905   3.303   4.340  0.00  0.00    +0.061 A 
ATOM     18  C   UNL     1       5.825   3.292   5.735  0.00  0.00    +0.015 A 
ATOM     19  C   UNL     1       6.317   4.359   6.455  0.00  0.00    +0.001 A 
ATOM     20  C   UNL     1       6.888   5.438   5.799  0.00  0.00    +0.004 A 
ATOM     21  C   UNL     1       6.968   5.461   4.421  0.00  0.00    +0.047 A 
ATOM     22  C   UNL     1       6.474   4.399   3.675  0.00  0.00    +0.142 A 
ATOM     23  O   UNL     1       6.543   4.442   2.322  0.00  0.00    -0.425 OA
ATOM     24  C   UNL     1       6.368   3.293   1.643  0.00  0.00    +0.323 C 
ATOM     25  O   UNL     1       7.098   2.993   0.727  0.00  0.00    -0.250 OA
ENDBRANCH   1  14
TORSDOF 2
