REMARK  Name = ZINC39934121
REMARK  8 active torsions:
REMARK  status: ('A' for Active; 'I' for Inactive)
REMARK    1  A    between atoms: C_1  and  C_2
REMARK    2  A    between atoms: C_2  and  S_4
REMARK    3  A    between atoms: S_4  and  C_5
REMARK    4  A    between atoms: C_5  and  C_6
REMARK    5  A    between atoms: C_18  and  C_20
REMARK    6  A    between atoms: C_18  and  C_21
REMARK    7  A    between atoms: C_23  and  C_25
REMARK    8  A    between atoms: C_23  and  C_26
REMARK                            x       y       z     vdW  Elec       q    Type
REMARK                         _______ _______ _______ _____ _____    ______ ____
ROOT
ATOM      1  C   UNL     1      -2.134  -3.495   0.004  0.00  0.00    +0.163 C 
ATOM      2  C   UNL     1      -1.697  -4.939   0.123  0.00  0.00    +0.183 C 
ATOM      3  C   UNL     1      -2.877  -5.917  -0.002  0.00  0.00    +0.187 C 
ATOM      4  C   UNL     1      -3.785  -5.573  -1.186  0.00  0.00    +0.209 C 
ATOM      5  C   UNL     1      -4.041  -4.063  -1.302  0.00  0.00    +0.285 C 
ATOM      6  O   UNL     1      -2.867  -3.305  -1.205  0.00  0.00    -0.342 OA
ATOM      7  O   UNL     1      -4.968  -3.820  -0.230  0.00  0.00    -0.318 OA
ATOM      8  C   UNL     1      -5.817  -4.985  -0.233  0.00  0.00    +0.168 C 
ATOM      9  O   UNL     1      -5.103  -6.084  -0.851  0.00  0.00    -0.338 OA
ATOM     10  C   UNL     1      -7.090  -4.691  -1.028  0.00  0.00    +0.074 C 
ATOM     11  C   UNL     1      -6.186  -5.356   1.205  0.00  0.00    +0.074 C 
ATOM     12  O   UNL     1      -2.196  -7.154  -0.343  0.00  0.00    -0.341 OA
ATOM     13  C   UNL     1      -0.951  -6.787  -0.957  0.00  0.00    +0.166 C 
ATOM     14  O   UNL     1      -0.839  -5.351  -0.956  0.00  0.00    -0.341 OA
ATOM     15  C   UNL     1       0.210  -7.395  -0.167  0.00  0.00    +0.074 C 
ATOM     16  C   UNL     1      -0.915  -7.304  -2.397  0.00  0.00    +0.074 C 
ENDROOT
BRANCH   1  17
ATOM     17  C   UNL     1      -0.900  -2.590  -0.003  0.00  0.00    +0.111 C 
BRANCH  17  18
ATOM     18  S   UNL     1      -1.424  -0.854   0.011  0.00  0.00    -0.086 S 
BRANCH  18  20
ATOM     19  C   UNL     1      -0.018   1.503   0.010  0.00  0.00    +0.099 C 
ATOM     20  C   UNL     1       0.002  -0.004   0.002  0.00  0.00    +0.186 C 
ATOM     21  O   UNL     1       1.061  -0.596  -0.011  0.00  0.00    -0.286 OA
ENDBRANCH  18  20
ENDBRANCH  17  18
ENDBRANCH   1  17
TORSDOF 3
