REMARK  Name = ZINC24107409
REMARK  5 active torsions:
REMARK  status: ('A' for Active; 'I' for Inactive)
REMARK    1  A    between atoms: C_1  and  C_2
REMARK    2  A    between atoms: C_2  and  C_4
REMARK    3  A    between atoms: C_2  and  N_11
REMARK    4  A    between atoms: N_11  and  C_12
REMARK    5  A    between atoms: C_17  and  N_18
REMARK                            x       y       z     vdW  Elec       q    Type
REMARK                         _______ _______ _______ _____ _____    ______ ____
ROOT
ATOM      1  N   UNL     1       2.437  -2.432  -1.127  0.00  0.00    -0.335 N 
ATOM      2  H   UNL     1       3.355  -1.828  -1.080  0.00  0.00    +0.147 HD
ENDROOT
BRANCH   1   3
ATOM      3  C   UNL     1       2.496  -3.761  -1.558  0.00  0.00    +0.058 A 
ATOM      4  C   UNL     1       1.324  -4.481  -1.757  0.00  0.00    +0.028 A 
ATOM      5  C   UNL     1       1.385  -5.791  -2.187  0.00  0.00    +0.040 A 
ATOM      6  C   UNL     1       2.613  -6.392  -2.410  0.00  0.00    +0.126 A 
ATOM      7  C   UNL     1       3.781  -5.678  -2.208  0.00  0.00    +0.073 A 
ATOM      8  C   UNL     1       3.726  -4.365  -1.783  0.00  0.00    +0.150 A 
ATOM      9  F   UNL     1       2.670  -7.676  -2.826  0.00  0.00    -0.205 F 
BRANCH   8  10
ATOM     10  N   UNL     1       4.976  -3.603  -1.567  0.00  0.00    +0.058 N 
ATOM     11  O   UNL     1       5.918  -3.752  -2.324  0.00  0.00    -0.126 OA
ATOM     12  O   UNL     1       5.062  -2.827  -0.632  0.00  0.00    -0.126 OA
ENDBRANCH   8  10
ENDBRANCH   1   3
BRANCH   1  14
ATOM     13  C   UNL     1       0.861  -2.182   0.726  0.00  0.00    +0.033 C 
ATOM     14  C   UNL     1       1.153  -1.845  -0.737  0.00  0.00    +0.099 C 
BRANCH  14  15
ATOM     15  C   UNL     1       1.213  -0.349  -0.906  0.00  0.00    -0.009 A 
ATOM     16  C   UNL     1       2.420   0.313  -0.780  0.00  0.00    +0.007 A 
ATOM     17  C   UNL     1       2.475   1.686  -0.934  0.00  0.00    +0.000 A 
ATOM     18  C   UNL     1       1.323   2.397  -1.214  0.00  0.00    +0.001 A 
ATOM     19  C   UNL     1       0.116   1.737  -1.339  0.00  0.00    +0.020 A 
ATOM     20  C   UNL     1       0.060   0.363  -1.185  0.00  0.00    +0.046 A 
ATOM     21 CL   UNL     1      -1.456  -0.468  -1.344  0.00  0.00    -0.083 Cl
ENDBRANCH  14  15
ENDBRANCH   1  14
TORSDOF 4
