REMARK  Name = ZINC63529077
REMARK  5 active torsions:
REMARK  status: ('A' for Active; 'I' for Inactive)
REMARK    1  A    between atoms: C_1  and  C_2
REMARK    2  A    between atoms: C_6  and  N_9
REMARK    3  A    between atoms: C_7  and  C_8
REMARK    4  A    between atoms: C_10  and  C_12
REMARK    5  A    between atoms: C_14  and  C_27
REMARK                            x       y       z     vdW  Elec       q    Type
REMARK                         _______ _______ _______ _____ _____    ______ ____
ROOT
ATOM      1  C   UNL     1      -0.129  -4.898   3.686  0.00  0.00    +0.265 C 
ATOM      2  C   UNL     1      -1.484  -4.630   4.384  0.00  0.00    +0.067 C 
ATOM      3  C   UNL     1      -2.316  -5.789   3.881  0.00  0.00    +0.005 C 
ATOM      4  C   UNL     1      -1.506  -6.693   3.349  0.00  0.00    +0.101 C 
ATOM      5  O   UNL     1      -0.198  -6.316   3.454  0.00  0.00    -0.483 OA
ATOM      6  C   UNL     1      -1.918  -7.984   2.670  0.00  0.00    +0.078 C 
ATOM      7  C   UNL     1      -3.389  -8.327   2.947  0.00  0.00    +0.042 C 
ATOM      8  C   UNL     1      -4.143  -7.029   2.959  0.00  0.00    -0.019 C 
ATOM      9  C   UNL     1      -5.109  -6.517   2.237  0.00  0.00    +0.136 C 
ATOM     10  N   UNL     1      -5.289  -5.208   2.551  0.00  0.00    -0.162 NA
ATOM     11  N   UNL     1      -4.572  -4.799   3.477  0.00  0.00    -0.175 NA
ATOM     12  C   UNL     1      -3.807  -5.936   3.976  0.00  0.00    +0.185 C 
ATOM     13  C   UNL     1      -1.337  -4.678   5.906  0.00  0.00    +0.016 C 
ENDROOT
BRANCH   1  15
ATOM     14  N   UNL     1       0.052  -2.797   2.393  0.00  0.00    -0.282 N 
ATOM     15  C   UNL     1      -0.031  -4.143   2.385  0.00  0.00    +0.259 C 
ATOM     16  O   UNL     1      -0.028  -4.745   1.333  0.00  0.00    -0.271 OA
ATOM     17  H   UNL     1       0.130  -2.321   3.234  0.00  0.00    +0.155 HD
BRANCH  14  23
ATOM     18  C   UNL     1       1.206   1.236  -0.172  0.00  0.00    +0.044 C 
ATOM     19  C   UNL     1       0.577  -0.131  -0.084  0.00  0.00    -0.046 A 
ATOM     20  C   UNL     1      -0.027  -0.686  -1.198  0.00  0.00    +0.004 A 
ATOM     21  C   UNL     1      -0.605  -1.940  -1.122  0.00  0.00    +0.002 A 
ATOM     22  C   UNL     1      -0.580  -2.642   0.067  0.00  0.00    +0.023 A 
ATOM     23  C   UNL     1       0.026  -2.088   1.187  0.00  0.00    +0.037 A 
ATOM     24  C   UNL     1       0.610  -0.831   1.106  0.00  0.00    -0.026 A 
ATOM     25  C   UNL     1       1.274  -0.228   2.317  0.00  0.00    +0.046 C 
ENDBRANCH  14  23
ENDBRANCH   1  15
TORSDOF 2
