REMARK  Name = ZINC40330323
REMARK  3 active torsions:
REMARK  status: ('A' for Active; 'I' for Inactive)
REMARK    1  A    between atoms: C_4  and  S_8
REMARK    2  A    between atoms: C_6  and  N_7
REMARK    3  A    between atoms: S_8  and  N_11
REMARK                            x       y       z     vdW  Elec       q    Type
REMARK                         _______ _______ _______ _____ _____    ______ ____
ROOT
ATOM      1  S   UNL     1       3.940  -0.825  -0.041  0.00  0.00    +0.063 S 
ATOM      2  O   UNL     1       2.964  -1.791  -0.408  0.00  0.00    -0.153 OA
ATOM      3  O   UNL     1       3.610   0.356   0.677  0.00  0.00    -0.153 OA
ENDROOT
BRANCH   1   4
ATOM      4  N   UNL     1       4.674  -0.338  -1.443  0.00  0.00    -0.169 NA
ATOM      5  C   UNL     1       4.430  -1.033  -2.719  0.00  0.00    +0.138 C 
ATOM      6  C   UNL     1       5.777  -1.363  -3.370  0.00  0.00    +0.177 C 
ATOM      7  O   UNL     1       6.591  -0.187  -3.423  0.00  0.00    -0.374 OA
ATOM      8  C   UNL     1       6.896   0.353  -2.139  0.00  0.00    +0.137 C 
ATOM      9  C   UNL     1       5.590   0.809  -1.467  0.00  0.00    +0.109 C 
ATOM     10  C   UNL     1       5.901   1.289  -0.051  0.00  0.00    +0.023 C 
ATOM     11  C   UNL     1       6.857   2.483  -0.130  0.00  0.00    +0.002 C 
ATOM     12  C   UNL     1       8.149   2.072  -0.837  0.00  0.00    +0.003 C 
ATOM     13  C   UNL     1       7.829   1.556  -2.248  0.00  0.00    +0.033 C 
ENDBRANCH   1   4
BRANCH   1  17
ATOM     14  C   UNL     1       7.061  -3.013   2.410  0.00  0.00    +0.024 A 
ATOM     15  C   UNL     1       6.623  -3.545   1.213  0.00  0.00    +0.024 A 
ATOM     16  C   UNL     1       5.670  -2.876   0.466  0.00  0.00    +0.067 A 
ATOM     17  C   UNL     1       5.153  -1.673   0.915  0.00  0.00    +0.125 A 
ATOM     18  C   UNL     1       5.588  -1.137   2.111  0.00  0.00    +0.052 A 
ATOM     19  C   UNL     1       6.544  -1.807   2.864  0.00  0.00    +0.026 A 
ATOM     20 CL   UNL     1       5.122  -3.547  -1.039  0.00  0.00    -0.082 Cl
BRANCH  19  21
ATOM     21  N   UNL     1       6.985  -1.267   4.075  0.00  0.00    -0.358 N 
ATOM     22  H   UNL     1       7.653  -1.735   4.600  0.00  0.00    +0.142 HD
ATOM     23  H   UNL     1       6.623  -0.424   4.391  0.00  0.00    +0.142 HD
ENDBRANCH  19  21
ENDBRANCH   1  17
TORSDOF 3
