REMARK  Name = ZINC67053219
REMARK  4 active torsions:
REMARK  status: ('A' for Active; 'I' for Inactive)
REMARK    1  A    between atoms: C_1  and  C_2
REMARK    2  A    between atoms: C_5  and  N_21
REMARK    3  A    between atoms: C_7  and  C_8
REMARK    4  A    between atoms: C_14  and  C_16
REMARK                            x       y       z     vdW  Elec       q    Type
REMARK                         _______ _______ _______ _____ _____    ______ ____
ROOT
ATOM      1  C   UNL     1       0.208   0.115   2.428  0.00  0.00    +0.247 C 
ATOM      2  O   UNL     1       0.095   1.325   2.403  0.00  0.00    -0.270 OA
ATOM      3  N   UNL     1       0.425  -0.518   3.599  0.00  0.00    -0.290 N 
ATOM      4  C   UNL     1       0.693  -1.958   3.760  0.00  0.00    +0.109 C 
ATOM      5  C   UNL     1       0.257  -2.283   5.210  0.00  0.00    +0.021 C 
ATOM      6  C   UNL     1       0.695  -0.998   5.962  0.00  0.00    +0.029 C 
ATOM      7  C   UNL     1       0.439   0.116   4.925  0.00  0.00    +0.107 C 
ENDROOT
BRANCH   1  14
ATOM      8  C   UNL     1      -1.748   0.863   0.432  0.00  0.00    +0.044 C 
ATOM      9  C   UNL     1      -0.832  -0.312   0.205  0.00  0.00    -0.038 A 
ATOM     10  C   UNL     1      -0.916  -1.038  -0.965  0.00  0.00    +0.006 A 
ATOM     11  C   UNL     1      -0.075  -2.117  -1.175  0.00  0.00    +0.033 A 
ATOM     12  C   UNL     1       0.855  -2.474  -0.215  0.00  0.00    +0.127 A 
ATOM     13  C   UNL     1       0.950  -1.755   0.959  0.00  0.00    +0.046 A 
ATOM     14  C   UNL     1       0.108  -0.663   1.175  0.00  0.00    +0.042 A 
BRANCH  12  15
ATOM     15  N   UNL     1       1.750  -3.630  -0.448  0.00  0.00    +0.056 N 
ATOM     16  O   UNL     1       1.668  -4.260  -1.476  0.00  0.00    -0.126 OA
ATOM     17  O   UNL     1       2.564  -3.943   0.390  0.00  0.00    -0.126 OA
ENDBRANCH  12  15
ENDBRANCH   1  14
BRANCH   7  18
ATOM     18  C   UNL     1       1.539   1.144   4.991  0.00  0.00    -0.020 A 
ATOM     19  C   UNL     1       1.335   2.349   5.636  0.00  0.00    +0.013 A 
ATOM     20  C   UNL     1       2.345   3.252   5.677  0.00  0.00    +0.045 A 
ATOM     21  S   UNL     1       3.636   2.401   4.785  0.00  0.00    -0.105 S 
ATOM     22  C   UNL     1       2.744   0.898   4.423  0.00  0.00    +0.050 A 
ENDBRANCH   7  18
TORSDOF 3
