REMARK  Name = ZINC17093245
REMARK  8 active torsions:
REMARK  status: ('A' for Active; 'I' for Inactive)
REMARK    1  A    between atoms: C_1  and  C_2
REMARK    2  A    between atoms: C_4  and  C_28
REMARK    3  A    between atoms: C_5  and  C_27
REMARK    4  A    between atoms: C_6  and  S_9
REMARK    5  A    between atoms: C_7  and  C_8
REMARK    6  A    between atoms: S_9  and  N_12
REMARK    7  A    between atoms: N_15  and  S_18
REMARK    8  A    between atoms: S_18  and  C_21
REMARK                            x       y       z     vdW  Elec       q    Type
REMARK                         _______ _______ _______ _____ _____    ______ ____
ROOT
ATOM      1  N   UNL     1       0.160  -0.285   3.934  0.00  0.00    -0.174 NA
ATOM      2  C   UNL     1      -1.152   0.286   3.595  0.00  0.00    +0.126 C 
ATOM      3  C   UNL     1      -1.795  -0.578   2.503  0.00  0.00    +0.126 C 
ATOM      4  N   UNL     1      -0.813  -0.783   1.428  0.00  0.00    -0.174 NA
ATOM      5  C   UNL     1       0.496  -1.359   1.766  0.00  0.00    +0.126 C 
ATOM      6  C   UNL     1       1.141  -0.490   2.860  0.00  0.00    +0.126 C 
ENDROOT
BRANCH   1   7
ATOM      7  S   UNL     1       0.524  -0.690   5.498  0.00  0.00    +0.061 S 
ATOM      8  O   UNL     1       1.934  -0.569   5.630  0.00  0.00    -0.153 OA
ATOM      9  O   UNL     1      -0.383   0.026   6.325  0.00  0.00    -0.153 OA
BRANCH   7  15
ATOM     10  C   UNL     1       1.964  -5.705   5.801  0.00  0.00    +0.044 C 
ATOM     11  C   UNL     1       0.860  -4.680   5.826  0.00  0.00    -0.045 A 
ATOM     12  C   UNL     1      -0.451  -5.081   6.005  0.00  0.00    +0.007 A 
ATOM     13  C   UNL     1      -1.464  -4.141   6.029  0.00  0.00    -0.045 A 
ATOM     14  C   UNL     1      -1.166  -2.800   5.874  0.00  0.00    -0.021 A 
ATOM     15  C   UNL     1       0.145  -2.399   5.696  0.00  0.00    +0.112 A 
ATOM     16  C   UNL     1       1.157  -3.340   5.667  0.00  0.00    -0.021 A 
ATOM     17  C   UNL     1       2.586  -2.904   5.466  0.00  0.00    +0.046 C 
ATOM     18  C   UNL     1      -2.271  -1.775   5.899  0.00  0.00    +0.046 C 
ATOM     19  C   UNL     1      -2.893  -4.577   6.224  0.00  0.00    +0.044 C 
ENDBRANCH   7  15
ENDBRANCH   1   7
BRANCH   4  20
ATOM     20  S   UNL     1      -1.178  -0.379  -0.136  0.00  0.00    +0.061 S 
ATOM     21  O   UNL     1      -2.595  -0.405  -0.241  0.00  0.00    -0.153 OA
ATOM     22  O   UNL     1      -0.338  -1.169  -0.966  0.00  0.00    -0.153 OA
BRANCH  20  23
ATOM     23  C   UNL     1      -0.687   1.297  -0.369  0.00  0.00    +0.105 A 
ATOM     24  C   UNL     1      -1.581   2.321  -0.118  0.00  0.00    +0.028 A 
ATOM     25  C   UNL     1      -1.194   3.636  -0.297  0.00  0.00    +0.002 A 
ATOM     26  C   UNL     1       0.085   3.926  -0.736  0.00  0.00    +0.000 A 
ATOM     27  C   UNL     1       0.977   2.902  -0.993  0.00  0.00    +0.002 A 
ATOM     28  C   UNL     1       0.591   1.587  -0.809  0.00  0.00    +0.028 A 
ENDBRANCH  20  23
ENDBRANCH   4  20
TORSDOF 4
