REMARK  Name = ZINC00620047
REMARK  2 active torsions:
REMARK  status: ('A' for Active; 'I' for Inactive)
REMARK    1  A    between atoms: C_3  and  C_6
REMARK    2  A    between atoms: C_12  and  C_14
REMARK                            x       y       z     vdW  Elec       q    Type
REMARK                         _______ _______ _______ _____ _____    ______ ____
ROOT
ATOM      1  C   UNL     1      -5.008  -1.351   0.013  0.00  0.00    +0.221 A 
ATOM      2  N   UNL     1      -6.260  -0.943   0.019  0.00  0.00    -0.123 NA
ATOM      3  N   UNL     1      -6.300   0.344   0.026  0.00  0.00    -0.120 NA
ATOM      4  C   UNL     1      -5.090   0.820   0.024  0.00  0.00    +0.219 A 
ATOM      5  N   UNL     1      -4.197  -0.223   0.016  0.00  0.00    -0.182 N 
ATOM      6  N   UNL     1      -2.849   0.112   0.008  0.00  0.00    -0.155 NA
ATOM      7  C   UNL     1      -2.463   1.364   0.018  0.00  0.00    +0.133 A 
ATOM      8  S   UNL     1      -4.021   2.238   0.028  0.00  0.00    -0.026 S 
ENDROOT
BRANCH   7   9
ATOM      9  C   UNL     1      -1.090   1.912   0.017  0.00  0.00    +0.019 A 
ATOM     10  C   UNL     1      -0.013   1.076   0.008  0.00  0.00    +0.056 A 
ATOM     11  S   UNL     1       1.329   2.176   0.001  0.00  0.00    -0.101 S 
ATOM     12  C   UNL     1       0.418   3.695   0.018  0.00  0.00    -0.006 A 
ATOM     13  C   UNL     1      -0.879   3.301   0.028  0.00  0.00    -0.027 A 
ATOM     14  C   UNL     1      -2.004   4.329   0.046  0.00  0.00    +0.036 C 
ATOM     15  C   UNL     1      -1.436   5.673   0.507  0.00  0.00    +0.005 C 
ATOM     16  C   UNL     1      -0.215   6.043  -0.340  0.00  0.00    +0.005 C 
ATOM     17  C   UNL     1       0.941   5.096   0.018  0.00  0.00    +0.043 C 
ENDBRANCH   7   9
BRANCH   1  20
ATOM     18  C   UNL     1      -4.476  -4.966   0.157  0.00  0.00    +0.042 A 
ATOM     19  C   UNL     1      -5.313  -3.842   0.292  0.00  0.00    +0.053 A 
ATOM     20  C   UNL     1      -4.551  -2.749   0.004  0.00  0.00    +0.173 A 
ATOM     21  O   UNL     1      -3.305  -3.172  -0.284  0.00  0.00    -0.460 OA
ATOM     22  C   UNL     1      -3.256  -4.512  -0.193  0.00  0.00    +0.196 A 
ENDBRANCH   1  20
TORSDOF 2
