REMARK  Name = ZINC43839661
REMARK  10 active torsions:
REMARK  status: ('A' for Active; 'I' for Inactive)
REMARK    1  A    between atoms: C_1  and  C_2
REMARK    2  A    between atoms: C_2  and  C_4
REMARK    3  A    between atoms: C_2  and  N_11
REMARK    4  A    between atoms: N_11  and  C_12
REMARK    5  A    between atoms: N_15  and  C_16
REMARK    6  A    between atoms: C_19  and  S_22
REMARK    7  A    between atoms: S_22  and  N_25
REMARK    8  A    between atoms: N_25  and  C_26
REMARK    9  A    between atoms: N_25  and  O_27
REMARK   10  A    between atoms: O_27  and  C_28
REMARK                            x       y       z     vdW  Elec       q    Type
REMARK                         _______ _______ _______ _____ _____    ______ ____
ROOT
ATOM      1  N   UNL     1       0.675  -0.496   1.300  0.00  0.00    -0.282 N 
ATOM      2  C   UNL     1       2.022  -0.101   1.719  0.00  0.00    +0.134 C 
ATOM      3  C   UNL     1      -0.052  -1.331   2.070  0.00  0.00    +0.307 C 
ATOM      4  O   UNL     1      -1.171  -1.659   1.723  0.00  0.00    -0.252 OA
ATOM      5  N   UNL     1       0.460  -1.801   3.224  0.00  0.00    -0.269 N 
ATOM      6  H   UNL     1       1.375  -1.593   3.469  0.00  0.00    +0.156 HD
ENDROOT
BRANCH   5   7
ATOM      7  C   UNL     1      -0.329  -2.590   4.070  0.00  0.00    +0.035 A 
ATOM      8  C   UNL     1      -0.190  -2.486   5.447  0.00  0.00    +0.025 A 
ATOM      9  C   UNL     1      -0.970  -3.265   6.279  0.00  0.00    +0.030 A 
ATOM     10  C   UNL     1      -1.888  -4.149   5.741  0.00  0.00    +0.108 A 
ATOM     11  C   UNL     1      -2.028  -4.255   4.370  0.00  0.00    +0.030 A 
ATOM     12  C   UNL     1      -1.255  -3.474   3.533  0.00  0.00    +0.025 A 
BRANCH  10  13
ATOM     13  S   UNL     1      -2.881  -5.141   6.806  0.00  0.00    +0.082 S 
ATOM     14  O   UNL     1      -3.275  -6.278   6.050  0.00  0.00    -0.151 OA
ATOM     15  O   UNL     1      -2.176  -5.250   8.034  0.00  0.00    -0.151 OA
BRANCH  13  16
ATOM     16  N   UNL     1      -4.262  -4.285   7.127  0.00  0.00    -0.058 NA
ATOM     17  C   UNL     1      -5.467  -4.511   6.325  0.00  0.00    +0.166 C 
BRANCH  16  18
ATOM     18  O   UNL     1      -4.277  -3.334   8.176  0.00  0.00    -0.280 OA
ATOM     19  C   UNL     1      -3.902  -2.016   7.772  0.00  0.00    +0.223 C 
ENDBRANCH  16  18
ENDBRANCH  13  16
ENDBRANCH  10  13
ENDBRANCH   5   7
BRANCH   1  21
ATOM     20  C   UNL     1       0.170   1.544   0.050  0.00  0.00    +0.033 C 
ATOM     21  C   UNL     1       0.118   0.015   0.045  0.00  0.00    +0.104 C 
BRANCH  21  22
ATOM     22  C   UNL     1       0.924  -0.512  -1.113  0.00  0.00    -0.027 A 
ATOM     23  C   UNL     1       1.540  -1.746  -1.022  0.00  0.00    +0.008 A 
ATOM     24  C   UNL     1       2.280  -2.231  -2.084  0.00  0.00    +0.038 A 
ATOM     25  C   UNL     1       2.402  -1.480  -3.241  0.00  0.00    +0.123 A 
ATOM     26  C   UNL     1       1.785  -0.244  -3.332  0.00  0.00    +0.038 A 
ATOM     27  C   UNL     1       1.042   0.236  -2.270  0.00  0.00    +0.008 A 
ATOM     28  F   UNL     1       3.125  -1.952  -4.280  0.00  0.00    -0.205 F 
ENDBRANCH  21  22
ENDBRANCH   1  21
TORSDOF 6
