REMARK  Name = ZINC07455169
REMARK  5 active torsions:
REMARK  status: ('A' for Active; 'I' for Inactive)
REMARK    1  A    between atoms: C_1  and  C_2
REMARK    2  A    between atoms: C_9  and  C_11
REMARK    3  A    between atoms: C_12  and  O_24
REMARK    4  A    between atoms: N_16  and  C_18
REMARK    5  A    between atoms: O_24  and  C_25
REMARK                            x       y       z     vdW  Elec       q    Type
REMARK                         _______ _______ _______ _____ _____    ______ ____
ROOT
ATOM      1  C   UNL     1       1.111   7.141   0.300  0.00  0.00    +0.188 A 
ATOM      2  C   UNL     1      -0.081   7.833  -0.202  0.00  0.00    +0.157 A 
ATOM      3  C   UNL     1      -1.271   7.128  -0.211  0.00  0.00    +0.120 A 
ATOM      4  C   UNL     1      -1.250   5.803   0.255  0.00  0.00    +0.275 A 
ATOM      5  O   UNL     1      -2.278   5.144   0.260  0.00  0.00    -0.266 OA
ATOM      6  N   UNL     1      -0.105   5.260   0.700  0.00  0.00    -0.196 N 
ATOM      7  N   UNL     1       1.007   5.897   0.716  0.00  0.00    -0.155 NA
ENDROOT
BRANCH   1  15
ATOM      8  C   UNL     1       4.649   9.253   0.806  0.00  0.00    +0.028 C 
ATOM      9  C   UNL     1       4.861   7.785   0.428  0.00  0.00    +0.073 C 
ATOM     10  C   UNL     1       5.646   7.073   1.540  0.00  0.00    +0.022 C 
ATOM     11  C   UNL     1       5.734   5.580   1.219  0.00  0.00    +0.003 C 
ATOM     12  C   UNL     1       4.326   4.983   1.166  0.00  0.00    +0.019 C 
ATOM     13  C   UNL     1       3.526   5.671   0.056  0.00  0.00    +0.108 C 
ATOM     14  N   UNL     1       3.558   7.122   0.278  0.00  0.00    -0.293 N 
ATOM     15  C   UNL     1       2.415   7.834   0.338  0.00  0.00    +0.271 C 
ATOM     16  O   UNL     1       2.457   9.046   0.424  0.00  0.00    -0.268 OA
ENDBRANCH   1  15
BRANCH   6  17
ATOM     17  C   UNL     1      -0.125   3.939   1.161  0.00  0.00    +0.069 A 
ATOM     18  C   UNL     1       0.820   3.028   0.706  0.00  0.00    +0.028 A 
ATOM     19  C   UNL     1       0.797   1.725   1.163  0.00  0.00    +0.002 A 
ATOM     20  C   UNL     1      -0.167   1.326   2.071  0.00  0.00    +0.000 A 
ATOM     21  C   UNL     1      -1.113   2.229   2.521  0.00  0.00    +0.002 A 
ATOM     22  C   UNL     1      -1.091   3.535   2.074  0.00  0.00    +0.028 A 
ENDBRANCH   6  17
BRANCH   2  23
ATOM     23  O   UNL     1      -0.018   9.112  -0.640  0.00  0.00    -0.493 OA
ATOM     24  C   UNL     1      -1.234   9.697  -1.110  0.00  0.00    +0.277 C 
ENDBRANCH   2  23
TORSDOF 3
