REMARK  Name = ZINC12372551
REMARK  8 active torsions:
REMARK  status: ('A' for Active; 'I' for Inactive)
REMARK    1  A    between atoms: C_1  and  C_2
REMARK    2  A    between atoms: C_3  and  C_21
REMARK    3  A    between atoms: N_4  and  C_18
REMARK    4  A    between atoms: C_5  and  N_17
REMARK    5  A    between atoms: C_6  and  S_7
REMARK    6  A    between atoms: S_7  and  C_10
REMARK    7  A    between atoms: C_18  and  C_19
REMARK    8  A    between atoms: C_18  and  C_20
REMARK                            x       y       z     vdW  Elec       q    Type
REMARK                         _______ _______ _______ _____ _____    ______ ____
ROOT
ATOM      1  C   UNL     1       3.607   0.790  -0.029  0.00  0.00    +0.047 C 
ATOM      2  C   UNL     1       2.100   0.751  -0.014  0.00  0.00    -0.003 A 
ATOM      3  C   UNL     1       1.276   1.817  -0.000  0.00  0.00    +0.022 A 
ATOM      4  N   UNL     1      -0.016   1.361   0.009  0.00  0.00    -0.329 N 
ATOM      5  C   UNL     1       0.002  -0.004   0.002  0.00  0.00    +0.123 A 
ATOM      6  C   UNL     1       1.296  -0.408  -0.013  0.00  0.00    +0.136 A 
ATOM      7  C   UNL     1       1.702   3.262   0.003  0.00  0.00    +0.064 C 
ENDROOT
BRANCH   6   8
ATOM      8  S   UNL     1       1.869  -2.074  -0.026  0.00  0.00    +0.029 S 
ATOM      9  O   UNL     1       3.184  -2.056   0.513  0.00  0.00    -0.164 OA
ATOM     10  O   UNL     1       0.828  -2.866   0.531  0.00  0.00    -0.164 OA
BRANCH   8  11
ATOM     11  C   UNL     1       2.022  -2.558  -1.713  0.00  0.00    +0.094 A 
ATOM     12  C   UNL     1       0.952  -3.143  -2.364  0.00  0.00    +0.029 A 
ATOM     13  C   UNL     1       1.070  -3.518  -3.689  0.00  0.00    +0.022 A 
ATOM     14  C   UNL     1       2.263  -3.319  -4.361  0.00  0.00    +0.041 A 
ATOM     15  C   UNL     1       3.336  -2.739  -3.707  0.00  0.00    +0.022 A 
ATOM     16  C   UNL     1       3.215  -2.359  -2.383  0.00  0.00    +0.029 A 
ATOM     17 CL   UNL     1       2.414  -3.795  -6.023  0.00  0.00    -0.084 Cl
ENDBRANCH   8  11
ENDBRANCH   6   8
BRANCH   5  18
ATOM     18  N   UNL     1      -1.116  -0.838   0.009  0.00  0.00    -0.343 N 
ATOM     19  H   UNL     1      -2.007  -0.455   0.020  0.00  0.00    +0.144 HD
ATOM     20  H   UNL     1      -1.002  -1.802   0.003  0.00  0.00    +0.144 HD
ENDBRANCH   5  18
BRANCH   4  21
ATOM     21  C   UNL     1      -1.218   2.199   0.020  0.00  0.00    +0.083 C 
ATOM     22  C   UNL     1      -2.055   1.905  -1.226  0.00  0.00    +0.030 C 
ATOM     23  C   UNL     1      -2.042   1.893   1.272  0.00  0.00    +0.030 C 
ENDBRANCH   4  21
TORSDOF 4
