REMARK  Name = ZINC01470879
REMARK  4 active torsions:
REMARK  status: ('A' for Active; 'I' for Inactive)
REMARK    1  A    between atoms: C_1  and  O_2
REMARK    2  A    between atoms: O_2  and  C_3
REMARK    3  A    between atoms: N_5  and  C_6
REMARK    4  A    between atoms: C_6  and  C_16
REMARK                            x       y       z     vdW  Elec       q    Type
REMARK                         _______ _______ _______ _____ _____    ______ ____
ROOT
ATOM      1  C   UNL     1       2.873  -2.107  -0.450  0.00  0.00    +0.437 C 
ATOM      2  O   UNL     1       1.500  -2.015  -0.024  0.00  0.00    -0.426 OA
ATOM      3  C   UNL     1       1.210  -0.681  -0.013  0.00  0.00    +0.169 A 
ATOM      4  C   UNL     1       0.002  -0.004   0.002  0.00  0.00    +0.051 A 
ATOM      5  C   UNL     1      -0.017   1.378   0.010  0.00  0.00    +0.024 A 
ATOM      6  C   UNL     1       1.170   2.089   0.002  0.00  0.00    +0.045 A 
ATOM      7  C   UNL     1       2.381   1.419  -0.012  0.00  0.00    +0.069 A 
ATOM      8  C   UNL     1       2.406   0.034  -0.021  0.00  0.00    +0.170 A 
ATOM      9  O   UNL     1       3.444  -0.852  -0.036  0.00  0.00    -0.426 OA
ATOM     10 CL   UNL     1       1.141   3.825   0.011  0.00  0.00    -0.083 Cl
ENDROOT
BRANCH   1  13
ATOM     11  C   UNL     1       2.360  -1.351  -2.708  0.00  0.00    +0.406 C 
ATOM     12  O   UNL     1       1.756  -0.414  -2.226  0.00  0.00    -0.226 OA
ATOM     13  N   UNL     1       2.954  -2.255  -1.905  0.00  0.00    -0.201 N 
ATOM     14  H   UNL     1       3.436  -3.004  -2.290  0.00  0.00    +0.160 HD
BRANCH  11  16
ATOM     15  C   UNL     1       1.771  -0.476  -4.849  0.00  0.00    +0.282 C 
ATOM     16  O   UNL     1       2.435  -1.487  -4.046  0.00  0.00    -0.454 OA
ENDBRANCH  11  16
ENDBRANCH   1  13
BRANCH   1  17
ATOM     17  C   UNL     1       3.575  -3.274   0.248  0.00  0.00    +0.491 C 
ATOM     18  F   UNL     1       3.443  -3.136   1.634  0.00  0.00    -0.162 F 
ATOM     19  F   UNL     1       2.992  -4.479  -0.158  0.00  0.00    -0.162 F 
ATOM     20  F   UNL     1       4.931  -3.274  -0.094  0.00  0.00    -0.162 F 
ENDBRANCH   1  17
TORSDOF 3
