REMARK  Name = ZINC07166911
REMARK  5 active torsions:
REMARK  status: ('A' for Active; 'I' for Inactive)
REMARK    1  A    between atoms: C_1  and  C_2
REMARK    2  A    between atoms: C_2  and  C_19
REMARK    3  A    between atoms: N_5  and  C_9
REMARK    4  A    between atoms: C_9  and  C_10
REMARK    5  A    between atoms: C_13  and  N_16
REMARK                            x       y       z     vdW  Elec       q    Type
REMARK                         _______ _______ _______ _____ _____    ______ ____
ROOT
ATOM      1  C   UNL     1      -1.430   3.020   1.248  0.00  0.00    +0.047 C 
ATOM      2  C   UNL     1      -1.332   2.114   0.020  0.00  0.00    +0.136 C 
ATOM      3  C   UNL     1      -1.504   2.917  -1.254  0.00  0.00    +0.251 C 
ATOM      4  O   UNL     1      -0.801   3.822  -1.650  0.00  0.00    -0.272 OA
ATOM      5  N   UNL     1      -2.600   2.416  -1.856  0.00  0.00    -0.220 N 
ATOM      6  C   UNL     1      -3.140   1.418  -1.146  0.00  0.00    +0.310 C 
ATOM      7  O   UNL     1      -4.135   0.808  -1.486  0.00  0.00    -0.252 OA
ATOM      8  N   UNL     1      -2.457   1.164  -0.015  0.00  0.00    -0.281 N 
ATOM      9  H   UNL     1      -2.666   0.488   0.648  0.00  0.00    +0.152 HD
ENDROOT
BRANCH   2  10
ATOM     10  C   UNL     1      -0.017   1.378   0.010  0.00  0.00    +0.003 A 
ATOM     11  C   UNL     1       0.002  -0.004   0.002  0.00  0.00    +0.007 A 
ATOM     12  C   UNL     1       1.208  -0.679  -0.013  0.00  0.00    +0.000 A 
ATOM     13  C   UNL     1       2.397   0.028  -0.021  0.00  0.00    +0.001 A 
ATOM     14  C   UNL     1       2.379   1.409  -0.013  0.00  0.00    +0.020 A 
ATOM     15  C   UNL     1       1.172   2.086   0.002  0.00  0.00    +0.047 A 
ATOM     16 CL   UNL     1       1.149   3.822   0.011  0.00  0.00    -0.083 Cl
ENDBRANCH   2  10
BRANCH   5  17
ATOM     17  C   UNL     1      -3.136   2.903  -3.129  0.00  0.00    +0.153 C 
BRANCH  17  18
ATOM     18  C   UNL     1      -4.130   4.005  -2.867  0.00  0.00    -0.029 A 
ATOM     19  C   UNL     1      -5.468   3.702  -2.691  0.00  0.00    +0.007 A 
ATOM     20  C   UNL     1      -6.379   4.712  -2.445  0.00  0.00    +0.033 A 
ATOM     21  C   UNL     1      -5.954   6.027  -2.385  0.00  0.00    +0.126 A 
ATOM     22  C   UNL     1      -4.618   6.330  -2.567  0.00  0.00    +0.033 A 
ATOM     23  C   UNL     1      -3.706   5.319  -2.807  0.00  0.00    +0.007 A 
BRANCH  21  24
ATOM     24  N   UNL     1      -6.930   7.109  -2.127  0.00  0.00    +0.056 N 
ATOM     25  O   UNL     1      -6.556   8.267  -2.074  0.00  0.00    -0.126 OA
ATOM     26  O   UNL     1      -8.108   6.841  -1.968  0.00  0.00    -0.126 OA
ENDBRANCH  21  24
ENDBRANCH  17  18
ENDBRANCH   5  17
TORSDOF 4
