REMARK  Name = ZINC12972976
REMARK  10 active torsions:
REMARK  status: ('A' for Active; 'I' for Inactive)
REMARK    1  A    between atoms: C_1  and  C_2
REMARK    2  A    between atoms: C_2  and  O_3
REMARK    3  A    between atoms: O_3  and  C_4
REMARK    4  A    between atoms: C_9  and  N_10
REMARK    5  A    between atoms: N_13  and  C_16
REMARK    6  A    between atoms: C_16  and  N_49
REMARK    7  A    between atoms: C_17  and  N_49
REMARK    8  A    between atoms: C_18  and  C_19
REMARK    9  A    between atoms: C_18  and  N_49
REMARK   10  A    between atoms: C_24  and  C_25
REMARK                            x       y       z     vdW  Elec       q    Type
REMARK                         _______ _______ _______ _____ _____    ______ ____
ROOT
ATOM      1  N   UNL     1      -1.897   2.399   3.531  0.00  0.00    -0.185 N 
ATOM      2  C   UNL     1      -2.632   2.790   4.595  0.00  0.00    +0.199 A 
ATOM      3  S   UNL     1      -2.339   2.410   6.239  0.00  0.00    -0.010 S 
ATOM      4  N   UNL     1      -3.640   3.544   4.106  0.00  0.00    -0.238 N 
ATOM      5  N   UNL     1      -3.497   3.587   2.714  0.00  0.00    -0.046 NA
ATOM      6  N   UNL     1      -2.500   2.932   2.385  0.00  0.00    -0.040 NA
ENDROOT
BRANCH   1  12
ATOM      7  C   UNL     1       0.389   1.978   2.852  0.00  0.00    +0.146 A 
ATOM      8  C   UNL     1       1.526   1.188   2.897  0.00  0.00    +0.048 A 
ATOM      9  C   UNL     1       1.532   0.025   3.644  0.00  0.00    +0.004 A 
ATOM     10  C   UNL     1       0.404  -0.354   4.349  0.00  0.00    +0.002 A 
ATOM     11  C   UNL     1      -0.735   0.428   4.310  0.00  0.00    +0.031 A 
ATOM     12  C   UNL     1      -0.746   1.600   3.567  0.00  0.00    +0.111 A 
BRANCH   7  13
ATOM     13  O   UNL     1       0.382   3.122   2.118  0.00  0.00    -0.490 OA
BRANCH  13  15
ATOM     14  C   UNL     1       1.385   4.760   0.651  0.00  0.00    +0.048 C 
ATOM     15  C   UNL     1       1.583   3.449   1.415  0.00  0.00    +0.226 C 
ENDBRANCH  13  15
ENDBRANCH   7  13
ENDBRANCH   1  12
BRANCH   4  16
ATOM     16  C   UNL     1      -4.695   4.192   4.889  0.00  0.00    +0.073 C 
BRANCH  16  18
ATOM     17  C   UNL     1      -6.469   3.015   3.736  0.00  0.00    -0.093 C 
ATOM     18  N   UNL     1      -5.822   3.249   5.044  0.00  0.00    +0.394 N 
ATOM     19  H   UNL     1      -5.463   2.356   5.402  0.00  0.00    -0.079 HD
BRANCH  18  20
ATOM     20  C   UNL     1      -6.806   3.791   6.004  0.00  0.00    -0.041 C 
BRANCH  20  21
ATOM     21  C   UNL     1      -7.825   2.723   6.311  0.00  0.00    -0.061 A 
ATOM     22  C   UNL     1      -9.066   2.756   5.702  0.00  0.00    +0.002 A 
ATOM     23  C   UNL     1      -9.998   1.774   5.979  0.00  0.00    +0.000 A 
ATOM     24  C   UNL     1      -9.694   0.765   6.874  0.00  0.00    +0.000 A 
ATOM     25  C   UNL     1      -8.456   0.736   7.487  0.00  0.00    +0.003 A 
ATOM     26  C   UNL     1      -7.521   1.715   7.206  0.00  0.00    -0.049 A 
ATOM     27  C   UNL     1      -6.171   1.682   7.875  0.00  0.00    +0.044 C 
ENDBRANCH  20  21
ENDBRANCH  18  20
ENDBRANCH  16  18
ENDBRANCH   4  16
TORSDOF 7
