REMARK  Name = ZINC08680760
REMARK  9 active torsions:
REMARK  status: ('A' for Active; 'I' for Inactive)
REMARK    1  A    between atoms: C_1  and  C_2
REMARK    2  A    between atoms: C_2  and  O_3
REMARK    3  A    between atoms: O_3  and  C_4
REMARK    4  A    between atoms: C_12  and  C_14
REMARK    5  A    between atoms: N_17  and  S_20
REMARK    6  A    between atoms: S_20  and  C_23
REMARK    7  A    between atoms: C_24  and  C_31
REMARK    8  A    between atoms: C_26  and  C_30
REMARK    9  A    between atoms: C_28  and  C_29
REMARK                            x       y       z     vdW  Elec       q    Type
REMARK                         _______ _______ _______ _____ _____    ______ ____
ROOT
ATOM      1  C   UNL     1       3.453  -5.761  -4.053  0.00  0.00    +0.078 C 
ATOM      2  C   UNL     1       4.446  -6.240  -2.992  0.00  0.00    +0.030 C 
ATOM      3  C   UNL     1       4.867  -7.679  -3.305  0.00  0.00    +0.110 C 
ATOM      4  N   UNL     1       5.380  -7.733  -4.681  0.00  0.00    -0.177 NA
ATOM      5  C   UNL     1       4.541  -7.214  -5.769  0.00  0.00    +0.110 C 
ATOM      6  C   UNL     1       4.123  -5.780  -5.428  0.00  0.00    +0.030 C 
ENDROOT
BRANCH   1  15
ATOM      7  C   UNL     1      -1.152  -3.583  -0.555  0.00  0.00    +0.403 C 
ATOM      8  O   UNL     1      -1.592  -4.520   0.081  0.00  0.00    -0.226 OA
ATOM      9  N   UNL     1      -0.306  -3.803  -1.581  0.00  0.00    -0.264 N 
ATOM     10  C   UNL     1       0.239  -2.679  -2.356  0.00  0.00    +0.130 C 
ATOM     11  C   UNL     1       1.770  -2.769  -2.338  0.00  0.00    +0.127 C 
ATOM     12  N   UNL     1       2.164  -4.137  -2.703  0.00  0.00    -0.298 N 
ATOM     13  C   UNL     1       1.619  -5.261  -1.928  0.00  0.00    +0.127 C 
ATOM     14  C   UNL     1       0.092  -5.171  -1.942  0.00  0.00    +0.130 C 
ATOM     15  C   UNL     1       3.010  -4.357  -3.728  0.00  0.00    +0.219 C 
ATOM     16  O   UNL     1       3.415  -3.426  -4.391  0.00  0.00    -0.275 OA
BRANCH   7  17
ATOM     17  O   UNL     1      -1.509  -2.325  -0.236  0.00  0.00    -0.451 OA
BRANCH  17  19
ATOM     18  C   UNL     1      -2.697  -0.678   1.075  0.00  0.00    +0.048 C 
ATOM     19  C   UNL     1      -2.409  -2.166   0.863  0.00  0.00    +0.230 C 
ENDBRANCH  17  19
ENDBRANCH   7  17
ENDBRANCH   1  15
BRANCH   4  20
ATOM     20  S   UNL     1       6.877  -8.367  -4.999  0.00  0.00    +0.061 S 
ATOM     21  O   UNL     1       7.308  -7.794  -6.226  0.00  0.00    -0.153 OA
ATOM     22  O   UNL     1       7.630  -8.253  -3.799  0.00  0.00    -0.153 OA
BRANCH  20  23
ATOM     23  C   UNL     1       6.660 -10.090  -5.296  0.00  0.00    +0.111 A 
ATOM     24  C   UNL     1       6.574 -10.563  -6.592  0.00  0.00    -0.024 A 
ATOM     25  C   UNL     1       6.405 -11.915  -6.825  0.00  0.00    +0.008 A 
ATOM     26  C   UNL     1       6.322 -12.794  -5.762  0.00  0.00    -0.050 A 
ATOM     27  C   UNL     1       6.408 -12.322  -4.466  0.00  0.00    +0.008 A 
ATOM     28  C   UNL     1       6.582 -10.970  -4.233  0.00  0.00    -0.024 A 
ATOM     29  C   UNL     1       6.682 -10.456  -2.820  0.00  0.00    +0.046 C 
ATOM     30  C   UNL     1       6.136 -14.268  -6.016  0.00  0.00    +0.044 C 
ATOM     31  C   UNL     1       6.665  -9.604  -7.751  0.00  0.00    +0.046 C 
ENDBRANCH  20  23
ENDBRANCH   4  20
TORSDOF 5
