REMARK  Name = ZINC20745271
REMARK  4 active torsions:
REMARK  status: ('A' for Active; 'I' for Inactive)
REMARK    1  A    between atoms: C_1  and  C_2
REMARK    2  A    between atoms: C_6  and  C_7
REMARK    3  A    between atoms: C_13  and  C_15
REMARK    4  A    between atoms: C_17  and  C_21
REMARK                            x       y       z     vdW  Elec       q    Type
REMARK                         _______ _______ _______ _____ _____    ______ ____
ROOT
ATOM      1  C   UNL     1       0.029  -0.208   2.562  0.00  0.00    +0.193 A 
ATOM      2  N   UNL     1       0.010   1.055   2.929  0.00  0.00    -0.126 NA
ATOM      3  N   UNL     1       0.023   1.138   4.213  0.00  0.00    -0.120 NA
ATOM      4  C   UNL     1       0.050  -0.055   4.729  0.00  0.00    +0.219 A 
ATOM      5  N   UNL     1       0.051  -0.983   3.715  0.00  0.00    -0.185 N 
ATOM      6  N   UNL     1       0.073  -2.318   4.095  0.00  0.00    -0.154 NA
ATOM      7  C   UNL     1       0.090  -2.662   5.359  0.00  0.00    +0.150 A 
ATOM      8  S   UNL     1       0.085  -1.077   6.181  0.00  0.00    -0.025 S 
ENDROOT
BRANCH   7   9
ATOM      9  C   UNL     1       0.115  -4.013   5.951  0.00  0.00    +0.093 A 
ATOM     10  C   UNL     1       0.131  -5.207   5.264  0.00  0.00    +0.054 A 
ATOM     11  C   UNL     1       0.153  -6.236   6.205  0.00  0.00    +0.060 A 
ATOM     12  N   UNL     1       0.150  -5.709   7.403  0.00  0.00    -0.179 NA
ATOM     13  N   UNL     1       0.132  -4.314   7.282  0.00  0.00    -0.275 N 
ATOM     14  H   UNL     1       0.130  -3.677   8.012  0.00  0.00    +0.189 HD
ATOM     15  C   UNL     1       0.175  -7.711   5.894  0.00  0.00    +0.067 C 
ENDBRANCH   7   9
BRANCH   1  21
ATOM     16  C   UNL     1      -0.018   1.503   0.010  0.00  0.00    +0.045 C 
ATOM     17  C   UNL     1       0.002  -0.004   0.002  0.00  0.00    -0.033 A 
ATOM     18  C   UNL     1       0.006  -0.700  -1.187  0.00  0.00    +0.011 A 
ATOM     19  C   UNL     1       0.025  -2.058  -1.159  0.00  0.00    +0.046 A 
ATOM     20  S   UNL     1       0.038  -2.397   0.594  0.00  0.00    -0.093 S 
ATOM     21  C   UNL     1       0.023  -0.710   1.178  0.00  0.00    +0.061 A 
ENDBRANCH   1  21
TORSDOF 2
