REMARK  Name = ZINC27850364
REMARK  7 active torsions:
REMARK  status: ('A' for Active; 'I' for Inactive)
REMARK    1  A    between atoms: C_1  and  C_2
REMARK    2  A    between atoms: C_2  and  N_3
REMARK    3  A    between atoms: C_12  and  S_13
REMARK    4  A    between atoms: S_13  and  C_14
REMARK    5  A    between atoms: C_14  and  C_16
REMARK    6  A    between atoms: C_14  and  C_17
REMARK    7  A    between atoms: N_22  and  C_23
REMARK                            x       y       z     vdW  Elec       q    Type
REMARK                         _______ _______ _______ _____ _____    ______ ____
ROOT
ATOM      1  C   UNL     1      -0.721   1.573   1.259  0.00  0.00    +0.137 C 
ATOM      2  C   UNL     1      -0.003   1.069   0.005  0.00  0.00    +0.029 C 
ENDROOT
BRANCH   1   3
ATOM      3  C   UNL     1       0.003   1.078   2.485  0.00  0.00    +0.234 C 
ATOM      4  O   UNL     1      -0.363   0.062   3.036  0.00  0.00    -0.274 OA
ATOM      5  N   UNL     1       1.056   1.766   2.969  0.00  0.00    -0.239 N 
ATOM      6  C   UNL     1       1.703   1.323   4.066  0.00  0.00    +0.310 C 
ATOM      7  O   UNL     1       1.337   0.304   4.618  0.00  0.00    -0.252 OA
ATOM      8  N   UNL     1       2.756   2.010   4.550  0.00  0.00    -0.269 N 
ATOM      9  H   UNL     1       1.387   2.688   2.470  0.00  0.00    +0.159 HD
ATOM     10  H   UNL     1       3.135   2.889   4.008  0.00  0.00    +0.156 HD
BRANCH   8  11
ATOM     11  C   UNL     1       3.368   1.606   5.742  0.00  0.00    +0.035 A 
ATOM     12  C   UNL     1       3.887   2.554   6.614  0.00  0.00    +0.024 A 
ATOM     13  C   UNL     1       4.484   2.152   7.793  0.00  0.00    +0.017 A 
ATOM     14  C   UNL     1       4.576   0.806   8.100  0.00  0.00    +0.018 A 
ATOM     15  C   UNL     1       4.065  -0.141   7.230  0.00  0.00    +0.017 A 
ATOM     16  C   UNL     1       3.462   0.256   6.052  0.00  0.00    +0.024 A 
ATOM     17 BR   UNL     1       5.401   0.259   9.711  0.00  0.00    -0.050 Br
ENDBRANCH   8  11
ENDBRANCH   1   3
BRANCH   1  18
ATOM     18  S   UNL     1      -2.421   0.953   1.271  0.00  0.00    -0.075 S 
BRANCH  18  28
ATOM     19  N   UNL     1      -4.363   1.573  -0.494  0.00  0.00    -0.287 N 
ATOM     20  C   UNL     1      -4.868   2.204  -1.581  0.00  0.00    +0.269 A 
ATOM     21  O   UNL     1      -6.028   2.039  -1.919  0.00  0.00    -0.266 OA
ATOM     22  C   UNL     1      -4.026   3.047  -2.304  0.00  0.00    +0.102 A 
ATOM     23  C   UNL     1      -2.686   3.248  -1.928  0.00  0.00    +0.086 A 
ATOM     24  C   UNL     1      -1.955   4.122  -2.745  0.00  0.00    +0.036 A 
ATOM     25  C   UNL     1      -2.543   4.707  -3.811  0.00  0.00    +0.048 A 
ATOM     26  S   UNL     1      -4.206   4.061  -3.747  0.00  0.00    -0.090 S 
ATOM     27  N   UNL     1      -2.266   2.575  -0.816  0.00  0.00    -0.222 NA
ATOM     28  C   UNL     1      -3.059   1.782  -0.147  0.00  0.00    +0.173 A 
BRANCH  19  30
ATOM     29  C   UNL     1      -5.900   1.473   1.406  0.00  0.00    +0.027 C 
ATOM     30  C   UNL     1      -5.207   0.675   0.299  0.00  0.00    +0.124 C 
ENDBRANCH  19  30
ENDBRANCH  18  28
ENDBRANCH   1  18
TORSDOF 5
