REMARK  Name = ZINC43652180
REMARK  4 active torsions:
REMARK  status: ('A' for Active; 'I' for Inactive)
REMARK    1  A    between atoms: C_1  and  C_2
REMARK    2  A    between atoms: C_8  and  C_11
REMARK    3  A    between atoms: C_11  and  C_12
REMARK    4  A    between atoms: C_17  and  N_18
REMARK                            x       y       z     vdW  Elec       q    Type
REMARK                         _______ _______ _______ _____ _____    ______ ____
ROOT
ATOM      1  C   UNL     1       0.232   0.174   4.966  0.00  0.00    -0.014 A 
ATOM      2  C   UNL     1      -0.694  -0.430   5.796  0.00  0.00    +0.044 A 
ATOM      3  C   UNL     1      -1.141   0.229   6.928  0.00  0.00    +0.124 A 
ATOM      4  C   UNL     1      -0.661   1.492   7.229  0.00  0.00    +0.040 A 
ATOM      5  C   UNL     1       0.264   2.095   6.398  0.00  0.00    +0.036 A 
ATOM      6  C   UNL     1       0.715   1.434   5.270  0.00  0.00    +0.130 A 
ATOM      7  F   UNL     1      -2.046  -0.361   7.740  0.00  0.00    -0.205 F 
ENDROOT
BRANCH   6   8
ATOM      8  N   UNL     1       1.711   2.077   4.384  0.00  0.00    +0.057 N 
ATOM      9  O   UNL     1       2.195   3.141   4.691  0.00  0.00    -0.126 OA
ATOM     10  O   UNL     1       2.040   1.538   3.353  0.00  0.00    -0.126 OA
ENDBRANCH   6   8
BRANCH   1  11
ATOM     11  C   UNL     1       0.720  -0.542   3.733  0.00  0.00    +0.048 C 
BRANCH  11  18
ATOM     12  C   UNL     1      -0.190   1.416  -0.028  0.00  0.00    +0.007 C 
ATOM     13  C   UNL     1      -0.179  -0.113   0.013  0.00  0.00    -0.013 C 
ATOM     14  C   UNL     1      -1.616  -0.630   0.103  0.00  0.00    +0.011 C 
ATOM     15  C   UNL     1      -2.301  -0.018   1.330  0.00  0.00    +0.075 C 
ATOM     16  C   UNL     1      -1.455  -0.313   2.549  0.00  0.00    +0.137 C 
ATOM     17  O   UNL     1      -1.943  -0.809   3.536  0.00  0.00    -0.297 OA
ATOM     18  C   UNL     1       0.018   0.030   2.500  0.00  0.00    +0.060 C 
ATOM     19  C   UNL     1       0.617  -0.583   1.232  0.00  0.00    +0.014 C 
ENDBRANCH  11  18
ENDBRANCH   1  11
TORSDOF 3
