REMARK  Name = ZINC64143382
REMARK  8 active torsions:
REMARK  status: ('A' for Active; 'I' for Inactive)
REMARK    1  A    between atoms: C_1  and  C_2
REMARK    2  A    between atoms: C_5  and  C_30
REMARK    3  A    between atoms: N_7  and  C_9
REMARK    4  A    between atoms: C_12  and  N_15
REMARK    5  A    between atoms: C_18  and  N_21
REMARK    6  A    between atoms: N_21  and  C_22
REMARK    7  A    between atoms: C_22  and  C_23
REMARK    8  A    between atoms: C_23  and  C_24
REMARK                            x       y       z     vdW  Elec       q    Type
REMARK                         _______ _______ _______ _____ _____    ______ ____
ROOT
ATOM      1  N   UNL     1       2.759  -5.828   4.249  0.00  0.00    -0.330 N 
ATOM      2  C   UNL     1       2.275  -7.214   4.198  0.00  0.00    +0.103 C 
ATOM      3  C   UNL     1       2.069  -7.718   5.630  0.00  0.00    +0.003 C 
ATOM      4  C   UNL     1       3.366  -7.534   6.422  0.00  0.00    -0.069 C 
ATOM      5  C   UNL     1       3.725  -6.047   6.479  0.00  0.00    +0.003 C 
ATOM      6  C   UNL     1       3.952  -5.526   5.052  0.00  0.00    +0.103 C 
ENDROOT
BRANCH   1  10
ATOM      7  C   UNL     1       0.799  -2.813   2.138  0.00  0.00    +0.045 A 
ATOM      8  C   UNL     1       1.994  -2.540   2.791  0.00  0.00    +0.026 A 
ATOM      9  C   UNL     1       2.643  -3.538   3.490  0.00  0.00    +0.025 A 
ATOM     10  C   UNL     1       2.101  -4.816   3.541  0.00  0.00    +0.030 A 
ATOM     11  C   UNL     1       0.906  -5.089   2.888  0.00  0.00    +0.025 A 
ATOM     12  C   UNL     1       0.254  -4.089   2.194  0.00  0.00    +0.026 A 
BRANCH   7  17
ATOM     13  C   UNL     1      -0.453   1.684   0.638  0.00  0.00    +0.025 C 
ATOM     14  C   UNL     1      -0.015   0.240   0.384  0.00  0.00    +0.072 C 
ATOM     15  C   UNL     1      -1.191  -0.607  -0.175  0.00  0.00    +0.043 C 
ATOM     16  C   UNL     1      -0.804  -2.021   0.323  0.00  0.00    +0.089 C 
ATOM     17  N   UNL     1       0.141  -1.801   1.429  0.00  0.00    -0.264 N 
ATOM     18  N   UNL     1       0.282  -0.457   1.662  0.00  0.00    -0.237 NA
ATOM     19  C   UNL     1      -0.132  -2.812  -0.801  0.00  0.00    +0.029 C 
ATOM     20  H   UNL     1      -0.341  -0.150   2.394  0.00  0.00    +0.145 HD
ENDBRANCH   7  17
ENDBRANCH   1  10
BRANCH   4  21
ATOM     21  N   UNL     1       3.183  -8.046   7.787  0.00  0.00    +0.381 N 
ATOM     22  H   UNL     1       2.495  -7.485   8.267  0.00  0.00    -0.086 HD
ATOM     23  H   UNL     1       2.868  -9.004   7.747  0.00  0.00    -0.086 HD
BRANCH  21  24
ATOM     24  C   UNL     1       4.460  -7.980   8.510  0.00  0.00    -0.076 C 
BRANCH  24  25
ATOM     25  C   UNL     1       4.269  -8.514   9.931  0.00  0.00    +0.038 C 
BRANCH  25  26
ATOM     26  C   UNL     1       5.580  -8.446  10.673  0.00  0.00    +0.057 A 
ATOM     27  H   UNL     1       7.567  -7.683  12.953  0.00  0.00    +0.166 HD
ATOM     28  C   UNL     1       5.791  -7.829  11.851  0.00  0.00    +0.107 A 
ATOM     29  N   UNL     1       7.111  -8.012  12.162  0.00  0.00    -0.351 N 
ATOM     30  C   UNL     1       7.661  -8.734  11.163  0.00  0.00    +0.196 A 
ATOM     31  N   UNL     1       6.738  -8.995  10.278  0.00  0.00    -0.241 NA
ENDBRANCH  25  26
ENDBRANCH  24  25
ENDBRANCH  21  24
ENDBRANCH   4  21
TORSDOF 6
