REMARK  Name = ZINC57788725
REMARK  11 active torsions:
REMARK  status: ('A' for Active; 'I' for Inactive)
REMARK    1  A    between atoms: C_1  and  C_2
REMARK    2  A    between atoms: C_2  and  N_3
REMARK    3  A    between atoms: N_3  and  C_4
REMARK    4  A    between atoms: N_3  and  S_6
REMARK    5  A    between atoms: C_4  and  C_5
REMARK    6  A    between atoms: S_6  and  C_9
REMARK    7  A    between atoms: C_12  and  C_15
REMARK    8  A    between atoms: C_15  and  C_17
REMARK    9  A    between atoms: C_15  and  N_18
REMARK   10  A    between atoms: N_18  and  C_19
REMARK   11  A    between atoms: C_19  and  C_20
REMARK                            x       y       z     vdW  Elec       q    Type
REMARK                         _______ _______ _______ _____ _____    ______ ____
ROOT
ATOM      1  C   UNL     1      -4.850   4.018   3.541  0.00  0.00    +0.081 C 
ATOM      2  C   UNL     1      -4.852   5.100   2.459  0.00  0.00    +0.029 C 
ENDROOT
BRANCH   1   6
ATOM      3  C   UNL     1      -2.898   0.520   2.058  0.00  0.00    +0.105 A 
ATOM      4  C   UNL     1      -2.215   1.396   2.881  0.00  0.00    +0.029 A 
ATOM      5  C   UNL     1      -2.847   2.528   3.361  0.00  0.00    +0.007 A 
ATOM      6  C   UNL     1      -4.161   2.784   3.017  0.00  0.00    -0.031 A 
ATOM      7  C   UNL     1      -4.843   1.909   2.192  0.00  0.00    +0.007 A 
ATOM      8  C   UNL     1      -4.210   0.779   1.709  0.00  0.00    +0.029 A 
BRANCH   3   9
ATOM      9  S   UNL     1      -2.092  -0.923   1.446  0.00  0.00    +0.061 S 
ATOM     10  O   UNL     1      -3.116  -1.857   1.133  0.00  0.00    -0.153 OA
ATOM     11  O   UNL     1      -1.043  -1.219   2.357  0.00  0.00    -0.153 OA
BRANCH   9  12
ATOM     12  N   UNL     1      -1.372  -0.511   0.012  0.00  0.00    -0.177 NA
BRANCH  12  14
ATOM     13  C   UNL     1      -0.019   1.526   0.010  0.00  0.00    +0.022 C 
ATOM     14  C   UNL     1       0.002  -0.004   0.002  0.00  0.00    +0.106 C 
ENDBRANCH  12  14
BRANCH  12  15
ATOM     15  C   UNL     1      -2.110  -0.654  -1.245  0.00  0.00    +0.106 C 
ATOM     16  C   UNL     1      -1.773  -2.003  -1.884  0.00  0.00    +0.022 C 
ENDBRANCH  12  15
ENDBRANCH   9  12
ENDBRANCH   3   9
ENDBRANCH   1   6
BRANCH   1  17
ATOM     17  N   UNL     1      -6.234   3.688   3.905  0.00  0.00    -0.304 NA
ATOM     18  H   UNL     1      -6.831   3.679   3.091  0.00  0.00    +0.123 HD
BRANCH  17  19
ATOM     19  C   UNL     1      -6.746   4.616   4.923  0.00  0.00    +0.135 C 
BRANCH  19  20
ATOM     20  C   UNL     1      -8.165   4.247   5.271  0.00  0.00    +0.037 A 
ATOM     21  C   UNL     1      -8.486   3.808   6.538  0.00  0.00    +0.093 A 
ATOM     22  C   UNL     1      -9.805   3.471   6.841  0.00  0.00    +0.259 A 
ATOM     23  O   UNL     1     -10.094   3.082   7.962  0.00  0.00    -0.267 OA
ATOM     24  N   UNL     1     -10.773   3.578   5.883  0.00  0.00    -0.264 N 
ATOM     25  C   UNL     1     -12.108   3.286   6.028  0.00  0.00    +0.104 A 
ATOM     26  C   UNL     1     -12.959   3.432   5.012  0.00  0.00    +0.067 A 
ATOM     27  S   UNL     1     -11.881   4.021   3.715  0.00  0.00    -0.059 S 
ATOM     28  C   UNL     1     -10.368   4.022   4.652  0.00  0.00    +0.158 A 
ATOM     29  N   UNL     1      -9.133   4.344   4.362  0.00  0.00    -0.338 N 
ATOM     30  H   UNL     1      -8.918   4.656   3.469  0.00  0.00    +0.168 HD
ENDBRANCH  19  20
ENDBRANCH  17  19
ENDBRANCH   1  17
TORSDOF 8
