REMARK  Name = ZINC64623176
REMARK  7 active torsions:
REMARK  status: ('A' for Active; 'I' for Inactive)
REMARK    1  A    between atoms: C_1  and  C_2
REMARK    2  A    between atoms: C_2  and  O_3
REMARK    3  A    between atoms: O_3  and  C_4
REMARK    4  A    between atoms: C_7  and  N_10
REMARK    5  A    between atoms: C_19  and  O_35
REMARK    6  A    between atoms: C_26  and  C_28
REMARK    7  A    between atoms: O_35  and  C_36
REMARK                            x       y       z     vdW  Elec       q    Type
REMARK                         _______ _______ _______ _____ _____    ______ ____
ROOT
ATOM      1  N   UNL     1      -2.527  -5.539  -0.331  0.00  0.00    -0.269 N 
ATOM      2  C   UNL     1      -3.614  -6.284  -0.048  0.00  0.00    +0.307 C 
ATOM      3  O   UNL     1      -4.686  -5.745   0.148  0.00  0.00    -0.252 OA
ATOM      4  N   UNL     1      -3.511  -7.626   0.020  0.00  0.00    -0.276 N 
ATOM      5  C   UNL     1      -2.192  -8.259  -0.075  0.00  0.00    +0.114 C 
ATOM      6  C   UNL     1      -1.940  -9.110   1.183  0.00  0.00    +0.052 C 
ATOM      7  C   UNL     1      -3.201  -9.899   1.431  0.00  0.00    -0.035 C 
ATOM      8  C   UNL     1      -3.401 -11.197   1.621  0.00  0.00    +0.003 A 
ATOM      9  C   UNL     1      -2.467 -12.324   1.766  0.00  0.00    +0.055 A 
ATOM     10  C   UNL     1      -3.019 -13.558   1.932  0.00  0.00    +0.121 A 
ATOM     11  C   UNL     1      -4.401 -13.800   1.968  0.00  0.00    +0.047 A 
ATOM     12  C   UNL     1      -5.348 -12.835   1.852  0.00  0.00    +0.029 A 
ATOM     13  C   UNL     1      -4.873 -11.456   1.677  0.00  0.00    +0.043 A 
ATOM     14  N   UNL     1      -5.535 -10.344   1.564  0.00  0.00    -0.375 N 
ATOM     15  C   UNL     1      -4.576  -9.242   1.485  0.00  0.00    +0.131 C 
ATOM     16  C   UNL     1      -4.725  -8.441   0.193  0.00  0.00    +0.134 C 
ATOM     17  H   UNL     1      -1.689  -5.971  -0.561  0.00  0.00    +0.156 HD
ATOM     18  H   UNL     1      -6.501 -10.259   1.536  0.00  0.00    +0.160 HD
ENDROOT
BRANCH  16  19
ATOM     19  C   UNL     1      -4.878  -9.383  -0.973  0.00  0.00    -0.025 A 
ATOM     20  C   UNL     1      -5.911  -9.204  -1.874  0.00  0.00    +0.008 A 
ATOM     21  C   UNL     1      -6.052 -10.067  -2.944  0.00  0.00    +0.038 A 
ATOM     22  C   UNL     1      -5.159 -11.111  -3.114  0.00  0.00    +0.123 A 
ATOM     23  C   UNL     1      -4.125 -11.290  -2.210  0.00  0.00    +0.038 A 
ATOM     24  C   UNL     1      -3.982 -10.422  -1.144  0.00  0.00    +0.008 A 
ATOM     25  F   UNL     1      -5.297 -11.956  -4.159  0.00  0.00    -0.205 F 
ENDBRANCH  16  19
BRANCH   1  29
ATOM     26  C   UNL     1      -2.765  -1.377  -0.220  0.00  0.00    +0.121 A 
ATOM     27  C   UNL     1      -1.584  -2.013   0.132  0.00  0.00    +0.047 A 
ATOM     28  C   UNL     1      -1.504  -3.392   0.095  0.00  0.00    +0.027 A 
ATOM     29  C   UNL     1      -2.607  -4.140  -0.293  0.00  0.00    +0.035 A 
ATOM     30  C   UNL     1      -3.789  -3.502  -0.644  0.00  0.00    +0.027 A 
ATOM     31  C   UNL     1      -3.869  -2.124  -0.603  0.00  0.00    +0.047 A 
BRANCH  26  32
ATOM     32  O   UNL     1      -2.843  -0.020  -0.184  0.00  0.00    -0.492 OA
BRANCH  32  34
ATOM     33  C   UNL     1      -1.945   2.191   0.200  0.00  0.00    +0.048 C 
ATOM     34  C   UNL     1      -1.668   0.687   0.220  0.00  0.00    +0.225 C 
ENDBRANCH  32  34
ENDBRANCH  26  32
ENDBRANCH   1  29
BRANCH  10  35
ATOM     35  O   UNL     1      -2.182 -14.619   2.069  0.00  0.00    -0.495 OA
ATOM     36  C   UNL     1      -2.784 -15.903   2.241  0.00  0.00    +0.277 C 
ENDBRANCH  10  35
TORSDOF 5
