REMARK  Name = ZINC02398775
REMARK  3 active torsions:
REMARK  status: ('A' for Active; 'I' for Inactive)
REMARK    1  A    between atoms: C_1  and  C_2
REMARK    2  A    between atoms: C_5  and  C_8
REMARK    3  A    between atoms: C_11  and  C_26
REMARK                            x       y       z     vdW  Elec       q    Type
REMARK                         _______ _______ _______ _____ _____    ______ ____
ROOT
ATOM      1  C   UNL     1       0.059  -4.275  -0.021  0.00  0.00    +0.106 C 
ATOM      2  C   UNL     1       1.488  -4.773   0.227  0.00  0.00    +0.058 C 
ATOM      3  C   UNL     1       2.007  -4.212   1.557  0.00  0.00    +0.143 C 
ATOM      4  N   UNL     1       1.002  -4.446   2.593  0.00  0.00    -0.224 N 
ATOM      5  C   UNL     1      -0.303  -4.715   2.344  0.00  0.00    +0.216 A 
ATOM      6  N   UNL     1      -0.912  -4.871   3.488  0.00  0.00    -0.179 NA
ATOM      7  C   UNL     1      -0.033  -4.708   4.488  0.00  0.00    +0.251 A 
ATOM      8  N   UNL     1       1.150  -4.446   3.980  0.00  0.00    -0.131 NA
ATOM      9  N   UNL     1      -0.329  -4.802   5.854  0.00  0.00    -0.176 N 
ATOM     10  C   UNL     1       0.592  -4.623   6.809  0.00  0.00    +0.229 C 
ATOM     11  O   UNL     1       1.761  -4.365   6.618  0.00  0.00    -0.275 OA
ATOM     12  C   UNL     1      -0.057  -4.793   8.165  0.00  0.00    +0.106 C 
ATOM     13  C   UNL     1      -1.529  -5.105   7.825  0.00  0.00    +0.106 C 
ATOM     14  C   UNL     1      -1.558  -5.073   6.312  0.00  0.00    +0.229 C 
ATOM     15  O   UNL     1      -2.537  -5.264   5.624  0.00  0.00    -0.275 OA
ATOM     16  N   UNL     1      -0.815  -4.788   1.051  0.00  0.00    -0.307 N 
ATOM     17  H   UNL     1      -1.693  -5.155   0.864  0.00  0.00    +0.149 HD
ENDROOT
BRANCH   1  22
ATOM     18  C   UNL     1      -0.018   1.503   0.010  0.00  0.00    +0.044 C 
ATOM     19  C   UNL     1       0.002  -0.004   0.002  0.00  0.00    -0.050 A 
ATOM     20  C   UNL     1       0.006  -0.689  -1.199  0.00  0.00    +0.004 A 
ATOM     21  C   UNL     1       0.025  -2.071  -1.206  0.00  0.00    +0.006 A 
ATOM     22  C   UNL     1       0.040  -2.768  -0.013  0.00  0.00    -0.027 A 
ATOM     23  C   UNL     1       0.037  -2.084   1.188  0.00  0.00    +0.006 A 
ATOM     24  C   UNL     1       0.023  -0.702   1.195  0.00  0.00    +0.004 A 
ENDBRANCH   1  22
BRANCH   3  25
ATOM     25  C   UNL     1       3.292  -4.906   1.930  0.00  0.00    -0.023 A 
ATOM     26  C   UNL     1       3.309  -6.276   2.113  0.00  0.00    +0.008 A 
ATOM     27  C   UNL     1       4.487  -6.914   2.455  0.00  0.00    +0.038 A 
ATOM     28  C   UNL     1       5.649  -6.179   2.615  0.00  0.00    +0.123 A 
ATOM     29  C   UNL     1       5.631  -4.807   2.432  0.00  0.00    +0.038 A 
ATOM     30  C   UNL     1       4.454  -4.172   2.085  0.00  0.00    +0.008 A 
ATOM     31  F   UNL     1       6.801  -6.801   2.950  0.00  0.00    -0.205 F 
ENDBRANCH   3  25
TORSDOF 2
