REMARK  Name = ZINC36597389
REMARK  8 active torsions:
REMARK  status: ('A' for Active; 'I' for Inactive)
REMARK    1  A    between atoms: C_1  and  C_2
REMARK    2  A    between atoms: C_2  and  C_3
REMARK    3  A    between atoms: C_2  and  C_4
REMARK    4  A    between atoms: C_4  and  C_6
REMARK    5  A    between atoms: C_4  and  N_10
REMARK    6  A    between atoms: C_6  and  O_8
REMARK    7  A    between atoms: O_8  and  C_9
REMARK    8  A    between atoms: C_22  and  C_24
REMARK                            x       y       z     vdW  Elec       q    Type
REMARK                         _______ _______ _______ _____ _____    ______ ____
ROOT
ATOM      1  N   UNL     1      -2.661   2.065  -0.001  0.00  0.00    -0.286 N 
ATOM      2  C   UNL     1      -2.719   1.237  -1.063  0.00  0.00    +0.304 C 
ATOM      3  O   UNL     1      -2.109   0.185  -1.047  0.00  0.00    -0.253 OA
ATOM      4  N   UNL     1      -3.451   1.575  -2.142  0.00  0.00    -0.273 N 
ATOM      5  C   UNL     1      -3.617   0.639  -3.264  0.00  0.00    +0.116 C 
ATOM      6  C   UNL     1      -2.963   1.236  -4.516  0.00  0.00    +0.074 C 
ATOM      7  C   UNL     1      -3.361   2.684  -4.628  0.00  0.00    +0.040 A 
ATOM      8  C   UNL     1      -3.864   3.426  -3.618  0.00  0.00    +0.062 A 
ATOM      9  N   UNL     1      -4.095   4.657  -4.081  0.00  0.00    -0.348 N 
ATOM     10  C   UNL     1      -3.757   4.709  -5.343  0.00  0.00    +0.171 A 
ATOM     11  N   UNL     1      -3.295   3.494  -5.721  0.00  0.00    -0.349 N 
ATOM     12  H   UNL     1      -2.977   3.247  -6.604  0.00  0.00    +0.166 HD
ATOM     13  C   UNL     1      -4.112   2.890  -2.224  0.00  0.00    +0.159 C 
ATOM     14  H   UNL     1      -3.083   2.937  -0.042  0.00  0.00    +0.151 HD
ATOM     15  H   UNL     1      -4.455   5.394  -3.564  0.00  0.00    +0.167 HD
ENDROOT
BRANCH  13  16
ATOM     16  C   UNL     1      -5.592   2.737  -1.984  0.00  0.00    +0.017 A 
ATOM     17  C   UNL     1      -6.472   2.778  -3.049  0.00  0.00    +0.011 A 
ATOM     18  C   UNL     1      -7.830   2.638  -2.832  0.00  0.00    +0.042 A 
ATOM     19  C   UNL     1      -8.311   2.455  -1.546  0.00  0.00    +0.161 A 
ATOM     20  C   UNL     1      -7.430   2.414  -0.477  0.00  0.00    +0.194 A 
ATOM     21  C   UNL     1      -6.068   2.549  -0.698  0.00  0.00    +0.167 A 
ATOM     22  F   UNL     1      -5.207   2.503   0.342  0.00  0.00    -0.202 F 
ATOM     23  F   UNL     1      -7.897   2.236   0.778  0.00  0.00    -0.199 F 
ATOM     24  F   UNL     1      -9.638   2.319  -1.335  0.00  0.00    -0.202 F 
ENDBRANCH  13  16
BRANCH   1  25
ATOM     25  C   UNL     1      -1.961   1.647   1.217  0.00  0.00    +0.186 C 
BRANCH  25  27
ATOM     26  C   UNL     1      -3.372  -0.411   1.323  0.00  0.00    +0.009 C 
ATOM     27  C   UNL     1      -2.908   0.826   2.094  0.00  0.00    +0.014 C 
ATOM     28  C   UNL     1      -2.176   0.390   3.365  0.00  0.00    +0.009 C 
ENDBRANCH  25  27
BRANCH  25  29
ATOM     29  C   UNL     1      -1.503   2.866   1.976  0.00  0.00    +0.328 C 
ATOM     30  O   UNL     1      -1.738   3.970   1.545  0.00  0.00    -0.249 OA
BRANCH  29  31
ATOM     31  O   UNL     1      -0.835   2.725   3.131  0.00  0.00    -0.467 OA
ATOM     32  C   UNL     1      -0.431   3.923   3.798  0.00  0.00    +0.280 C 
ENDBRANCH  29  31
ENDBRANCH  25  29
ENDBRANCH   1  25
TORSDOF 5
