REMARK  Name = ZINC02619726
REMARK  5 active torsions:
REMARK  status: ('A' for Active; 'I' for Inactive)
REMARK    1  A    between atoms: C_1  and  C_2
REMARK    2  A    between atoms: C_2  and  C_22
REMARK    3  A    between atoms: N_5  and  C_9
REMARK    4  A    between atoms: C_9  and  C_10
REMARK    5  A    between atoms: N_12  and  C_13
REMARK                            x       y       z     vdW  Elec       q    Type
REMARK                         _______ _______ _______ _____ _____    ______ ____
ROOT
ATOM      1  C   UNL     1      -0.832   2.000   1.213  0.00  0.00    +0.047 C 
ATOM      2  C   UNL     1      -0.049   1.486   0.003  0.00  0.00    +0.135 C 
ATOM      3  C   UNL     1      -0.643   2.019  -1.286  0.00  0.00    +0.251 C 
ATOM      4  O   UNL     1      -1.763   1.828  -1.710  0.00  0.00    -0.272 OA
ATOM      5  N   UNL     1       0.332   2.750  -1.862  0.00  0.00    -0.215 N 
ATOM      6  C   UNL     1       1.448   2.752  -1.124  0.00  0.00    +0.310 C 
ATOM      7  O   UNL     1       2.463   3.342  -1.438  0.00  0.00    -0.252 OA
ATOM      8  N   UNL     1       1.320   2.030   0.003  0.00  0.00    -0.281 N 
ATOM      9  H   UNL     1       1.998   1.892   0.683  0.00  0.00    +0.152 HD
ENDROOT
BRANCH   2  10
ATOM     10  C   UNL     1      -0.022  -0.020  -0.009  0.00  0.00    -0.015 A 
ATOM     11  C   UNL     1      -1.036  -0.725  -0.632  0.00  0.00    +0.007 A 
ATOM     12  C   UNL     1      -1.008  -2.106  -0.648  0.00  0.00    +0.020 A 
ATOM     13  C   UNL     1       0.028  -2.785  -0.031  0.00  0.00    +0.041 A 
ATOM     14  C   UNL     1       1.039  -2.079   0.597  0.00  0.00    +0.020 A 
ATOM     15  C   UNL     1       1.013  -0.698   0.608  0.00  0.00    +0.007 A 
ATOM     16 CL   UNL     1       0.058  -4.520  -0.044  0.00  0.00    -0.084 Cl
ENDBRANCH   2  10
BRANCH   5  17
ATOM     17  C   UNL     1       0.188   3.453  -3.139  0.00  0.00    +0.214 C 
BRANCH  17  18
ATOM     18  C   UNL     1       0.597   2.539  -4.265  0.00  0.00    +0.235 C 
ATOM     19  O   UNL     1       0.972   1.411  -4.025  0.00  0.00    -0.274 OA
ATOM     20  N   UNL     1       0.546   2.975  -5.539  0.00  0.00    -0.282 N 
ATOM     21  H   UNL     1       0.185   3.854  -5.737  0.00  0.00    +0.155 HD
BRANCH  20  22
ATOM     22  C   UNL     1       1.014   2.159  -6.578  0.00  0.00    +0.072 A 
ATOM     23  C   UNL     1       0.856   0.782  -6.505  0.00  0.00    +0.029 A 
ATOM     24  C   UNL     1       1.312  -0.021  -7.533  0.00  0.00    +0.043 A 
ATOM     25  C   UNL     1       1.937   0.544  -8.631  0.00  0.00    +0.161 A 
ATOM     26  C   UNL     1       2.102   1.919  -8.706  0.00  0.00    +0.195 A 
ATOM     27  C   UNL     1       1.641   2.728  -7.681  0.00  0.00    +0.182 A 
ATOM     28  F   UNL     1       1.802   4.067  -7.752  0.00  0.00    -0.200 F 
ATOM     29  F   UNL     1       2.713   2.468  -9.778  0.00  0.00    -0.199 F 
ATOM     30  F   UNL     1       2.388  -0.245  -9.631  0.00  0.00    -0.202 F 
ENDBRANCH  20  22
ENDBRANCH  17  18
ENDBRANCH   5  17
TORSDOF 4
