REMARK  Name = ZINC57930832
REMARK  5 active torsions:
REMARK  status: ('A' for Active; 'I' for Inactive)
REMARK    1  A    between atoms: C_1  and  C_2
REMARK    2  A    between atoms: C_2  and  N_3
REMARK    3  A    between atoms: C_6  and  C_22
REMARK    4  A    between atoms: C_7  and  C_21
REMARK    5  A    between atoms: C_11  and  C_15
REMARK                            x       y       z     vdW  Elec       q    Type
REMARK                         _______ _______ _______ _____ _____    ______ ____
ROOT
ATOM      1  N   UNL     1       0.688  -0.476  -1.203  0.00  0.00    -0.268 N 
ATOM      2  C   UNL     1      -0.046  -0.706  -2.373  0.00  0.00    +0.057 A 
ATOM      3  C   UNL     1      -1.429  -0.777  -2.339  0.00  0.00    +0.029 A 
ATOM      4  C   UNL     1      -2.136  -1.000  -3.507  0.00  0.00    -0.046 A 
ATOM      5  C   UNL     1      -1.470  -1.150  -4.709  0.00  0.00    -0.046 A 
ATOM      6  C   UNL     1      -0.089  -1.083  -4.753  0.00  0.00    +0.028 A 
ATOM      7  C   UNL     1       0.624  -0.862  -3.588  0.00  0.00    +0.050 A 
ATOM      8  N   UNL     1       2.025  -0.799  -3.597  0.00  0.00    -0.328 N 
ATOM      9  C   UNL     1       2.740  -1.222  -2.384  0.00  0.00    +0.188 C 
ATOM     10  C   UNL     1       2.018  -0.681  -1.176  0.00  0.00    +0.245 C 
ATOM     11  O   UNL     1       2.643  -0.430  -0.167  0.00  0.00    -0.273 OA
ATOM     12  C   UNL     1      -2.251  -1.390  -5.976  0.00  0.00    +0.044 C 
ATOM     13  C   UNL     1      -3.641  -1.079  -3.468  0.00  0.00    +0.044 C 
ATOM     14  H   UNL     1       2.506  -0.487  -4.379  0.00  0.00    +0.147 HD
ENDROOT
BRANCH   9  15
ATOM     15  C   UNL     1       2.782  -2.727  -2.322  0.00  0.00    -0.018 A 
ATOM     16  C   UNL     1       1.676  -3.466  -2.697  0.00  0.00    +0.006 A 
ATOM     17  C   UNL     1       1.714  -4.846  -2.640  0.00  0.00    +0.000 A 
ATOM     18  C   UNL     1       2.859  -5.489  -2.208  0.00  0.00    +0.000 A 
ATOM     19  C   UNL     1       3.966  -4.750  -1.833  0.00  0.00    +0.000 A 
ATOM     20  C   UNL     1       3.929  -3.370  -1.894  0.00  0.00    +0.006 A 
ENDBRANCH   9  15
BRANCH   1  22
ATOM     21  C   UNL     1      -0.019   1.526   0.010  0.00  0.00    +0.025 C 
ATOM     22  C   UNL     1       0.002  -0.004   0.002  0.00  0.00    +0.110 C 
ENDBRANCH   1  22
TORSDOF 2
