REMARK  Name = ZINC35781916
REMARK  5 active torsions:
REMARK  status: ('A' for Active; 'I' for Inactive)
REMARK    1  A    between atoms: C_1  and  C_2
REMARK    2  A    between atoms: C_2  and  N_3
REMARK    3  A    between atoms: C_5  and  N_8
REMARK    4  A    between atoms: C_12  and  C_20
REMARK    5  A    between atoms: C_13  and  C_19
REMARK                            x       y       z     vdW  Elec       q    Type
REMARK                         _______ _______ _______ _____ _____    ______ ____
ROOT
ATOM      1  N   UNL     1       1.094  -2.387   4.170  0.00  0.00    -0.253 N 
ATOM      2  C   UNL     1       2.171  -2.545   4.961  0.00  0.00    +0.268 A 
ATOM      3  O   UNL     1       3.213  -1.972   4.703  0.00  0.00    -0.267 OA
ATOM      4  C   UNL     1       2.072  -3.422   6.147  0.00  0.00    +0.074 A 
ATOM      5  C   UNL     1       3.087  -3.744   7.139  0.00  0.00    -0.026 A 
ATOM      6  C   UNL     1       2.720  -4.579   8.124  0.00  0.00    -0.008 A 
ATOM      7  S   UNL     1       1.021  -4.942   7.741  0.00  0.00    -0.075 S 
ATOM      8  C   UNL     1       0.835  -4.031   6.355  0.00  0.00    +0.092 A 
ATOM      9  N   UNL     1      -0.212  -3.814   5.496  0.00  0.00    -0.329 N 
ATOM     10  C   UNL     1      -0.071  -3.001   4.433  0.00  0.00    +0.166 A 
ATOM     11  S   UNL     1      -1.404  -2.749   3.388  0.00  0.00    -0.012 S 
ATOM     12  C   UNL     1       3.548  -5.086   9.277  0.00  0.00    +0.052 C 
ATOM     13  C   UNL     1       4.479  -3.171   7.063  0.00  0.00    +0.045 C 
ATOM     14  H   UNL     1      -1.064  -4.248   5.659  0.00  0.00    +0.168 HD
ENDROOT
BRANCH   1  17
ATOM     15  N   UNL     1       1.140   0.208   1.741  0.00  0.00    -0.270 N 
ATOM     16  C   UNL     1       0.931  -0.219   3.007  0.00  0.00    +0.134 A 
ATOM     17  C   UNL     1       1.190  -1.551   3.041  0.00  0.00    +0.089 A 
ATOM     18  C   UNL     1       1.569  -1.947   1.749  0.00  0.00    +0.160 A 
ATOM     19  N   UNL     1       1.534  -0.895   0.972  0.00  0.00    -0.178 NA
BRANCH  15  21
ATOM     20  C   UNL     1       2.272   2.042   0.586  0.00  0.00    +0.029 C 
ATOM     21  C   UNL     1       0.977   1.581   1.257  0.00  0.00    +0.140 C 
ENDBRANCH  15  21
ENDBRANCH   1  17
TORSDOF 2
