REMARK  Name = ZINC09488603
REMARK  9 active torsions:
REMARK  status: ('A' for Active; 'I' for Inactive)
REMARK    1  A    between atoms: C_1  and  O_2
REMARK    2  A    between atoms: O_2  and  C_3
REMARK    3  A    between atoms: C_8  and  O_9
REMARK    4  A    between atoms: O_9  and  C_10
REMARK    5  A    between atoms: N_13  and  C_14
REMARK    6  A    between atoms: C_14  and  C_16
REMARK    7  A    between atoms: C_19  and  N_22
REMARK    8  A    between atoms: N_29  and  C_30
REMARK    9  A    between atoms: C_30  and  C_31
REMARK                            x       y       z     vdW  Elec       q    Type
REMARK                         _______ _______ _______ _____ _____    ______ ____
ROOT
ATOM      1  C   UNL     1      -9.521   4.797   0.010  0.00  0.00    +0.164 A 
ATOM      2  C   UNL     1      -8.547   3.823  -0.019  0.00  0.00    +0.076 A 
ATOM      3  C   UNL     1      -7.186   4.166   0.009  0.00  0.00    +0.062 A 
ATOM      4  C   UNL     1      -6.878   5.532   0.068  0.00  0.00    +0.043 A 
ATOM      5  C   UNL     1      -7.845   6.509   0.097  0.00  0.00    +0.066 A 
ATOM      6  C   UNL     1      -9.184   6.148   0.068  0.00  0.00    +0.163 A 
ATOM      7  S   UNL     1      -5.103   5.549   0.087  0.00  0.00    -0.052 S 
ATOM      8  C   UNL     1      -4.832   3.838   0.021  0.00  0.00    +0.168 A 
ATOM      9  N   UNL     1      -3.673   3.187   0.007  0.00  0.00    -0.152 NA
ATOM     10  N   UNL     1      -6.089   3.322  -0.018  0.00  0.00    -0.309 N 
ENDROOT
BRANCH   1  12
ATOM     11  C   UNL     1     -11.117   3.036  -0.079  0.00  0.00    +0.277 C 
ATOM     12  O   UNL     1     -10.832   4.435  -0.019  0.00  0.00    -0.491 OA
ENDBRANCH   1  12
BRANCH   6  13
ATOM     13  O   UNL     1     -10.156   7.100   0.096  0.00  0.00    -0.491 OA
ATOM     14  C   UNL     1      -9.728   8.462   0.156  0.00  0.00    +0.277 C 
ENDBRANCH   6  13
BRANCH   9  15
ATOM     15  C   UNL     1      -2.523   3.868   0.046  0.00  0.00    +0.269 C 
ATOM     16  O   UNL     1      -2.538   5.086   0.096  0.00  0.00    -0.268 OA
BRANCH  15  17
ATOM     17  C   UNL     1      -1.233   3.143   0.030  0.00  0.00    +0.039 A 
ATOM     18  C   UNL     1      -1.215   1.749  -0.031  0.00  0.00    +0.015 A 
ATOM     19  C   UNL     1      -0.013   1.077  -0.040  0.00  0.00    +0.025 A 
ATOM     20  C   UNL     1       1.182   1.786   0.000  0.00  0.00    +0.044 A 
ATOM     21  C   UNL     1       1.168   3.176   0.057  0.00  0.00    +0.025 A 
ATOM     22  C   UNL     1      -0.032   3.853   0.071  0.00  0.00    +0.015 A 
BRANCH  20  23
ATOM     23  N   UNL     1       2.402   1.101  -0.015  0.00  0.00    -0.210 N 
ATOM     24  C   UNL     1       3.254   1.163  -1.046  0.00  0.00    +0.227 C 
ATOM     25  O   UNL     1       3.081   1.799  -2.063  0.00  0.00    -0.275 OA
ATOM     26  C   UNL     1       4.469   0.314  -0.738  0.00  0.00    +0.106 C 
ATOM     27  C   UNL     1       4.163  -0.262   0.660  0.00  0.00    +0.106 C 
ATOM     28  C   UNL     1       2.810   0.327   0.997  0.00  0.00    +0.227 C 
ATOM     29  O   UNL     1       2.193   0.127   2.022  0.00  0.00    -0.275 OA
ENDBRANCH  20  23
ENDBRANCH  15  17
ENDBRANCH   9  15
BRANCH  10  30
ATOM     30  C   UNL     1      -6.284   1.871  -0.085  0.00  0.00    +0.212 C 
BRANCH  30  31
ATOM     31  C   UNL     1      -6.367   1.324   1.279  0.00  0.00    -0.084 C 
ATOM     32  C   UNL     1      -6.434   0.887   2.366  0.00  0.00    +0.005 C 
ENDBRANCH  30  31
ENDBRANCH  10  30
TORSDOF 7
