REMARK  Name = ZINC12049261
REMARK  10 active torsions:
REMARK  status: ('A' for Active; 'I' for Inactive)
REMARK    1  A    between atoms: C_1  and  C_2
REMARK    2  A    between atoms: C_3  and  O_28
REMARK    3  A    between atoms: C_6  and  C_10
REMARK    4  A    between atoms: C_7  and  O_8
REMARK    5  A    between atoms: O_8  and  C_9
REMARK    6  A    between atoms: C_10  and  N_60
REMARK    7  A    between atoms: C_16  and  C_20
REMARK    8  A    between atoms: C_20  and  C_21
REMARK    9  A    between atoms: C_21  and  C_22
REMARK   10  A    between atoms: O_28  and  C_29
REMARK                            x       y       z     vdW  Elec       q    Type
REMARK                         _______ _______ _______ _____ _____    ______ ____
ROOT
ATOM      1  C   UNL     1       9.757  -0.787  -0.182  0.00  0.00    -0.071 C 
ATOM      2  C   UNL     1       9.255  -1.999  -0.961  0.00  0.00    +0.058 C 
ATOM      3  C   UNL     1       7.787  -2.189  -0.681  0.00  0.00    +0.132 A 
ATOM      4  N   UNL     1       7.165  -3.299  -0.407  0.00  0.00    -0.134 NA
ATOM      5  N   UNL     1       5.907  -3.063  -0.261  0.00  0.00    -0.134 NA
ATOM      6  C   UNL     1       5.675  -1.788  -0.430  0.00  0.00    +0.134 A 
ATOM      7  N   UNL     1       6.861  -1.199  -0.695  0.00  0.00    -0.317 N 
ATOM      8  C   UNL     1       7.122   0.221  -0.931  0.00  0.00    +0.106 C 
ATOM      9  C   UNL     1       8.366   0.363  -1.814  0.00  0.00    -0.056 C 
ATOM     10  N   UNL     1       9.568   0.461  -0.955  0.00  0.00    +0.384 N 
ATOM     11  H   UNL     1       9.442   1.240  -0.299  0.00  0.00    -0.081 HD
ENDROOT
BRANCH  10  12
ATOM     12  C   UNL     1      10.758   0.722  -1.784  0.00  0.00    -0.039 C 
BRANCH  12  18
ATOM     13  C   UNL     1      11.444   5.529  -0.540  0.00  0.00    +0.051 C 
ATOM     14  C   UNL     1      11.091   4.483  -1.565  0.00  0.00    +0.033 A 
ATOM     15  C   UNL     1      10.770   4.861  -2.860  0.00  0.00    +0.126 A 
ATOM     16  C   UNL     1      10.445   3.896  -3.803  0.00  0.00    +0.046 A 
ATOM     17  C   UNL     1      10.448   2.559  -3.454  0.00  0.00    +0.009 A 
ATOM     18  C   UNL     1      10.762   2.180  -2.163  0.00  0.00    -0.022 A 
ATOM     19  C   UNL     1      11.087   3.142  -1.216  0.00  0.00    +0.128 A 
BRANCH  19  20
ATOM     20  O   UNL     1      11.402   2.769   0.052  0.00  0.00    -0.495 OA
ATOM     21  C   UNL     1      12.778   2.501   0.328  0.00  0.00    +0.277 C 
ENDBRANCH  19  20
BRANCH  15  22
ATOM     22  O   UNL     1      10.772   6.175  -3.206  0.00  0.00    -0.495 OA
ATOM     23  C   UNL     1      10.431   6.492  -4.557  0.00  0.00    +0.277 C 
ENDBRANCH  15  22
ENDBRANCH  12  18
ENDBRANCH  10  12
BRANCH   6  24
ATOM     24  C   UNL     1       4.334  -1.104  -0.351  0.00  0.00    +0.081 C 
BRANCH  24  25
ATOM     25  C   UNL     1       4.078  -0.649   1.087  0.00  0.00    +0.043 C 
BRANCH  25  26
ATOM     26  C   UNL     1       2.737   0.035   1.166  0.00  0.00    -0.047 A 
ATOM     27  C   UNL     1       1.601  -0.703   1.442  0.00  0.00    +0.003 A 
ATOM     28  C   UNL     1       0.371  -0.075   1.514  0.00  0.00    +0.000 A 
ATOM     29  C   UNL     1       0.277   1.289   1.311  0.00  0.00    +0.000 A 
ATOM     30  C   UNL     1       1.414   2.026   1.036  0.00  0.00    +0.000 A 
ATOM     31  C   UNL     1       2.644   1.399   0.963  0.00  0.00    +0.003 A 
ENDBRANCH  25  26
ENDBRANCH  24  25
ENDBRANCH   6  24
TORSDOF 7
