REMARK  Name = ZINC09847526
REMARK  12 active torsions:
REMARK  status: ('A' for Active; 'I' for Inactive)
REMARK    1  A    between atoms: C_1  and  C_2
REMARK    2  A    between atoms: C_2  and  C_4
REMARK    3  A    between atoms: C_2  and  N_56
REMARK    4  A    between atoms: C_7  and  S_16
REMARK    5  A    between atoms: N_8  and  C_9
REMARK    6  A    between atoms: S_16  and  C_17
REMARK    7  A    between atoms: C_17  and  C_18
REMARK    8  A    between atoms: N_20  and  C_21
REMARK    9  A    between atoms: N_20  and  C_22
REMARK   10  A    between atoms: C_22  and  C_23
REMARK   11  A    between atoms: C_30  and  N_56
REMARK   12  A    between atoms: C_31  and  N_56
REMARK                            x       y       z     vdW  Elec       q    Type
REMARK                         _______ _______ _______ _____ _____    ______ ____
ROOT
ATOM      1  C   UNL     1      -5.565   1.443  -6.595  0.00  0.00    +0.125 A 
ATOM      2  N   UNL     1      -4.704   2.392  -6.358  0.00  0.00    -0.135 NA
ATOM      3  N   UNL     1      -3.997   2.101  -5.325  0.00  0.00    -0.122 NA
ATOM      4  C   UNL     1      -4.371   0.940  -4.840  0.00  0.00    +0.197 A 
ATOM      5  N   UNL     1      -5.381   0.479  -5.639  0.00  0.00    -0.275 N 
ENDROOT
BRANCH   5   6
ATOM      6  C   UNL     1      -6.085  -0.728  -5.505  0.00  0.00    +0.050 A 
ATOM      7  C   UNL     1      -5.985  -1.703  -6.488  0.00  0.00    +0.029 A 
ATOM      8  C   UNL     1      -6.674  -2.892  -6.352  0.00  0.00    +0.040 A 
ATOM      9  C   UNL     1      -7.473  -3.107  -5.242  0.00  0.00    +0.124 A 
ATOM     10  C   UNL     1      -7.579  -2.133  -4.264  0.00  0.00    +0.040 A 
ATOM     11  C   UNL     1      -6.887  -0.945  -4.393  0.00  0.00    +0.029 A 
ATOM     12  F   UNL     1      -8.151  -4.269  -5.114  0.00  0.00    -0.205 F 
ENDBRANCH   5   6
BRANCH   1  14
ATOM     13  C   UNL     1      -5.859   1.088  -9.031  0.00  0.00    -0.005 C 
ATOM     14  C   UNL     1      -6.572   1.409  -7.716  0.00  0.00    -0.003 C 
BRANCH  14  17
ATOM     15  C   UNL     1      -8.221   2.722  -8.907  0.00  0.00    -0.096 C 
ATOM     16  C   UNL     1      -7.846   3.102  -6.545  0.00  0.00    -0.096 C 
ATOM     17  N   UNL     1      -7.210   2.737  -7.828  0.00  0.00    +0.382 N 
ATOM     18  H   UNL     1      -6.492   3.435  -8.054  0.00  0.00    -0.082 HD
ENDBRANCH  14  17
ENDBRANCH   1  14
BRANCH   4  19
ATOM     19  S   UNL     1      -3.695   0.125  -3.432  0.00  0.00    -0.076 S 
BRANCH  19  20
ATOM     20  C   UNL     1      -2.437   1.331  -2.945  0.00  0.00    +0.173 C 
BRANCH  20  21
ATOM     21  C   UNL     1      -1.708   0.832  -1.724  0.00  0.00    +0.226 C 
ATOM     22  O   UNL     1      -2.010  -0.234  -1.231  0.00  0.00    -0.275 OA
ATOM     23  N   UNL     1      -0.721   1.571  -1.179  0.00  0.00    -0.300 N 
ATOM     24  C   UNL     1      -0.357   2.860  -1.774  0.00  0.00    +0.132 C 
BRANCH  23  25
ATOM     25  C   UNL     1      -0.013   1.086   0.008  0.00  0.00    +0.142 C 
BRANCH  25  26
ATOM     26  C   UNL     1      -0.718   1.572   1.248  0.00  0.00    -0.030 A 
ATOM     27  C   UNL     1      -0.360   2.779   1.818  0.00  0.00    +0.006 A 
ATOM     28  C   UNL     1      -1.010   3.228   2.952  0.00  0.00    +0.020 A 
ATOM     29  C   UNL     1      -2.012   2.464   3.523  0.00  0.00    +0.041 A 
ATOM     30  C   UNL     1      -2.367   1.253   2.955  0.00  0.00    +0.020 A 
ATOM     31  C   UNL     1      -1.719   0.808   1.817  0.00  0.00    +0.006 A 
ATOM     32 CL   UNL     1      -2.825   3.024   4.951  0.00  0.00    -0.084 Cl
ENDBRANCH  25  26
ENDBRANCH  23  25
ENDBRANCH  20  21
ENDBRANCH  19  20
ENDBRANCH   4  19
TORSDOF 8
