REMARK  Name = ZINC05040511
REMARK  6 active torsions:
REMARK  status: ('A' for Active; 'I' for Inactive)
REMARK    1  A    between atoms: C_4  and  N_23
REMARK    2  A    between atoms: C_5  and  C_7
REMARK    3  A    between atoms: C_7  and  O_9
REMARK    4  A    between atoms: O_9  and  C_10
REMARK    5  A    between atoms: C_10  and  C_11
REMARK    6  A    between atoms: N_13  and  C_14
REMARK                            x       y       z     vdW  Elec       q    Type
REMARK                         _______ _______ _______ _____ _____    ______ ____
ROOT
ATOM      1  C   UNL     1       4.861   3.965   0.091  0.00  0.00    +0.328 C 
ENDROOT
BRANCH   1   2
ATOM      2  C   UNL     1       4.692   5.457   0.209  0.00  0.00    +0.255 C 
ATOM      3  O   UNL     1       3.581   5.937   0.297  0.00  0.00    -0.272 OA
ATOM      4  N   UNL     1       5.775   6.259   0.217  0.00  0.00    -0.281 N 
ATOM      5  H   UNL     1       6.657   5.885   0.066  0.00  0.00    +0.155 HD
BRANCH   4   6
ATOM      6  C   UNL     1       5.627   7.633   0.444  0.00  0.00    +0.053 A 
ATOM      7  C   UNL     1       4.528   8.107   1.147  0.00  0.00    +0.046 A 
ATOM      8  C   UNL     1       4.384   9.464   1.370  0.00  0.00    +0.061 A 
ATOM      9  C   UNL     1       5.337  10.350   0.893  0.00  0.00    +0.061 A 
ATOM     10  C   UNL     1       6.433   9.880   0.192  0.00  0.00    +0.043 A 
ATOM     11  C   UNL     1       6.583   8.523  -0.029  0.00  0.00    +0.064 A 
ATOM     12 CL   UNL     1       7.963   7.934  -0.902  0.00  0.00    -0.082 Cl
ATOM     13 CL   UNL     1       5.154  12.053   1.175  0.00  0.00    -0.082 Cl
ATOM     14 CL   UNL     1       3.010  10.058   2.249  0.00  0.00    -0.082 Cl
ENDBRANCH   4   6
ENDBRANCH   1   2
BRANCH   1  15
ATOM     15  O   UNL     1       3.556   3.327   0.105  0.00  0.00    -0.451 OA
BRANCH  15  16
ATOM     16  C   UNL     1       3.530   1.984   0.007  0.00  0.00    +0.362 C 
ATOM     17  O   UNL     1       4.569   1.362  -0.088  0.00  0.00    -0.243 OA
BRANCH  16  22
ATOM     18  C   UNL     1      -0.053   1.307   0.024  0.00  0.00    +0.131 A 
ATOM     19  C   UNL     1      -0.081  -0.081   0.031  0.00  0.00    +0.132 A 
ATOM     20  N   UNL     1       1.044  -0.771   0.030  0.00  0.00    -0.237 NA
ATOM     21  C   UNL     1       2.212  -0.137   0.023  0.00  0.00    +0.149 A 
ATOM     22  C   UNL     1       2.240   1.268   0.015  0.00  0.00    +0.187 A 
ATOM     23  N   UNL     1       1.097   1.949   0.016  0.00  0.00    -0.244 NA
BRANCH  21  24
ATOM     24  N   UNL     1       3.392  -0.855   0.022  0.00  0.00    -0.341 N 
ATOM     25  H   UNL     1       3.372  -1.822   0.102  0.00  0.00    +0.144 HD
ATOM     26  H   UNL     1       4.241  -0.393  -0.058  0.00  0.00    +0.144 HD
ENDBRANCH  21  24
ENDBRANCH  16  22
ENDBRANCH  15  16
ENDBRANCH   1  15
TORSDOF 6
