REMARK  Name = ZINC04483483
REMARK  3 active torsions:
REMARK  status: ('A' for Active; 'I' for Inactive)
REMARK    1  A    between atoms: C_6  and  C_7
REMARK    2  A    between atoms: C_7  and  N_8
REMARK    3  A    between atoms: N_15  and  C_18
REMARK                            x       y       z     vdW  Elec       q    Type
REMARK                         _______ _______ _______ _____ _____    ______ ____
ROOT
ATOM      1  N   UNL     1      -1.437  -1.219  -1.280  0.00  0.00    -0.219 N 
ATOM      2  C   UNL     1      -1.283  -2.279  -2.293  0.00  0.00    +0.216 C 
ATOM      3  C   UNL     1      -2.224  -1.787  -3.427  0.00  0.00    +0.246 C 
ATOM      4  C   UNL     1      -3.312  -2.837  -3.455  0.00  0.00    +0.255 C 
ATOM      5  O   UNL     1      -4.261  -2.841  -4.210  0.00  0.00    -0.272 OA
ATOM      6  N   UNL     1      -3.065  -3.759  -2.518  0.00  0.00    -0.207 N 
ATOM      7  C   UNL     1      -1.935  -3.550  -1.797  0.00  0.00    +0.251 C 
ATOM      8  O   UNL     1      -1.510  -4.253  -0.905  0.00  0.00    -0.273 OA
ATOM      9  N   UNL     1      -2.754  -0.518  -2.913  0.00  0.00    -0.156 NA
ATOM     10  N   UNL     1      -2.333  -0.279  -1.787  0.00  0.00    -0.082 NA
ENDROOT
BRANCH   6  11
ATOM     11  C   UNL     1      -3.904  -4.862  -2.300  0.00  0.00    +0.044 A 
ATOM     12  C   UNL     1      -4.627  -4.962  -1.118  0.00  0.00    +0.027 A 
ATOM     13  C   UNL     1      -5.452  -6.048  -0.905  0.00  0.00    +0.040 A 
ATOM     14  C   UNL     1      -5.559  -7.037  -1.868  0.00  0.00    +0.124 A 
ATOM     15  C   UNL     1      -4.840  -6.939  -3.046  0.00  0.00    +0.040 A 
ATOM     16  C   UNL     1      -4.017  -5.852  -3.266  0.00  0.00    +0.027 A 
ATOM     17  F   UNL     1      -6.367  -8.100  -1.657  0.00  0.00    -0.205 F 
ENDBRANCH   6  11
BRANCH   1  18
ATOM     18  C   UNL     1      -0.773  -1.167   0.025  0.00  0.00    +0.163 C 
BRANCH  18  24
ATOM     19  C   UNL     1       0.579   0.939   0.076  0.00  0.00    +0.008 A 
ATOM     20  C   UNL     1       1.778   1.615  -0.044  0.00  0.00    +0.038 A 
ATOM     21  C   UNL     1       2.937   0.919  -0.346  0.00  0.00    +0.123 A 
ATOM     22  C   UNL     1       2.892  -0.452  -0.528  0.00  0.00    +0.038 A 
ATOM     23  C   UNL     1       1.692  -1.126  -0.407  0.00  0.00    +0.008 A 
ATOM     24  C   UNL     1       0.535  -0.431  -0.106  0.00  0.00    -0.028 A 
ATOM     25  F   UNL     1       4.110   1.579  -0.464  0.00  0.00    -0.205 F 
ENDBRANCH  18  24
ENDBRANCH   1  18
TORSDOF 3
