REMARK  Name = ZINC40538592
REMARK  6 active torsions:
REMARK  status: ('A' for Active; 'I' for Inactive)
REMARK    1  A    between atoms: C_1  and  C_2
REMARK    2  A    between atoms: C_4  and  C_22
REMARK    3  A    between atoms: C_6  and  C_8
REMARK    4  A    between atoms: C_11  and  C_13
REMARK    5  A    between atoms: C_18  and  C_20
REMARK    6  A    between atoms: C_18  and  O_21
REMARK                            x       y       z     vdW  Elec       q    Type
REMARK                         _______ _______ _______ _____ _____    ______ ____
ROOT
ATOM      1  C   UNL     1       0.052  -2.845   2.455  0.00  0.00    +0.136 A 
ATOM      2  C   UNL     1       0.046  -2.291   3.716  0.00  0.00    +0.050 A 
ATOM      3  C   UNL     1       0.066  -3.348   4.627  0.00  0.00    +0.050 A 
ATOM      4  C   UNL     1       0.085  -4.516   3.884  0.00  0.00    +0.132 A 
ATOM      5  O   UNL     1       0.070  -4.184   2.575  0.00  0.00    -0.455 OA
ENDROOT
BRANCH   1  11
ATOM      6  C   UNL     1      -0.018   1.503   0.010  0.00  0.00    +0.044 C 
ATOM      7  C   UNL     1       0.002  -0.004   0.002  0.00  0.00    -0.050 A 
ATOM      8  C   UNL     1       0.006  -0.688  -1.201  0.00  0.00    +0.006 A 
ATOM      9  C   UNL     1       0.024  -2.071  -1.218  0.00  0.00    -0.050 A 
ATOM     10  C   UNL     1       0.039  -2.779  -0.035  0.00  0.00    +0.015 A 
ATOM     11  C   UNL     1       0.036  -2.095   1.184  0.00  0.00    +0.018 A 
ATOM     12  C   UNL     1       0.023  -0.698   1.194  0.00  0.00    +0.015 A 
ATOM     13  C   UNL     1       0.027  -2.807  -2.534  0.00  0.00    +0.044 C 
ENDBRANCH   1  11
BRANCH   4  14
ATOM     14  C   UNL     1       0.109  -5.827   4.404  0.00  0.00    +0.001 C 
ATOM     15  C   UNL     1      -0.956  -6.284   5.114  0.00  0.00    +0.053 C 
ATOM     16  C   UNL     1      -0.981  -7.577   5.645  0.00  0.00    +0.159 C 
ATOM     17  O   UNL     1      -1.951  -7.950   6.275  0.00  0.00    -0.293 OA
ATOM     18  C   UNL     1       0.184  -8.511   5.445  0.00  0.00    +0.113 C 
ATOM     19  C   UNL     1       0.884  -8.165   4.127  0.00  0.00    +0.074 C 
ATOM     20  C   UNL     1       1.312  -6.698   4.159  0.00  0.00    +0.073 C 
ATOM     21  C   UNL     1       2.115  -9.056   3.951  0.00  0.00    +0.042 C 
BRANCH  19  22
ATOM     22  O   UNL     1      -0.018  -8.372   3.038  0.00  0.00    -0.388 OA
ATOM     23  H   UNL     1      -0.339  -9.281   2.960  0.00  0.00    +0.210 HD
ENDBRANCH  19  22
ENDBRANCH   4  14
TORSDOF 3
