REMARK  Name = ZINC02949611
REMARK  4 active torsions:
REMARK  status: ('A' for Active; 'I' for Inactive)
REMARK    1  A    between atoms: C_1  and  O_2
REMARK    2  A    between atoms: O_2  and  C_3
REMARK    3  A    between atoms: C_6  and  N_9
REMARK    4  A    between atoms: C_10  and  C_16
REMARK                            x       y       z     vdW  Elec       q    Type
REMARK                         _______ _______ _______ _____ _____    ______ ____
ROOT
ATOM      1  N   UNL     1      -1.202  -0.721   0.010  0.00  0.00    -0.254 N 
ATOM      2  C   UNL     1      -1.195  -2.191  -0.114  0.00  0.00    +0.171 C 
ATOM      3  S   UNL     1      -2.913  -2.605   0.417  0.00  0.00    -0.124 S 
ATOM      4  C   UNL     1      -3.627  -0.927   0.132  0.00  0.00    +0.167 C 
ATOM      5  C   UNL     1      -2.361  -0.086   0.124  0.00  0.00    +0.231 C 
ATOM      6  O   UNL     1      -2.408   1.122   0.219  0.00  0.00    -0.274 OA
ENDROOT
BRANCH   2   7
ATOM      7  C   UNL     1      -0.179  -2.808   0.812  0.00  0.00    +0.001 A 
ATOM      8  C   UNL     1       0.059  -2.242   2.051  0.00  0.00    +0.057 A 
ATOM      9  C   UNL     1       0.991  -2.807   2.905  0.00  0.00    +0.167 A 
ATOM     10  C   UNL     1       1.688  -3.948   2.513  0.00  0.00    +0.167 A 
ATOM     11  C   UNL     1       1.445  -4.511   1.271  0.00  0.00    +0.065 A 
ATOM     12  C   UNL     1       0.508  -3.944   0.425  0.00  0.00    +0.027 A 
ATOM     13 BR   UNL     1       0.173  -4.719  -1.267  0.00  0.00    -0.050 Br
ATOM     14  O   UNL     1       2.539  -4.306   3.518  0.00  0.00    -0.453 OA
ATOM     15  C   UNL     1       2.652  -3.143   4.359  0.00  0.00    +0.466 C 
ATOM     16  O   UNL     1       1.405  -2.452   4.156  0.00  0.00    -0.453 OA
ENDBRANCH   2   7
BRANCH   1  20
ATOM     17  C   UNL     1       2.381   1.413  -0.014  0.00  0.00    +0.120 A 
ATOM     18  C   UNL     1       1.572   1.428   1.113  0.00  0.00    +0.047 A 
ATOM     19  C   UNL     1       0.386   0.722   1.122  0.00  0.00    +0.027 A 
ATOM     20  C   UNL     1       0.002  -0.004   0.002  0.00  0.00    +0.038 A 
ATOM     21  C   UNL     1       0.812  -0.019  -1.126  0.00  0.00    +0.027 A 
ATOM     22  C   UNL     1       1.998   0.688  -1.133  0.00  0.00    +0.047 A 
BRANCH  17  24
ATOM     23  C   UNL     1       3.880   2.833   1.165  0.00  0.00    +0.277 C 
ATOM     24  O   UNL     1       3.549   2.109  -0.021  0.00  0.00    -0.495 OA
ENDBRANCH  17  24
ENDBRANCH   1  20
TORSDOF 3
