REMARK  Name = ZINC05237394
REMARK  6 active torsions:
REMARK  status: ('A' for Active; 'I' for Inactive)
REMARK    1  A    between atoms: C_4  and  C_7
REMARK    2  A    between atoms: C_7  and  S_8
REMARK    3  A    between atoms: S_8  and  C_9
REMARK    4  A    between atoms: C_10  and  C_29
REMARK    5  A    between atoms: C_11  and  N_15
REMARK    6  A    between atoms: C_16  and  C_18
REMARK                            x       y       z     vdW  Elec       q    Type
REMARK                         _______ _______ _______ _____ _____    ______ ____
ROOT
ATOM      1  C   UNL     1       7.604   7.647  -0.029  0.00  0.00    +0.138 A 
ATOM      2  C   UNL     1       6.208   7.394  -0.023  0.00  0.00    +0.125 A 
ATOM      3  C   UNL     1       6.046   6.011  -0.024  0.00  0.00    +0.139 A 
ATOM      4  N   UNL     1       7.278   5.464  -0.040  0.00  0.00    -0.262 N 
ATOM      5  H   UNL     1       7.393   4.370  -0.048  0.00  0.00    +0.190 HD
ATOM      6  N   UNL     1       8.225   6.494  -0.043  0.00  0.00    -0.165 NA
ENDROOT
BRANCH   3   7
ATOM      7  N   UNL     1       4.842   5.326  -0.016  0.00  0.00    -0.265 N 
ATOM      8  C   UNL     1       4.834   3.978  -0.024  0.00  0.00    +0.256 C 
ATOM      9  O   UNL     1       5.884   3.364  -0.037  0.00  0.00    -0.270 OA
ATOM     10  H   UNL     1       3.893   5.881  -0.004  0.00  0.00    +0.157 HD
BRANCH   8  11
ATOM     11  C   UNL     1       3.555   3.249  -0.015  0.00  0.00    +0.122 A 
ATOM     12  C   UNL     1       2.353   3.936   0.000  0.00  0.00    +0.031 A 
ATOM     13  C   UNL     1       1.145   3.193   0.008  0.00  0.00    +0.018 A 
ATOM     14  C   UNL     1      -0.091   3.857   0.024  0.00  0.00    +0.011 A 
ATOM     15  C   UNL     1      -1.250   3.137   0.031  0.00  0.00    +0.001 A 
ATOM     16  C   UNL     1      -1.216   1.749   0.017  0.00  0.00    +0.004 A 
ATOM     17  C   UNL     1      -0.013   1.076   0.008  0.00  0.00    +0.047 A 
ATOM     18  C   UNL     1       1.182   1.788   0.000  0.00  0.00    +0.139 A 
ATOM     19  O   UNL     1       2.359   1.126  -0.015  0.00  0.00    -0.422 OA
ATOM     20  C   UNL     1       3.531   1.782  -0.023  0.00  0.00    +0.350 A 
ATOM     21  O   UNL     1       4.576   1.158  -0.036  0.00  0.00    -0.244 OA
ENDBRANCH   8  11
ENDBRANCH   3   7
BRANCH   2  22
ATOM     22  C   UNL     1       5.164   8.374  -0.014  0.00  0.00    +0.105 C 
ATOM     23  N   UNL     1       4.336   9.152  -0.007  0.00  0.00    -0.191 NA
ENDBRANCH   2  22
BRANCH   1  24
ATOM     24  S   UNL     1       8.369   9.234  -0.028  0.00  0.00    -0.098 S 
BRANCH  24  25
ATOM     25  C   UNL     1      10.145   8.865  -0.048  0.00  0.00    +0.111 C 
BRANCH  25  29
ATOM     26  C   UNL     1      12.358  12.519  -0.049  0.00  0.00    +0.000 A 
ATOM     27  C   UNL     1      12.012  11.921   1.148  0.00  0.00    +0.000 A 
ATOM     28  C   UNL     1      11.296  10.739   1.149  0.00  0.00    +0.004 A 
ATOM     29  C   UNL     1      10.926  10.154  -0.048  0.00  0.00    -0.037 A 
ATOM     30  C   UNL     1      11.277  10.749  -1.246  0.00  0.00    +0.004 A 
ATOM     31  C   UNL     1      11.989  11.935  -1.246  0.00  0.00    +0.000 A 
ENDBRANCH  25  29
ENDBRANCH  24  25
ENDBRANCH   1  24
TORSDOF 6
