REMARK  Name = ZINC05215001
REMARK  9 active torsions:
REMARK  status: ('A' for Active; 'I' for Inactive)
REMARK    1  A    between atoms: C_1  and  C_2
REMARK    2  A    between atoms: C_2  and  C_3
REMARK    3  A    between atoms: C_2  and  C_4
REMARK    4  A    between atoms: C_4  and  C_5
REMARK    5  A    between atoms: C_8  and  N_10
REMARK    6  A    between atoms: N_12  and  C_25
REMARK    7  A    between atoms: C_16  and  C_17
REMARK    8  A    between atoms: C_20  and  O_23
REMARK    9  A    between atoms: C_25  and  C_26
REMARK                            x       y       z     vdW  Elec       q    Type
REMARK                         _______ _______ _______ _____ _____    ______ ____
ROOT
ATOM      1  N   UNL     1      -2.482   7.438   1.014  0.00  0.00    -0.198 NA
ATOM      2  C   UNL     1      -1.985   6.248   0.746  0.00  0.00    +0.171 C 
ATOM      3  N   UNL     1      -0.670   5.894   0.548  0.00  0.00    -0.242 N 
ATOM      4  C   UNL     1      -0.340   4.639   0.291  0.00  0.00    +0.259 C 
ATOM      5  O   UNL     1       0.819   4.308   0.119  0.00  0.00    -0.269 OA
ATOM      6  C   UNL     1      -1.441   3.660   0.215  0.00  0.00    +0.078 C 
ATOM      7  C   UNL     1      -1.392   2.327  -0.035  0.00  0.00    +0.028 C 
ATOM      8  S   UNL     1      -2.855   4.701   0.549  0.00  0.00    -0.049 S 
ENDROOT
BRANCH   7   9
ATOM      9  C   UNL     1      -0.135   1.707  -0.473  0.00  0.00    -0.024 A 
ATOM     10  C   UNL     1       0.671   2.349  -1.421  0.00  0.00    +0.011 A 
ATOM     11  C   UNL     1       1.846   1.761  -1.833  0.00  0.00    +0.046 A 
ATOM     12  C   UNL     1       2.232   0.532  -1.309  0.00  0.00    +0.117 A 
ATOM     13  C   UNL     1       1.435  -0.110  -0.368  0.00  0.00    +0.046 A 
ATOM     14  C   UNL     1       0.258   0.469   0.051  0.00  0.00    +0.011 A 
BRANCH  12  15
ATOM     15  O   UNL     1       3.391  -0.044  -1.719  0.00  0.00    -0.507 OA
ATOM     16  H   UNL     1       3.292  -0.623  -2.487  0.00  0.00    +0.292 HD
ENDBRANCH  12  15
ENDBRANCH   7   9
BRANCH   1  20
ATOM     17  C   UNL     1      -0.188  10.702   0.580  0.00  0.00    +0.104 A 
ATOM     18  N   UNL     1      -0.255  10.118   1.760  0.00  0.00    -0.144 NA
ATOM     19  N   UNL     1      -0.962   9.093   1.964  0.00  0.00    -0.121 NA
ATOM     20  C   UNL     1      -1.676   8.531   0.989  0.00  0.00    +0.217 A 
ATOM     21  S   UNL     1      -1.275   9.636  -0.362  0.00  0.00    -0.031 S 
BRANCH  17  22
ATOM     22  C   UNL     1       0.584  11.922   0.148  0.00  0.00    +0.068 C 
BRANCH  22  24
ATOM     23  C   UNL     1       1.819  10.646  -1.610  0.00  0.00    +0.007 C 
ATOM     24  C   UNL     1       1.968  11.499  -0.349  0.00  0.00    -0.011 C 
ATOM     25  C   UNL     1       2.797  12.745  -0.671  0.00  0.00    +0.007 C 
ENDBRANCH  22  24
ENDBRANCH  17  22
ENDBRANCH   1  20
BRANCH   3  26
ATOM     26  C   UNL     1       0.376   6.916   0.631  0.00  0.00    +0.142 C 
BRANCH  26  27
ATOM     27  C   UNL     1       0.771   7.115   2.072  0.00  0.00    -0.015 C 
ATOM     28  C   UNL     1       2.026   6.994   2.429  0.00  0.00    +0.005 C 
ENDBRANCH  26  27
ENDBRANCH   3  26
TORSDOF 7
