REMARK  Name = ZINC60017258
REMARK  10 active torsions:
REMARK  status: ('A' for Active; 'I' for Inactive)
REMARK    1  A    between atoms: C_1  and  C_2
REMARK    2  A    between atoms: C_2  and  C_3
REMARK    3  A    between atoms: C_3  and  C_11
REMARK    4  A    between atoms: C_14  and  N_17
REMARK    5  A    between atoms: C_18  and  C_20
REMARK    6  A    between atoms: C_21  and  C_22
REMARK    7  A    between atoms: C_25  and  S_28
REMARK    8  A    between atoms: S_28  and  N_31
REMARK    9  A    between atoms: N_31  and  C_32
REMARK   10  A    between atoms: C_32  and  C_33
REMARK                            x       y       z     vdW  Elec       q    Type
REMARK                         _______ _______ _______ _____ _____    ______ ____
ROOT
ATOM      1  N   UNL     1      -4.399   1.396   4.312  0.00  0.00    -0.282 N 
ATOM      2  C   UNL     1      -4.613   2.722   4.427  0.00  0.00    +0.241 C 
ATOM      3  O   UNL     1      -4.246   3.476   3.546  0.00  0.00    -0.270 OA
ATOM      4  H   UNL     1      -4.757   0.787   4.977  0.00  0.00    +0.155 HD
ENDROOT
BRANCH   1   8
ATOM      5  C   UNL     1      -2.205  -0.087   1.097  0.00  0.00    -0.032 A 
ATOM      6  C   UNL     1      -3.242  -0.833   1.627  0.00  0.00    +0.006 A 
ATOM      7  C   UNL     1      -3.971  -0.344   2.693  0.00  0.00    +0.023 A 
ATOM      8  C   UNL     1      -3.663   0.898   3.233  0.00  0.00    +0.034 A 
ATOM      9  C   UNL     1      -2.621   1.645   2.698  0.00  0.00    +0.023 A 
ATOM     10  C   UNL     1      -1.892   1.147   1.635  0.00  0.00    +0.006 A 
BRANCH   5  11
ATOM     11  C   UNL     1      -1.412  -0.624  -0.067  0.00  0.00    +0.072 C 
ATOM     12  C   UNL     1      -1.871  -2.050  -0.387  0.00  0.00    +0.030 C 
ATOM     13  C   UNL     1      -1.130  -2.531  -1.640  0.00  0.00    +0.097 C 
ATOM     14  C   UNL     1      -1.368  -1.554  -2.760  0.00  0.00    +0.219 C 
ATOM     15  O   UNL     1      -1.355  -1.949  -3.906  0.00  0.00    -0.275 OA
ATOM     16  N   UNL     1      -1.595  -0.255  -2.515  0.00  0.00    -0.256 N 
ATOM     17  C   UNL     1      -1.634   0.250  -1.273  0.00  0.00    +0.230 C 
ATOM     18  O   UNL     1      -1.853   1.432  -1.118  0.00  0.00    -0.274 OA
ATOM     19  H   UNL     1      -1.735   0.344  -3.266  0.00  0.00    +0.157 HD
BRANCH  11  21
ATOM     20  C   UNL     1       0.295  -1.486   1.542  0.00  0.00    +0.005 C 
ATOM     21  C   UNL     1       0.076  -0.633   0.290  0.00  0.00    +0.017 C 
ENDBRANCH  11  21
ENDBRANCH   5  11
ENDBRANCH   1   8
BRANCH   2  22
ATOM     22  C   UNL     1      -5.287   3.254   5.613  0.00  0.00    +0.068 C 
ATOM     23  C   UNL     1      -5.500   4.580   5.728  0.00  0.00    +0.013 C 
BRANCH  23  24
ATOM     24  C   UNL     1      -6.178   5.115   6.920  0.00  0.00    -0.025 A 
ATOM     25  C   UNL     1      -6.596   4.252   7.938  0.00  0.00    +0.010 A 
ATOM     26  C   UNL     1      -7.230   4.761   9.052  0.00  0.00    +0.029 A 
ATOM     27  C   UNL     1      -7.453   6.122   9.164  0.00  0.00    +0.105 A 
ATOM     28  C   UNL     1      -7.042   6.983   8.161  0.00  0.00    +0.029 A 
ATOM     29  C   UNL     1      -6.401   6.490   7.044  0.00  0.00    +0.010 A 
BRANCH  27  30
ATOM     30  S   UNL     1      -8.264   6.763  10.591  0.00  0.00    +0.058 S 
ATOM     31  O   UNL     1      -8.840   8.004  10.207  0.00  0.00    -0.153 OA
ATOM     32  O   UNL     1      -9.036   5.699  11.131  0.00  0.00    -0.153 OA
BRANCH  30  33
ATOM     33  N   UNL     1      -7.091   7.111  11.707  0.00  0.00    -0.190 NA
ATOM     34  H   UNL     1      -7.056   6.620  12.543  0.00  0.00    +0.148 HD
BRANCH  33  35
ATOM     35  C   UNL     1      -6.106   8.159  11.431  0.00  0.00    +0.102 C 
ATOM     36  C   UNL     1      -5.389   8.539  12.729  0.00  0.00    +0.022 C 
ENDBRANCH  33  35
ENDBRANCH  30  33
ENDBRANCH  27  30
ENDBRANCH  23  24
ENDBRANCH   2  22
TORSDOF 8
