REMARK  Name = ZINC02469545
REMARK  3 active torsions:
REMARK  status: ('A' for Active; 'I' for Inactive)
REMARK    1  A    between atoms: C_1  and  O_2
REMARK    2  A    between atoms: O_2  and  C_3
REMARK    3  A    between atoms: C_6  and  C_10
REMARK                            x       y       z     vdW  Elec       q    Type
REMARK                         _______ _______ _______ _____ _____    ______ ____
ROOT
ATOM      1  C   UNL     1      -2.517   0.986   0.054  0.00  0.00    +0.060 C 
ATOM      2  C   UNL     1      -3.530   1.756   0.906  0.00  0.00    +0.109 C 
ATOM      3  C   UNL     1      -3.582   3.192   0.454  0.00  0.00    +0.218 C 
ATOM      4  O   UNL     1      -4.635   3.793   0.482  0.00  0.00    -0.275 OA
ATOM      5  N   UNL     1      -2.469   3.813   0.018  0.00  0.00    -0.285 N 
ATOM      6  C   UNL     1      -1.240   3.139   0.022  0.00  0.00    +0.041 A 
ATOM      7  C   UNL     1      -1.218   1.750   0.017  0.00  0.00    -0.015 A 
ATOM      8  C   UNL     1      -0.013   1.076   0.008  0.00  0.00    +0.055 A 
ATOM      9  C   UNL     1       1.177   1.785   0.000  0.00  0.00    +0.167 A 
ATOM     10  C   UNL     1       1.157   3.179   0.007  0.00  0.00    +0.168 A 
ATOM     11  C   UNL     1      -0.051   3.854   0.017  0.00  0.00    +0.073 A 
ATOM     12  O   UNL     1       2.451   3.624   0.000  0.00  0.00    -0.453 OA
ATOM     13  C   UNL     1       3.200   2.513  -0.548  0.00  0.00    +0.466 C 
ATOM     14  O   UNL     1       2.483   1.375  -0.013  0.00  0.00    -0.453 OA
ATOM     15  H   UNL     1      -2.518   4.728  -0.298  0.00  0.00    +0.155 HD
ENDROOT
BRANCH   1  19
ATOM     16  C   UNL     1      -1.866  -2.881   1.753  0.00  0.00    +0.138 A 
ATOM     17  C   UNL     1      -1.584  -1.742   2.491  0.00  0.00    +0.047 A 
ATOM     18  C   UNL     1      -1.790  -0.493   1.938  0.00  0.00    +0.008 A 
ATOM     19  C   UNL     1      -2.288  -0.378   0.652  0.00  0.00    -0.038 A 
ATOM     20  C   UNL     1      -2.570  -1.512  -0.086  0.00  0.00    +0.028 A 
ATOM     21  C   UNL     1      -2.360  -2.764   0.461  0.00  0.00    +0.083 A 
ATOM     22 CL   UNL     1      -2.713  -4.188  -0.467  0.00  0.00    -0.080 Cl
BRANCH  16  24
ATOM     23  C   UNL     1      -1.148  -4.156   3.628  0.00  0.00    +0.277 C 
ATOM     24  O   UNL     1      -1.658  -4.111   2.294  0.00  0.00    -0.494 OA
ENDBRANCH  16  24
ENDBRANCH   1  19
TORSDOF 2
