REMARK  Name = ZINC07449710
REMARK  7 active torsions:
REMARK  status: ('A' for Active; 'I' for Inactive)
REMARK    1  A    between atoms: C_1  and  C_2
REMARK    2  A    between atoms: C_2  and  C_4
REMARK    3  A    between atoms: C_2  and  S_15
REMARK    4  A    between atoms: N_6  and  C_7
REMARK    5  A    between atoms: S_15  and  C_16
REMARK    6  A    between atoms: C_19  and  C_22
REMARK    7  A    between atoms: N_20  and  N_21
REMARK                            x       y       z     vdW  Elec       q    Type
REMARK                         _______ _______ _______ _____ _____    ______ ____
ROOT
ATOM      1  C   UNL     1      -0.008   1.520   0.019  0.00  0.00    +0.029 C 
ATOM      2  C   UNL     1       0.004  -0.010   0.003  0.00  0.00    +0.137 C 
ENDROOT
BRANCH   2   3
ATOM      3  C   UNL     1      -1.412  -0.524   0.013  0.00  0.00    +0.230 C 
ATOM      4  O   UNL     1      -1.931  -0.892  -1.020  0.00  0.00    -0.274 OA
ATOM      5  N   UNL     1      -2.103  -0.575   1.169  0.00  0.00    -0.285 N 
ATOM      6  H   UNL     1      -1.668  -0.345   2.004  0.00  0.00    +0.155 HD
BRANCH   5   7
ATOM      7  C   UNL     1      -3.449  -0.960   1.163  0.00  0.00    +0.035 A 
ATOM      8  C   UNL     1      -4.343  -0.374   2.050  0.00  0.00    +0.026 A 
ATOM      9  C   UNL     1      -5.671  -0.755   2.043  0.00  0.00    +0.041 A 
ATOM     10  C   UNL     1      -6.111  -1.720   1.154  0.00  0.00    +0.142 A 
ATOM     11  C   UNL     1      -5.221  -2.306   0.268  0.00  0.00    +0.078 A 
ATOM     12  C   UNL     1      -3.893  -1.924   0.268  0.00  0.00    +0.046 A 
ATOM     13 CL   UNL     1      -5.776  -3.517  -0.846  0.00  0.00    -0.081 Cl
ATOM     14  F   UNL     1      -7.410  -2.092   1.149  0.00  0.00    -0.204 F 
ENDBRANCH   5   7
ENDBRANCH   2   3
BRANCH   2  15
ATOM     15  S   UNL     1       0.849  -0.593  -1.492  0.00  0.00    -0.072 S 
BRANCH  15  16
ATOM     16  C   UNL     1       2.510  -0.043  -1.286  0.00  0.00    +0.209 A 
ATOM     17  N   UNL     1       2.987   0.628  -0.261  0.00  0.00    -0.120 NA
ATOM     18  N   UNL     1       4.237   0.869  -0.433  0.00  0.00    -0.123 NA
ATOM     19  C   UNL     1       4.638   0.365  -1.579  0.00  0.00    +0.217 A 
ATOM     20  N   UNL     1       3.544  -0.240  -2.158  0.00  0.00    -0.221 N 
BRANCH  19  21
ATOM     21  C   UNL     1       5.998   0.430  -2.136  0.00  0.00    +0.173 A 
ATOM     22  C   UNL     1       7.129   0.756  -1.449  0.00  0.00    +0.053 A 
ATOM     23  C   UNL     1       8.194   0.691  -2.368  0.00  0.00    +0.042 A 
ATOM     24  C   UNL     1       7.670   0.333  -3.557  0.00  0.00    +0.196 A 
ATOM     25  O   UNL     1       6.344   0.171  -3.413  0.00  0.00    -0.460 OA
ENDBRANCH  19  21
BRANCH  20  26
ATOM     26  N   UNL     1       3.500  -0.896  -3.355  0.00  0.00    -0.294 N 
ATOM     27  H   UNL     1       3.276  -0.262  -4.107  0.00  0.00    +0.163 HD
ATOM     28  H   UNL     1       4.368  -1.378  -3.535  0.00  0.00    +0.163 HD
ENDBRANCH  20  26
ENDBRANCH  15  16
ENDBRANCH   2  15
TORSDOF 6
