REMARK  Name = ZINC22678437
REMARK  5 active torsions:
REMARK  status: ('A' for Active; 'I' for Inactive)
REMARK    1  A    between atoms: C_3  and  C_6
REMARK    2  A    between atoms: C_6  and  C_8
REMARK    3  A    between atoms: C_6  and  N_24
REMARK    4  A    between atoms: C_8  and  N_9
REMARK    5  A    between atoms: C_10  and  C_12
REMARK                            x       y       z     vdW  Elec       q    Type
REMARK                         _______ _______ _______ _____ _____    ______ ____
ROOT
ATOM      1  N   UNL     1      -2.623   3.732  -1.309  0.00  0.00    -0.312 N 
ATOM      2  C   UNL     1      -3.015   4.387  -2.420  0.00  0.00    +0.244 C 
ATOM      3  O   UNL     1      -2.424   4.213  -3.469  0.00  0.00    -0.270 OA
ATOM      4  H   UNL     1      -3.157   3.889  -0.361  0.00  0.00    +0.149 HD
ENDROOT
BRANCH   2   5
ATOM      5  C   UNL     1      -4.161   5.313  -2.365  0.00  0.00    +0.039 A 
ATOM      6  C   UNL     1      -4.840   5.513  -1.159  0.00  0.00    +0.014 A 
ATOM      7  C   UNL     1      -5.912   6.377  -1.104  0.00  0.00    +0.017 A 
ATOM      8  C   UNL     1      -6.315   7.052  -2.249  0.00  0.00    +0.029 A 
ATOM      9  C   UNL     1      -5.640   6.859  -3.456  0.00  0.00    +0.048 A 
ATOM     10  C   UNL     1      -4.564   5.997  -3.517  0.00  0.00    +0.037 A 
ATOM     11  N   UNL     1      -6.062   7.555  -4.601  0.00  0.00    -0.285 N 
ATOM     12  C   UNL     1      -6.242   8.880  -4.557  0.00  0.00    +0.218 C 
ATOM     13  O   UNL     1      -6.788   9.437  -5.486  0.00  0.00    -0.275 OA
ATOM     14  C   UNL     1      -5.781   9.691  -3.382  0.00  0.00    +0.107 C 
ATOM     15  C   UNL     1      -6.901   9.802  -2.333  0.00  0.00    +0.083 C 
ATOM     16  S   UNL     1      -7.686   8.161  -2.199  0.00  0.00    -0.123 S 
ATOM     17  H   UNL     1      -6.247   7.010  -5.538  0.00  0.00    +0.155 HD
ENDBRANCH   2   5
BRANCH   1  18
ATOM     18  C   UNL     1      -1.484   2.812  -1.365  0.00  0.00    +0.097 C 
BRANCH  18  19
ATOM     19  C   UNL     1      -1.250   2.205   0.020  0.00  0.00    +0.016 C 
BRANCH  19  20
ATOM     20  N   UNL     1      -1.085   3.283   1.005  0.00  0.00    +0.387 N 
ATOM     21  C   UNL     1       0.013   4.181   0.623  0.00  0.00    -0.078 C 
ATOM     22  C   UNL     1       0.063   5.368   1.587  0.00  0.00    -0.019 C 
ATOM     23  C   UNL     1       0.273   4.851   3.014  0.00  0.00    -0.004 C 
ATOM     24  C   UNL     1      -0.857   3.882   3.369  0.00  0.00    -0.019 C 
ATOM     25  C   UNL     1      -0.880   2.738   2.353  0.00  0.00    -0.078 C 
ATOM     26  H   UNL     1      -2.012   3.875   1.020  0.00  0.00    -0.081 HD
ENDBRANCH  19  20
BRANCH  19  29
ATOM     27  C   UNL     1       1.389  -0.366  -0.020  0.00  0.00    +0.041 A 
ATOM     28  C   UNL     1       0.028   0.011   0.034  0.00  0.00    +0.043 A 
ATOM     29  C   UNL     1      -0.007   1.355  -0.007  0.00  0.00    +0.093 A 
ATOM     30  O   UNL     1       1.254   1.810  -0.083  0.00  0.00    -0.469 OA
ATOM     31  C   UNL     1       2.105   0.770  -0.091  0.00  0.00    +0.195 A 
ENDBRANCH  19  29
ENDBRANCH  18  19
ENDBRANCH   1  18
TORSDOF 5
