REMARK  Name = ZINC34906460
REMARK  2 active torsions:
REMARK  status: ('A' for Active; 'I' for Inactive)
REMARK    1  A    between atoms: N_9  and  C_10
REMARK    2  A    between atoms: C_19  and  C_22
REMARK                            x       y       z     vdW  Elec       q    Type
REMARK                         _______ _______ _______ _____ _____    ______ ____
ROOT
ATOM      1  C   UNL     1       0.008   1.379   0.269  0.00  0.00    +0.002 A 
ATOM      2  C   UNL     1       1.200   2.088   0.292  0.00  0.00    +0.002 A 
ATOM      3  C   UNL     1       2.408   1.429   0.193  0.00  0.00    +0.028 A 
ATOM      4  C   UNL     1       2.432   0.048   0.071  0.00  0.00    +0.068 A 
ATOM      5  C   UNL     1       1.229  -0.676   0.048  0.00  0.00    +0.065 A 
ATOM      6  C   UNL     1       0.014   0.007   0.149  0.00  0.00    +0.028 A 
ATOM      7  N   UNL     1       1.554  -1.989  -0.078  0.00  0.00    -0.327 N 
ATOM      8  C   UNL     1       2.856  -2.117  -0.133  0.00  0.00    +0.177 A 
ATOM      9  N   UNL     1       3.447  -0.889  -0.045  0.00  0.00    -0.310 N 
ATOM     10  N   UNL     1       3.530  -3.313  -0.261  0.00  0.00    -0.302 N 
ATOM     11  C   UNL     1       4.022  -4.025   0.926  0.00  0.00    +0.108 C 
ATOM     12  C   UNL     1       3.494  -5.463   0.893  0.00  0.00    +0.034 C 
ATOM     13  C   UNL     1       3.882  -6.114  -0.437  0.00  0.00    +0.105 C 
ATOM     14  C   UNL     1       3.245  -5.338  -1.592  0.00  0.00    +0.034 C 
ATOM     15  C   UNL     1       3.765  -3.902  -1.586  0.00  0.00    +0.108 C 
ATOM     16  H   UNL     1       0.918  -2.721  -0.121  0.00  0.00    +0.169 HD
ENDROOT
BRANCH   9  17
ATOM     17  C   UNL     1       4.885  -0.613  -0.070  0.00  0.00    +0.090 C 
ATOM     18  C   UNL     1       5.294   0.080   1.232  0.00  0.00    +0.025 C 
ATOM     19  C   UNL     1       6.796   0.368   1.206  0.00  0.00    +0.002 C 
ATOM     20  C   UNL     1       7.121   1.278   0.020  0.00  0.00    +0.000 C 
ATOM     21  C   UNL     1       6.712   0.586  -1.281  0.00  0.00    +0.002 C 
ATOM     22  C   UNL     1       5.210   0.298  -1.256  0.00  0.00    +0.025 C 
ENDBRANCH   9  17
BRANCH  13  23
ATOM     23  C   UNL     1       3.394  -7.539  -0.460  0.00  0.00    +0.359 C 
ATOM     24  O   UNL     1       3.090  -8.063  -1.518  0.00  0.00    -0.246 OA
ATOM     25  O   UNL     1       3.302  -8.169   0.580  0.00  0.00    -0.246 OA
ENDBRANCH  13  23
TORSDOF 2
