REMARK  Name = ZINC39950932
REMARK  5 active torsions:
REMARK  status: ('A' for Active; 'I' for Inactive)
REMARK    1  A    between atoms: C_1  and  C_2
REMARK    2  A    between atoms: C_2  and  C_3
REMARK    3  A    between atoms: C_8  and  C_22
REMARK    4  A    between atoms: C_18  and  C_20
REMARK    5  A    between atoms: C_18  and  C_21
REMARK                            x       y       z     vdW  Elec       q    Type
REMARK                         _______ _______ _______ _____ _____    ______ ____
ROOT
ATOM      1  C   UNL     1      -1.527  -0.543  -0.227  0.00  0.00    +0.043 C 
ATOM      2  C   UNL     1      -2.289  -0.048   0.964  0.00  0.00    +0.031 C 
ATOM      3  C   UNL     1      -3.402  -0.922   1.419  0.00  0.00    +0.087 C 
ATOM      4  N   UNL     1      -4.137  -1.603   0.378  0.00  0.00    -0.283 NA
ATOM      5  C   UNL     1      -4.406  -0.920  -0.855  0.00  0.00    +0.101 C 
ATOM      6  C   UNL     1      -3.354  -1.018  -1.947  0.00  0.00    +0.052 C 
ATOM      7  C   UNL     1      -2.167  -0.179  -1.530  0.00  0.00    +0.149 C 
ATOM      8  O   UNL     1      -1.763   0.729  -2.215  0.00  0.00    -0.296 OA
ATOM      9  C   UNL     1      -2.821  -2.457  -2.045  0.00  0.00    +0.101 C 
ATOM     10  N   UNL     1      -2.395  -2.847  -0.694  0.00  0.00    -0.282 NA
ATOM     11  C   UNL     1      -1.294  -2.051  -0.163  0.00  0.00    +0.100 C 
ATOM     12  C   UNL     1      -3.558  -2.946   0.186  0.00  0.00    +0.080 C 
ATOM     13  C   UNL     1      -3.135  -3.511   1.545  0.00  0.00    +0.066 C 
ATOM     14  C   UNL     1      -2.619  -4.940   1.355  0.00  0.00    +0.163 C 
ATOM     15  O   UNL     1      -3.641  -5.736   0.750  0.00  0.00    -0.374 OA
ATOM     16  C   UNL     1      -4.043  -5.283  -0.545  0.00  0.00    +0.067 C 
ATOM     17  C   UNL     1      -4.611  -3.866  -0.436  0.00  0.00    +0.073 C 
ATOM     18  C   UNL     1      -5.115  -6.221  -1.104  0.00  0.00    +0.041 C 
ATOM     19  C   UNL     1      -2.833  -5.277  -1.481  0.00  0.00    +0.041 C 
ATOM     20  C   UNL     1      -3.919  -0.541  -3.287  0.00  0.00    +0.022 C 
ENDROOT
BRANCH   1  22
ATOM     21  C   UNL     1       0.608  -0.325   1.053  0.00  0.00    +0.005 C 
ATOM     22  C   UNL     1      -0.152   0.127  -0.196  0.00  0.00    +0.012 C 
ENDBRANCH   1  22
TORSDOF 1
