REMARK  Name = ZINC19672222
REMARK  4 active torsions:
REMARK  status: ('A' for Active; 'I' for Inactive)
REMARK    1  A    between atoms: C_4  and  N_9
REMARK    2  A    between atoms: C_5  and  C_7
REMARK    3  A    between atoms: N_9  and  S_10
REMARK    4  A    between atoms: S_10  and  C_13
REMARK                            x       y       z     vdW  Elec       q    Type
REMARK                         _______ _______ _______ _____ _____    ______ ____
ROOT
ATOM      1  S   UNL     1       4.041   6.029   0.625  0.00  0.00    +0.092 S 
ATOM      2  O   UNL     1       5.177   5.181   0.531  0.00  0.00    -0.148 OA
ATOM      3  O   UNL     1       3.959   7.271  -0.060  0.00  0.00    -0.148 OA
ENDROOT
BRANCH   1   4
ATOM      4  C   UNL     1       2.654   5.074   0.105  0.00  0.00    +0.111 A 
ATOM      5  C   UNL     1       1.524   5.703  -0.384  0.00  0.00    +0.029 A 
ATOM      6  C   UNL     1       0.440   4.950  -0.788  0.00  0.00    +0.006 A 
ATOM      7  C   UNL     1       0.478   3.567  -0.706  0.00  0.00    -0.048 A 
ATOM      8  C   UNL     1       1.606   2.939  -0.222  0.00  0.00    -0.059 A 
ATOM      9  C   UNL     1       2.694   3.697   0.185  0.00  0.00    +0.031 A 
ATOM     10  C   UNL     1       1.698   1.439  -0.120  0.00  0.00    -0.046 C 
ATOM     11  N   UNL     1       0.363   0.836  -0.188  0.00  0.00    +0.382 N 
ATOM     12  C   UNL     1      -0.356   1.322  -1.376  0.00  0.00    -0.077 C 
ATOM     13  C   UNL     1      -0.733   2.787  -1.150  0.00  0.00    +0.016 C 
ATOM     14  H   UNL     1       0.458  -0.258  -0.247  0.00  0.00    -0.085 HD
ATOM     15  H   UNL     1      -0.207   1.106   0.713  0.00  0.00    -0.085 HD
ENDBRANCH   1   4
BRANCH   1  16
ATOM     16  N   UNL     1       3.830   6.362   2.234  0.00  0.00    -0.097 NA
BRANCH  16  20
ATOM     17  C   UNL     1       3.565   3.244   4.987  0.00  0.00    +0.001 A 
ATOM     18  C   UNL     1       4.411   3.141   3.894  0.00  0.00    +0.002 A 
ATOM     19  C   UNL     1       4.497   4.170   2.978  0.00  0.00    +0.028 A 
ATOM     20  C   UNL     1       3.742   5.322   3.153  0.00  0.00    +0.092 A 
ATOM     21  C   UNL     1       2.884   5.430   4.259  0.00  0.00    +0.076 A 
ATOM     22  C   UNL     1       2.804   4.377   5.175  0.00  0.00    +0.021 A 
BRANCH  21  23
ATOM     23  C   UNL     1       2.095   6.610   4.447  0.00  0.00    +0.101 C 
ATOM     24  N   UNL     1       1.469   7.546   4.596  0.00  0.00    -0.191 NA
ENDBRANCH  21  23
ENDBRANCH  16  20
ENDBRANCH   1  16
TORSDOF 4
