REMARK  Name = ZINC65063631
REMARK  8 active torsions:
REMARK  status: ('A' for Active; 'I' for Inactive)
REMARK    1  A    between atoms: C_1  and  C_2
REMARK    2  A    between atoms: C_3  and  C_24
REMARK    3  A    between atoms: C_8  and  C_9
REMARK    4  A    between atoms: N_11  and  C_12
REMARK    5  A    between atoms: C_12  and  C_13
REMARK    6  A    between atoms: C_13  and  C_14
REMARK    7  A    between atoms: C_13  and  C_15
REMARK    8  A    between atoms: C_13  and  C_16
REMARK                            x       y       z     vdW  Elec       q    Type
REMARK                         _______ _______ _______ _____ _____    ______ ____
ROOT
ATOM      1  C   UNL     1       0.027  -0.051   2.509  0.00  0.00    +0.250 C 
ATOM      2  O   UNL     1      -1.024   0.215   3.059  0.00  0.00    -0.270 OA
ATOM      3  N   UNL     1       1.196   0.275   3.096  0.00  0.00    -0.310 N 
ATOM      4  H   UNL     1       2.034   0.062   2.658  0.00  0.00    +0.149 HD
ENDROOT
BRANCH   1  12
ATOM      5  C   UNL     1      -0.018   1.503   0.010  0.00  0.00    +0.046 C 
ATOM      6  C   UNL     1       0.002  -0.004   0.002  0.00  0.00    -0.010 A 
ATOM      7  C   UNL     1       0.006  -0.712  -1.188  0.00  0.00    +0.064 A 
ATOM      8  N   UNL     1       0.024  -2.030  -1.175  0.00  0.00    -0.151 NA
ATOM      9  N   UNL     1       0.038  -2.711  -0.087  0.00  0.00    -0.106 NA
ATOM     10  C   UNL     1       0.036  -2.135   1.106  0.00  0.00    +0.301 A 
ATOM     11  O   UNL     1       0.051  -2.892   2.229  0.00  0.00    -0.263 OA
ATOM     12  C   UNL     1       0.023  -0.733   1.198  0.00  0.00    +0.109 A 
ATOM     13  C   UNL     1      -0.010   0.026  -2.502  0.00  0.00    +0.068 C 
ENDBRANCH   1  12
BRANCH   3  14
ATOM     14  C   UNL     1       1.199   0.950   4.396  0.00  0.00    +0.115 C 
BRANCH  14  15
ATOM     15  C   UNL     1       2.643   1.204   4.835  0.00  0.00    +0.006 C 
ATOM     16  C   UNL     1       3.383  -0.130   4.951  0.00  0.00    +0.017 C 
ATOM     17  C   UNL     1       3.342   2.087   3.800  0.00  0.00    +0.017 C 
BRANCH  15  18
ATOM     18  C   UNL     1       2.647   1.899   6.172  0.00  0.00    -0.039 A 
ATOM     19  C   UNL     1       1.451   2.196   6.800  0.00  0.00    +0.006 A 
ATOM     20  C   UNL     1       1.453   2.834   8.026  0.00  0.00    +0.022 A 
ATOM     21  C   UNL     1       2.652   3.174   8.627  0.00  0.00    +0.059 A 
ATOM     22  C   UNL     1       3.849   2.876   7.998  0.00  0.00    +0.060 A 
ATOM     23  C   UNL     1       3.845   2.233   6.773  0.00  0.00    +0.025 A 
ATOM     24 CL   UNL     1       5.354   3.303   8.751  0.00  0.00    -0.082 Cl
ATOM     25 CL   UNL     1       2.655   3.975  10.166  0.00  0.00    -0.082 Cl
ENDBRANCH  15  18
ENDBRANCH  14  15
ENDBRANCH   3  14
TORSDOF 4
