REMARK  Name = ZINC21145724
REMARK  8 active torsions:
REMARK  status: ('A' for Active; 'I' for Inactive)
REMARK    1  A    between atoms: C_1  and  C_2
REMARK    2  A    between atoms: C_3  and  C_7
REMARK    3  A    between atoms: C_10  and  S_13
REMARK    4  A    between atoms: N_11  and  N_12
REMARK    5  A    between atoms: S_13  and  C_14
REMARK    6  A    between atoms: C_14  and  C_16
REMARK    7  A    between atoms: C_14  and  C_17
REMARK    8  A    between atoms: N_19  and  C_20
REMARK                            x       y       z     vdW  Elec       q    Type
REMARK                         _______ _______ _______ _____ _____    ______ ____
ROOT
ATOM      1  C   UNL     1      -2.511  -0.411   0.034  0.00  0.00    +0.185 A 
ATOM      2  N   UNL     1      -2.961   0.822   0.044  0.00  0.00    -0.127 NA
ATOM      3  N   UNL     1      -4.246   0.820   0.046  0.00  0.00    -0.121 NA
ATOM      4  C   UNL     1      -4.696  -0.414   0.039  0.00  0.00    +0.209 A 
ATOM      5  N   UNL     1      -3.608  -1.241   0.025  0.00  0.00    -0.224 N 
ENDROOT
BRANCH   1   8
ATOM      6  C   UNL     1      -0.015   1.486   0.054  0.00  0.00    +0.087 C 
ATOM      7  C   UNL     1       0.002  -0.021   0.037  0.00  0.00    +0.112 A 
ATOM      8  C   UNL     1      -1.092  -0.829   0.029  0.00  0.00    +0.061 A 
ATOM      9  C   UNL     1      -0.573  -2.203   0.012  0.00  0.00    +0.053 A 
ATOM     10  C   UNL     1       0.766  -2.092   0.013  0.00  0.00    +0.196 A 
ATOM     11  O   UNL     1       1.098  -0.793   0.023  0.00  0.00    -0.467 OA
ENDBRANCH   1   8
BRANCH   5  12
ATOM     12  N   UNL     1      -3.610  -2.607   0.009  0.00  0.00    -0.295 N 
ATOM     13  H   UNL     1      -3.609  -2.980   0.946  0.00  0.00    +0.163 HD
ATOM     14  H   UNL     1      -4.392  -2.961  -0.521  0.00  0.00    +0.163 HD
ENDBRANCH   5  12
BRANCH   4  15
ATOM     15  S   UNL     1      -6.387  -0.910   0.041  0.00  0.00    -0.072 S 
BRANCH  15  16
ATOM     16  C   UNL     1      -7.304   0.655   0.053  0.00  0.00    +0.137 C 
ATOM     17  C   UNL     1      -7.039   1.412  -1.250  0.00  0.00    +0.029 C 
BRANCH  16  18
ATOM     18  C   UNL     1      -8.778   0.373   0.179  0.00  0.00    +0.230 C 
ATOM     19  O   UNL     1      -9.212  -0.724  -0.106  0.00  0.00    -0.274 OA
ATOM     20  N   UNL     1      -9.615   1.338   0.609  0.00  0.00    -0.285 N 
ATOM     21  H   UNL     1      -9.261   2.192   0.901  0.00  0.00    +0.155 HD
BRANCH  20  22
ATOM     22  C   UNL     1     -10.995   1.107   0.634  0.00  0.00    +0.035 A 
ATOM     23  C   UNL     1     -11.879   2.140   0.348  0.00  0.00    +0.023 A 
ATOM     24  C   UNL     1     -13.240   1.910   0.373  0.00  0.00    +0.003 A 
ATOM     25  C   UNL     1     -13.725   0.652   0.683  0.00  0.00    +0.020 A 
ATOM     26  C   UNL     1     -12.848  -0.379   0.969  0.00  0.00    +0.043 A 
ATOM     27  C   UNL     1     -11.484  -0.156   0.940  0.00  0.00    +0.043 A 
ATOM     28 CL   UNL     1     -13.461  -1.956   1.359  0.00  0.00    -0.083 Cl
ENDBRANCH  20  22
ENDBRANCH  16  18
ENDBRANCH  15  16
ENDBRANCH   4  15
TORSDOF 6
