REMARK  Name = ZINC40549519
REMARK  5 active torsions:
REMARK  status: ('A' for Active; 'I' for Inactive)
REMARK    1  A    between atoms: C_1  and  C_2
REMARK    2  A    between atoms: C_2  and  C_3
REMARK    3  A    between atoms: C_2  and  C_4
REMARK    4  A    between atoms: C_2  and  N_5
REMARK    5  A    between atoms: C_7  and  C_10
REMARK                            x       y       z     vdW  Elec       q    Type
REMARK                         _______ _______ _______ _____ _____    ______ ____
ROOT
ATOM      1  C   UNL     1       3.548  -1.168  -3.312  0.00  0.00    +0.024 C 
ATOM      2  C   UNL     1       3.635  -1.212  -4.687  0.00  0.00    +0.046 C 
ATOM      3  C   UNL     1       2.749  -0.386  -5.533  0.00  0.00    -0.001 A 
ATOM      4  C   UNL     1       1.797   0.465  -4.982  0.00  0.00    +0.009 A 
ATOM      5  C   UNL     1       0.993   1.217  -5.815  0.00  0.00    +0.001 A 
ATOM      6  C   UNL     1       1.128   1.129  -7.192  0.00  0.00    +0.001 A 
ATOM      7  C   UNL     1       2.066   0.291  -7.756  0.00  0.00    +0.013 A 
ATOM      8  C   UNL     1       2.889  -0.477  -6.933  0.00  0.00    +0.045 A 
ATOM      9  C   UNL     1       3.902  -1.382  -7.494  0.00  0.00    +0.251 C 
ATOM     10  O   UNL     1       4.027  -1.465  -8.700  0.00  0.00    -0.270 OA
ATOM     11  N   UNL     1       4.692  -2.119  -6.696  0.00  0.00    -0.248 N 
ATOM     12  C   UNL     1       4.617  -2.078  -5.356  0.00  0.00    +0.251 C 
ATOM     13  O   UNL     1       5.366  -2.767  -4.689  0.00  0.00    -0.270 OA
ATOM     14  H   UNL     1       5.348  -2.704  -7.106  0.00  0.00    +0.158 HD
ENDROOT
BRANCH   1  17
ATOM     15  N   UNL     1       0.841   0.156  -1.305  0.00  0.00    -0.266 N 
ATOM     16  C   UNL     1       2.154   0.054  -1.567  0.00  0.00    +0.116 A 
ATOM     17  C   UNL     1       2.292  -0.773  -2.671  0.00  0.00    +0.013 A 
ATOM     18  C   UNL     1       0.988  -1.165  -3.061  0.00  0.00    +0.142 A 
ATOM     19  N   UNL     1       0.139  -0.612  -2.240  0.00  0.00    -0.179 NA
BRANCH  15  21
ATOM     20  C   UNL     1       0.289   2.423  -0.573  0.00  0.00    +0.036 C 
ATOM     21  C   UNL     1       0.244   0.936  -0.218  0.00  0.00    +0.055 C 
ATOM     22  C   UNL     1       1.030   0.696   1.073  0.00  0.00    +0.036 C 
ATOM     23  C   UNL     1      -1.209   0.503  -0.018  0.00  0.00    +0.036 C 
ENDBRANCH  15  21
ENDBRANCH   1  17
TORSDOF 2
