REMARK  Name = ZINC00282929
REMARK  5 active torsions:
REMARK  status: ('A' for Active; 'I' for Inactive)
REMARK    1  A    between atoms: C_6  and  C_7
REMARK    2  A    between atoms: C_16  and  C_24
REMARK    3  A    between atoms: C_17  and  N_23
REMARK    4  A    between atoms: C_18  and  C_19
REMARK    5  A    between atoms: C_18  and  C_21
REMARK                            x       y       z     vdW  Elec       q    Type
REMARK                         _______ _______ _______ _____ _____    ______ ____
ROOT
ATOM      1  C   UNL     1       2.222   3.700  -0.996  0.00  0.00    +0.066 C 
ATOM      2  C   UNL     1       0.918   3.245  -0.339  0.00  0.00    +0.030 C 
ATOM      3  C   UNL     1      -0.286   3.955  -0.910  0.00  0.00    +0.009 C 
ATOM      4  C   UNL     1      -1.033   3.089  -1.923  0.00  0.00    +0.005 C 
ATOM      5  C   UNL     1      -1.463   1.792  -1.230  0.00  0.00    +0.027 C 
ATOM      6  C   UNL     1      -0.217   1.075  -0.778  0.00  0.00    -0.022 C 
ATOM      7  C   UNL     1       0.854   1.748  -0.405  0.00  0.00    -0.029 C 
ATOM      8  C   UNL     1       2.086   1.007  -0.027  0.00  0.00    +0.074 C 
ATOM      9  C   UNL     1       3.263   1.677   0.055  0.00  0.00    +0.054 C 
ATOM     10  C   UNL     1       3.400   3.149  -0.191  0.00  0.00    +0.188 C 
ENDROOT
BRANCH   1  16
ATOM     11  C   UNL     1       2.699   5.867  -2.154  0.00  0.00    +0.005 A 
ATOM     12  C   UNL     1       2.749   7.248  -2.172  0.00  0.00    +0.020 A 
ATOM     13  C   UNL     1       2.395   7.968  -1.045  0.00  0.00    +0.041 A 
ATOM     14  C   UNL     1       1.984   7.305   0.098  0.00  0.00    +0.020 A 
ATOM     15  C   UNL     1       1.929   5.924   0.113  0.00  0.00    +0.005 A 
ATOM     16  C   UNL     1       2.283   5.205  -1.013  0.00  0.00    -0.041 A 
ATOM     17 CL   UNL     1       2.465   9.703  -1.065  0.00  0.00    -0.084 Cl
ENDBRANCH   1  16
BRANCH   9  18
ATOM     18  N   UNL     1       4.386   0.970   0.381  0.00  0.00    -0.358 N 
ATOM     19  H   UNL     1       5.357   1.482   0.456  0.00  0.00    +0.142 HD
ATOM     20  H   UNL     1       4.320  -0.112   0.568  0.00  0.00    +0.142 HD
ENDBRANCH   9  18
BRANCH  10  21
ATOM     21  C   UNL     1       3.466   3.848   1.102  0.00  0.00    +0.091 C 
ATOM     22  N   UNL     1       3.518   4.387   2.101  0.00  0.00    -0.194 NA
ENDBRANCH  10  21
BRANCH  10  23
ATOM     23  C   UNL     1       4.646   3.397  -0.934  0.00  0.00    +0.091 C 
ATOM     24  N   UNL     1       5.608   3.589  -1.507  0.00  0.00    -0.194 NA
ENDBRANCH  10  23
BRANCH   8  25
ATOM     25  C   UNL     1       2.030  -0.397   0.248  0.00  0.00    +0.101 C 
ATOM     26  N   UNL     1       1.987  -1.511   0.466  0.00  0.00    -0.191 NA
ENDBRANCH   8  25
TORSDOF 5
