REMARK  Name = ZINC35554875
REMARK  7 active torsions:
REMARK  status: ('A' for Active; 'I' for Inactive)
REMARK    1  A    between atoms: C_1  and  C_2
REMARK    2  A    between atoms: C_2  and  O_3
REMARK    3  A    between atoms: O_3  and  C_4
REMARK    4  A    between atoms: C_4  and  C_6
REMARK    5  A    between atoms: C_12  and  C_14
REMARK    6  A    between atoms: N_27  and  C_30
REMARK    7  A    between atoms: C_30  and  C_31
REMARK                            x       y       z     vdW  Elec       q    Type
REMARK                         _______ _______ _______ _____ _____    ______ ____
ROOT
ATOM      1  C   UNL     1       4.459  -6.193   3.974  0.00  0.00    +0.098 C 
ATOM      2  C   UNL     1       3.549  -6.509   5.160  0.00  0.00    +0.051 C 
ATOM      3  C   UNL     1       4.229  -6.091   6.438  0.00  0.00    -0.026 A 
ATOM      4  C   UNL     1       3.457  -5.777   7.543  0.00  0.00    +0.005 A 
ATOM      5  C   UNL     1       4.061  -5.386   8.723  0.00  0.00    +0.000 A 
ATOM      6  C   UNL     1       5.439  -5.308   8.805  0.00  0.00    +0.002 A 
ATOM      7  C   UNL     1       6.214  -5.622   7.707  0.00  0.00    +0.023 A 
ATOM      8  C   UNL     1       5.609  -6.018   6.518  0.00  0.00    +0.033 A 
ATOM      9  N   UNL     1       6.424  -6.343   5.422  0.00  0.00    -0.329 N 
ATOM     10  C   UNL     1       5.829  -6.843   4.193  0.00  0.00    +0.069 C 
ATOM     11  C   UNL     1       6.690  -6.605   2.963  0.00  0.00    -0.055 C 
ATOM     12  N   UNL     1       8.112  -6.793   3.246  0.00  0.00    +0.385 N 
ATOM     13  C   UNL     1       8.528  -5.816   4.263  0.00  0.00    -0.059 C 
ATOM     14  C   UNL     1       7.872  -6.188   5.590  0.00  0.00    +0.087 C 
ATOM     15  H   UNL     1       8.267  -7.728   3.593  0.00  0.00    -0.081 HD
ENDROOT
BRANCH   1  22
ATOM     16  C   UNL     1       2.394  -2.596   1.119  0.00  0.00    +0.101 C 
ATOM     17  C   UNL     1       3.675  -2.035   1.742  0.00  0.00    +0.033 C 
ATOM     18  C   UNL     1       3.776  -2.499   3.198  0.00  0.00    +0.108 C 
ATOM     19  N   UNL     1       3.679  -3.964   3.235  0.00  0.00    -0.301 N 
ATOM     20  C   UNL     1       2.532  -4.613   2.586  0.00  0.00    +0.108 C 
ATOM     21  C   UNL     1       2.445  -4.125   1.137  0.00  0.00    +0.033 C 
ATOM     22  C   UNL     1       4.625  -4.700   3.853  0.00  0.00    +0.221 C 
ATOM     23  O   UNL     1       5.609  -4.160   4.311  0.00  0.00    -0.275 OA
BRANCH  16  24
ATOM     24  C   UNL     1       2.275  -2.114  -0.303  0.00  0.00    +0.310 C 
ATOM     25  O   UNL     1       2.233  -2.911  -1.210  0.00  0.00    -0.251 OA
BRANCH  24  26
ATOM     26  O   UNL     1       2.213  -0.798  -0.563  0.00  0.00    -0.465 OA
BRANCH  26  28
ATOM     27  C   UNL     1       2.044   1.114  -2.032  0.00  0.00    +0.048 C 
ATOM     28  C   UNL     1       2.100  -0.412  -1.934  0.00  0.00    +0.229 C 
ENDBRANCH  26  28
ENDBRANCH  24  26
ENDBRANCH  16  24
ENDBRANCH   1  22
BRANCH  12  29
ATOM     29  C   UNL     1       8.890  -6.587   2.018  0.00  0.00    -0.043 C 
BRANCH  29  30
ATOM     30  C   UNL     1      10.340  -6.901   2.283  0.00  0.00    -0.064 A 
ATOM     31  C   UNL     1      11.194  -5.906   2.721  0.00  0.00    +0.004 A 
ATOM     32  C   UNL     1      12.523  -6.193   2.965  0.00  0.00    +0.038 A 
ATOM     33  C   UNL     1      13.001  -7.478   2.770  0.00  0.00    +0.123 A 
ATOM     34  C   UNL     1      12.145  -8.474   2.330  0.00  0.00    +0.038 A 
ATOM     35  C   UNL     1      10.815  -8.186   2.092  0.00  0.00    +0.004 A 
ATOM     36  F   UNL     1      14.300  -7.760   3.008  0.00  0.00    -0.205 F 
ENDBRANCH  29  30
ENDBRANCH  12  29
TORSDOF 6
