REMARK  Name = ZINC65219206
REMARK  8 active torsions:
REMARK  status: ('A' for Active; 'I' for Inactive)
REMARK    1  A    between atoms: C_1  and  O_2
REMARK    2  A    between atoms: O_2  and  C_3
REMARK    3  A    between atoms: C_6  and  C_11
REMARK    4  A    between atoms: C_8  and  O_9
REMARK    5  A    between atoms: O_9  and  C_10
REMARK    6  A    between atoms: N_13  and  C_14
REMARK    7  A    between atoms: C_18  and  C_19
REMARK    8  A    between atoms: C_21  and  C_24
REMARK                            x       y       z     vdW  Elec       q    Type
REMARK                         _______ _______ _______ _____ _____    ______ ____
ROOT
ATOM      1  C   UNL     1      -7.336  -2.536  -0.052  0.00  0.00    +0.053 A 
ATOM      2  C   UNL     1      -7.452  -3.913  -0.052  0.00  0.00    +0.031 A 
ATOM      3  C   UNL     1      -8.682  -4.468  -0.148  0.00  0.00    +0.048 A 
ATOM      4  S   UNL     1      -9.726  -3.156  -0.243  0.00  0.00    -0.090 S 
ATOM      5  C   UNL     1      -8.534  -1.834  -0.149  0.00  0.00    +0.098 A 
ENDROOT
BRANCH   5   6
ATOM      6  C   UNL     1      -8.758  -0.388  -0.171  0.00  0.00    +0.267 A 
ATOM      7  N   UNL     1      -9.928   0.214  -0.260  0.00  0.00    -0.187 NA
ATOM      8  C   UNL     1      -9.758   1.544  -0.251  0.00  0.00    +0.202 A 
ATOM      9  N   UNL     1      -8.477   1.809  -0.156  0.00  0.00    -0.056 NA
ATOM     10  O   UNL     1      -7.804   0.561  -0.097  0.00  0.00    -0.332 OA
BRANCH   8  11
ATOM     11  C   UNL     1     -10.844   2.552  -0.336  0.00  0.00    +0.023 A 
ATOM     12  C   UNL     1     -12.173   2.143  -0.429  0.00  0.00    +0.013 A 
ATOM     13  C   UNL     1     -13.178   3.084  -0.507  0.00  0.00    +0.021 A 
ATOM     14  C   UNL     1     -12.870   4.433  -0.494  0.00  0.00    +0.041 A 
ATOM     15  C   UNL     1     -11.551   4.845  -0.402  0.00  0.00    +0.021 A 
ATOM     16  C   UNL     1     -10.539   3.911  -0.317  0.00  0.00    +0.013 A 
ATOM     17 CL   UNL     1     -14.139   5.613  -0.594  0.00  0.00    -0.084 Cl
ENDBRANCH   8  11
ENDBRANCH   5   6
BRANCH   1  20
ATOM     18  C   UNL     1      -4.960  -2.608  -0.016  0.00  0.00    +0.248 C 
ATOM     19  O   UNL     1      -5.006  -3.822  -0.060  0.00  0.00    -0.270 OA
ATOM     20  N   UNL     1      -6.100  -1.891   0.045  0.00  0.00    -0.280 N 
ATOM     21  H   UNL     1      -6.062  -0.928   0.156  0.00  0.00    +0.155 HD
BRANCH  18  25
ATOM     22  C   UNL     1      -1.205  -0.617  -0.053  0.00  0.00    +0.162 A 
ATOM     23  C   UNL     1      -2.381   0.119   0.009  0.00  0.00    +0.050 A 
ATOM     24  C   UNL     1      -3.600  -0.523   0.021  0.00  0.00    +0.017 A 
ATOM     25  C   UNL     1      -3.655  -1.918  -0.029  0.00  0.00    +0.041 A 
ATOM     26  C   UNL     1      -2.472  -2.660  -0.092  0.00  0.00    +0.062 A 
ATOM     27  C   UNL     1      -1.253  -2.009  -0.109  0.00  0.00    +0.162 A 
BRANCH  22  29
ATOM     28  C   UNL     1      -0.030   1.448  -0.004  0.00  0.00    +0.277 C 
ATOM     29  O   UNL     1      -0.006   0.020  -0.065  0.00  0.00    -0.491 OA
ENDBRANCH  22  29
BRANCH  27  30
ATOM     30  O   UNL     1      -0.100  -2.728  -0.175  0.00  0.00    -0.491 OA
ATOM     31  C   UNL     1      -0.224  -4.150  -0.231  0.00  0.00    +0.277 C 
ENDBRANCH  27  30
ENDBRANCH  18  25
ENDBRANCH   1  20
TORSDOF 6
