REMARK  Name = ZINC17120338
REMARK  7 active torsions:
REMARK  status: ('A' for Active; 'I' for Inactive)
REMARK    1  A    between atoms: C_1  and  C_2
REMARK    2  A    between atoms: C_5  and  N_9
REMARK    3  A    between atoms: C_7  and  C_8
REMARK    4  A    between atoms: C_14  and  N_18
REMARK    5  A    between atoms: N_18  and  C_19
REMARK    6  A    between atoms: N_18  and  C_20
REMARK    7  A    between atoms: C_20  and  C_21
REMARK                            x       y       z     vdW  Elec       q    Type
REMARK                         _______ _______ _______ _____ _____    ______ ____
ROOT
ATOM      1  N   UNL     1       1.503  -1.989  -0.022  0.00  0.00    -0.214 N 
ATOM      2  C   UNL     1       1.156  -0.668  -0.013  0.00  0.00    +0.168 A 
ATOM      3  C   UNL     1       2.361   0.063  -0.020  0.00  0.00    +0.079 A 
ATOM      4  C   UNL     1       3.414  -0.876  -0.035  0.00  0.00    +0.148 A 
ATOM      5  N   UNL     1       2.901  -2.074  -0.036  0.00  0.00    -0.172 NA
ATOM      6  C   UNL     1       2.287   1.469  -0.012  0.00  0.00    +0.135 A 
ATOM      7  N   UNL     1       1.087   2.039   0.003  0.00  0.00    -0.220 NA
ATOM      8  C   UNL     1      -0.016   1.311   0.009  0.00  0.00    +0.225 A 
ATOM      9  N   UNL     1       0.002  -0.004   0.002  0.00  0.00    -0.216 NA
ENDROOT
BRANCH   1  14
ATOM     10  C   UNL     1      -2.097  -6.375  -0.011  0.00  0.00    +0.044 C 
ATOM     11  C   UNL     1      -1.141  -5.210  -0.014  0.00  0.00    -0.047 A 
ATOM     12  C   UNL     1      -1.456  -4.057   0.682  0.00  0.00    +0.006 A 
ATOM     13  C   UNL     1      -0.582  -2.988   0.681  0.00  0.00    +0.028 A 
ATOM     14  C   UNL     1       0.615  -3.071  -0.020  0.00  0.00    +0.068 A 
ATOM     15  C   UNL     1       0.925  -4.228  -0.723  0.00  0.00    +0.031 A 
ATOM     16  C   UNL     1       0.049  -5.296  -0.713  0.00  0.00    -0.046 A 
ATOM     17  C   UNL     1       0.388  -6.554  -1.470  0.00  0.00    +0.044 C 
ENDBRANCH   1  14
BRANCH   6  18
ATOM     18  N   UNL     1       3.435   2.237  -0.019  0.00  0.00    -0.313 N 
ATOM     19  C   UNL     1       4.309   1.888   1.109  0.00  0.00    +0.131 C 
BRANCH  18  20
ATOM     20  C   UNL     1       3.110   3.670  -0.008  0.00  0.00    +0.141 C 
BRANCH  20  21
ATOM     21  C   UNL     1       4.361   4.471  -0.262  0.00  0.00    -0.030 A 
ATOM     22  C   UNL     1       5.145   4.883   0.799  0.00  0.00    +0.005 A 
ATOM     23  C   UNL     1       6.295   5.613   0.566  0.00  0.00    +0.000 A 
ATOM     24  C   UNL     1       6.655   5.941  -0.728  0.00  0.00    +0.000 A 
ATOM     25  C   UNL     1       5.868   5.533  -1.789  0.00  0.00    +0.000 A 
ATOM     26  C   UNL     1       4.721   4.798  -1.556  0.00  0.00    +0.005 A 
ENDBRANCH  20  21
ENDBRANCH  18  20
ENDBRANCH   6  18
TORSDOF 4
