REMARK  Name = ZINC03978549
REMARK  7 active torsions:
REMARK  status: ('A' for Active; 'I' for Inactive)
REMARK    1  A    between atoms: C_1  and  C_2
REMARK    2  A    between atoms: C_6  and  C_29
REMARK    3  A    between atoms: C_6  and  O_30
REMARK    4  A    between atoms: C_12  and  O_20
REMARK    5  A    between atoms: C_15  and  C_19
REMARK    6  A    between atoms: O_20  and  C_21
REMARK    7  A    between atoms: C_21  and  C_23
REMARK                            x       y       z     vdW  Elec       q    Type
REMARK                         _______ _______ _______ _____ _____    ______ ____
ROOT
ATOM      1  C   UNL     1      -3.038  -3.880  -0.902  0.00  0.00    +0.039 C 
ATOM      2  C   UNL     1      -1.717  -4.385  -1.422  0.00  0.00    -0.076 C 
ATOM      3  C   UNL     1      -0.802  -4.812  -0.588  0.00  0.00    -0.028 C 
ATOM      4  C   UNL     1      -1.058  -4.800   0.896  0.00  0.00    +0.030 C 
ATOM      5  C   UNL     1      -0.688  -3.433   1.472  0.00  0.00    +0.042 C 
ATOM      6  C   UNL     1       0.530  -3.571   2.388  0.00  0.00    +0.100 C 
ATOM      7  C   UNL     1       0.904  -2.197   2.949  0.00  0.00    +0.209 C 
ATOM      8  C   UNL     1       0.707  -1.138   1.864  0.00  0.00    +0.059 C 
ATOM      9  C   UNL     1       1.594  -1.478   0.662  0.00  0.00    +0.070 C 
ATOM     10  C   UNL     1       1.500  -0.359  -0.375  0.00  0.00    +0.188 C 
ATOM     11  C   UNL     1       1.698  -0.940  -1.777  0.00  0.00    +0.075 C 
ATOM     12  C   UNL     1       0.364  -1.360  -2.338  0.00  0.00    -0.073 C 
ATOM     13  C   UNL     1       0.211  -2.565  -2.830  0.00  0.00    -0.027 C 
ATOM     14  C   UNL     1      -1.125  -2.988  -3.384  0.00  0.00    +0.031 C 
ATOM     15  C   UNL     1      -1.452  -4.404  -2.906  0.00  0.00    +0.034 C 
ATOM     16  C   UNL     1      -0.795  -0.397  -2.333  0.00  0.00    +0.039 C 
ATOM     17  C   UNL     1       3.019  -1.608   1.140  0.00  0.00    +0.036 C 
ATOM     18  C   UNL     1       4.032  -1.407   0.301  0.00  0.00    +0.020 C 
ATOM     19  C   UNL     1       3.273  -1.958   2.543  0.00  0.00    +0.335 C 
ATOM     20  O   UNL     1       4.421  -2.018   2.938  0.00  0.00    -0.245 OA
ATOM     21  O   UNL     1       2.277  -2.215   3.399  0.00  0.00    -0.455 OA
ATOM     22  C   UNL     1       1.708  -4.133   1.588  0.00  0.00    +0.045 C 
ENDROOT
BRANCH   6  23
ATOM     23  O   UNL     1       0.219  -4.457   3.464  0.00  0.00    -0.385 OA
ATOM     24  H   UNL     1      -0.028  -5.348   3.182  0.00  0.00    +0.210 HD
ENDBRANCH   6  23
BRANCH  10  25
ATOM     25  O   UNL     1       0.194   0.270  -0.292  0.00  0.00    -0.461 OA
BRANCH  25  26
ATOM     26  C   UNL     1       0.149   1.520   0.195  0.00  0.00    +0.304 C 
ATOM     27  O   UNL     1       1.168   2.070   0.540  0.00  0.00    -0.251 OA
ATOM     28  C   UNL     1      -1.171   2.238   0.305  0.00  0.00    +0.136 C 
ENDBRANCH  25  26
ENDBRANCH  10  25
TORSDOF 3
