REMARK  Name = ZINC04483611
REMARK  4 active torsions:
REMARK  status: ('A' for Active; 'I' for Inactive)
REMARK    1  A    between atoms: C_1  and  C_2
REMARK    2  A    between atoms: C_5  and  N_8
REMARK    3  A    between atoms: N_17  and  C_20
REMARK    4  A    between atoms: C_20  and  C_21
REMARK                            x       y       z     vdW  Elec       q    Type
REMARK                         _______ _______ _______ _____ _____    ______ ____
ROOT
ATOM      1  N   UNL     1       0.059  -4.172  -0.021  0.00  0.00    -0.207 N 
ATOM      2  C   UNL     1      -0.030  -4.891  -1.146  0.00  0.00    +0.255 C 
ATOM      3  O   UNL     1      -0.137  -4.433  -2.263  0.00  0.00    -0.272 OA
ATOM      4  C   UNL     1       0.023  -6.364  -0.807  0.00  0.00    +0.246 C 
ATOM      5  C   UNL     1       0.152  -6.370   0.741  0.00  0.00    +0.216 C 
ATOM      6  C   UNL     1       0.172  -4.901   1.096  0.00  0.00    +0.251 C 
ATOM      7  O   UNL     1       0.273  -4.452   2.218  0.00  0.00    -0.273 OA
ATOM      8  N   UNL     1       1.498  -6.937   0.939  0.00  0.00    -0.219 N 
ATOM      9  N   UNL     1       2.029  -7.211  -0.322  0.00  0.00    -0.082 NA
ATOM     10  N   UNL     1       1.290  -6.934  -1.280  0.00  0.00    -0.156 NA
ENDROOT
BRANCH   1  15
ATOM     11  C   UNL     1      -0.017   1.503   0.012  0.00  0.00    +0.044 C 
ATOM     12  C   UNL     1       0.003  -0.004   0.003  0.00  0.00    -0.050 A 
ATOM     13  C   UNL     1      -1.131  -0.707  -0.360  0.00  0.00    +0.005 A 
ATOM     14  C   UNL     1      -1.115  -2.088  -0.369  0.00  0.00    +0.024 A 
ATOM     15  C   UNL     1       0.040  -2.771  -0.013  0.00  0.00    +0.044 A 
ATOM     16  C   UNL     1       1.177  -2.062   0.351  0.00  0.00    +0.024 A 
ATOM     17  C   UNL     1       1.157  -0.681   0.353  0.00  0.00    +0.005 A 
ENDBRANCH   1  15
BRANCH   8  18
ATOM     18  C   UNL     1       2.159  -7.171   2.225  0.00  0.00    +0.163 C 
BRANCH  18  19
ATOM     19  C   UNL     1       1.828  -8.557   2.715  0.00  0.00    -0.028 A 
ATOM     20  C   UNL     1       0.713  -8.762   3.506  0.00  0.00    +0.008 A 
ATOM     21  C   UNL     1       0.408 -10.033   3.955  0.00  0.00    +0.038 A 
ATOM     22  C   UNL     1       1.221 -11.101   3.614  0.00  0.00    +0.123 A 
ATOM     23  C   UNL     1       2.337 -10.894   2.821  0.00  0.00    +0.038 A 
ATOM     24  C   UNL     1       2.637  -9.623   2.369  0.00  0.00    +0.008 A 
ATOM     25  F   UNL     1       0.924 -12.344   4.053  0.00  0.00    -0.205 F 
ENDBRANCH  18  19
ENDBRANCH   8  18
TORSDOF 3
