REMARK  Name = ZINC12462616
REMARK  4 active torsions:
REMARK  status: ('A' for Active; 'I' for Inactive)
REMARK    1  A    between atoms: C_1  and  C_2
REMARK    2  A    between atoms: C_9  and  C_12
REMARK    3  A    between atoms: C_12  and  C_24
REMARK    4  A    between atoms: C_13  and  C_14
REMARK                            x       y       z     vdW  Elec       q    Type
REMARK                         _______ _______ _______ _____ _____    ______ ____
ROOT
ATOM      1  C   UNL     1      -2.454   1.748   1.514  0.00  0.00    +0.044 C 
ATOM      2  C   UNL     1      -1.183   2.134   0.802  0.00  0.00    -0.048 A 
ATOM      3  C   UNL     1      -1.252   2.828  -0.397  0.00  0.00    +0.005 A 
ATOM      4  C   UNL     1      -0.099   3.186  -1.065  0.00  0.00    +0.028 A 
ATOM      5  C   UNL     1       1.137   2.853  -0.530  0.00  0.00    +0.066 A 
ATOM      6  C   UNL     1       1.207   2.154   0.688  0.00  0.00    +0.090 A 
ATOM      7  C   UNL     1       0.024   1.802   1.348  0.00  0.00    +0.033 A 
ATOM      8  N   UNL     1       2.520   1.966   0.968  0.00  0.00    -0.227 NA
ATOM      9  C   UNL     1       3.252   2.494   0.018  0.00  0.00    +0.149 A 
ATOM     10  N   UNL     1       2.443   3.056  -0.933  0.00  0.00    -0.337 N 
ATOM     11  H   UNL     1       2.741   3.525  -1.764  0.00  0.00    +0.167 HD
ENDROOT
BRANCH   9  12
ATOM     12  C   UNL     1       4.730   2.485  -0.021  0.00  0.00    +0.090 C 
ATOM     13  C   UNL     1       5.398   1.321   0.062  0.00  0.00    -0.001 C 
BRANCH  13  14
ATOM     14  C   UNL     1       4.642   0.017   0.062  0.00  0.00    +0.020 C 
ATOM     15  C   UNL     1       5.258  -0.970  -0.960  0.00  0.00    +0.015 C 
ATOM     16  C   UNL     1       5.721  -2.173  -0.079  0.00  0.00    +0.013 C 
ATOM     17  C   UNL     1       6.204  -1.412   1.209  0.00  0.00    +0.015 C 
ATOM     18  C   UNL     1       4.812  -0.716   1.431  0.00  0.00    +0.019 C 
ATOM     19  C   UNL     1       3.872  -1.923   1.327  0.00  0.00    -0.027 C 
ATOM     20  C   UNL     1       4.413  -2.775   0.448  0.00  0.00    -0.027 C 
ENDBRANCH  13  14
BRANCH  12  21
ATOM     21  C   UNL     1       5.451   3.716  -0.147  0.00  0.00    +0.103 C 
ATOM     22  N   UNL     1       6.022   4.693  -0.247  0.00  0.00    -0.191 NA
ENDBRANCH  12  21
ENDBRANCH   9  12
TORSDOF 3
