REMARK  Name = ZINC44458530
REMARK  6 active torsions:
REMARK  status: ('A' for Active; 'I' for Inactive)
REMARK    1  A    between atoms: C_1  and  C_2
REMARK    2  A    between atoms: C_4  and  C_25
REMARK    3  A    between atoms: C_5  and  N_9
REMARK    4  A    between atoms: C_6  and  C_8
REMARK    5  A    between atoms: C_10  and  C_12
REMARK    6  A    between atoms: N_21  and  C_22
REMARK                            x       y       z     vdW  Elec       q    Type
REMARK                         _______ _______ _______ _____ _____    ______ ____
ROOT
ATOM      1  N   UNL     1      -0.041  -4.272  -0.087  0.00  0.00    -0.285 N 
ATOM      2  C   UNL     1       0.351  -4.966   1.000  0.00  0.00    +0.222 C 
ATOM      3  O   UNL     1       0.667  -4.378   2.013  0.00  0.00    -0.275 OA
ATOM      4  H   UNL     1      -0.371  -4.742  -0.869  0.00  0.00    +0.155 HD
ENDROOT
BRANCH   2   5
ATOM      5  C   UNL     1       0.397  -6.471   0.957  0.00  0.00    +0.093 C 
ATOM      6  C   UNL     1       0.873  -7.007   2.309  0.00  0.00    +0.016 C 
ATOM      7  C   UNL     1       0.889  -8.537   2.278  0.00  0.00    +0.020 C 
ATOM      8  C   UNL     1       1.867  -9.011   1.198  0.00  0.00    +0.109 C 
ATOM      9  N   UNL     1       1.501  -8.384  -0.080  0.00  0.00    -0.285 N 
ATOM     10  C   UNL     1       1.369  -6.922  -0.138  0.00  0.00    +0.122 C 
ATOM     11  C   UNL     1       1.291  -9.137  -1.178  0.00  0.00    +0.302 C 
ATOM     12  O   UNL     1       0.896  -8.617  -2.204  0.00  0.00    -0.253 OA
ATOM     13  N   UNL     1       1.519 -10.465  -1.139  0.00  0.00    -0.296 N 
ATOM     14  H   UNL     1       1.763 -10.890  -0.302  0.00  0.00    +0.151 HD
BRANCH  13  15
ATOM     15  C   UNL     1       1.397 -11.265  -2.360  0.00  0.00    +0.075 C 
ATOM     16  C   UNL     1       0.672 -12.608  -2.255  0.00  0.00    +0.024 C 
ATOM     17  C   UNL     1       2.191 -12.571  -2.431  0.00  0.00    +0.024 C 
ENDBRANCH  13  15
ENDBRANCH   2   5
BRANCH   1  22
ATOM     18  C   UNL     1       0.235   1.394  -0.090  0.00  0.00    +0.044 C 
ATOM     19  C   UNL     1       0.162  -0.111  -0.090  0.00  0.00    -0.050 A 
ATOM     20  C   UNL     1       0.821  -0.835  -1.066  0.00  0.00    +0.008 A 
ATOM     21  C   UNL     1       0.756  -2.214  -1.068  0.00  0.00    -0.029 A 
ATOM     22  C   UNL     1       0.027  -2.875  -0.088  0.00  0.00    +0.039 A 
ATOM     23  C   UNL     1      -0.633  -2.145   0.892  0.00  0.00    -0.029 A 
ATOM     24  C   UNL     1      -0.560  -0.766   0.891  0.00  0.00    +0.008 A 
ATOM     25  C   UNL     1      -1.425  -2.858   1.958  0.00  0.00    +0.045 C 
ATOM     26  C   UNL     1       1.474  -3.002  -2.134  0.00  0.00    +0.045 C 
ENDBRANCH   1  22
TORSDOF 3
