REMARK  Name = ZINC02213245
REMARK  4 active torsions:
REMARK  status: ('A' for Active; 'I' for Inactive)
REMARK    1  A    between atoms: C_3  and  C_6
REMARK    2  A    between atoms: C_6  and  N_7
REMARK    3  A    between atoms: C_10  and  C_16
REMARK    4  A    between atoms: N_18  and  C_19
REMARK                            x       y       z     vdW  Elec       q    Type
REMARK                         _______ _______ _______ _____ _____    ______ ____
ROOT
ATOM      1  N   UNL     1       2.753  10.198  -0.596  0.00  0.00    -0.248 NA
ATOM      2  C   UNL     1       3.001   8.974  -0.021  0.00  0.00    +0.183 C 
ATOM      3  N   UNL     1       3.350   7.979  -0.775  0.00  0.00    -0.305 N 
ATOM      4  C   UNL     1       3.620   6.655  -0.214  0.00  0.00    +0.168 C 
ATOM      5  C   UNL     1       4.259   6.800   1.169  0.00  0.00    +0.128 C 
ATOM      6  C   UNL     1       3.466   7.798   1.976  0.00  0.00    +0.221 C 
ATOM      7  O   UNL     1       3.365   7.673   3.177  0.00  0.00    -0.275 OA
ATOM      8  N   UNL     1       2.871   8.832   1.345  0.00  0.00    -0.258 N 
ATOM      9  H   UNL     1       2.283   9.561   1.921  0.00  0.00    +0.157 HD
ATOM     10  H   UNL     1       3.442   8.146  -1.858  0.00  0.00    +0.149 HD
ENDROOT
BRANCH   4  11
ATOM     11  C   UNL     1       2.328   5.890  -0.092  0.00  0.00    +0.238 C 
ATOM     12  O   UNL     1       1.270   6.483  -0.079  0.00  0.00    -0.273 OA
ATOM     13  N   UNL     1       2.348   4.545   0.003  0.00  0.00    -0.284 N 
ATOM     14  H   UNL     1       3.307   4.013   0.079  0.00  0.00    +0.155 HD
BRANCH  13  15
ATOM     15  C   UNL     1       1.147   3.826   0.005  0.00  0.00    +0.035 A 
ATOM     16  C   UNL     1       1.038   2.656   0.745  0.00  0.00    +0.025 A 
ATOM     17  C   UNL     1      -0.148   1.948   0.747  0.00  0.00    +0.023 A 
ATOM     18  C   UNL     1      -1.230   2.407   0.016  0.00  0.00    +0.059 A 
ATOM     19  C   UNL     1      -1.123   3.571  -0.727  0.00  0.00    +0.061 A 
ATOM     20  C   UNL     1       0.062   4.282  -0.732  0.00  0.00    +0.044 A 
ATOM     21 CL   UNL     1      -2.481   4.140  -1.648  0.00  0.00    -0.082 Cl
ATOM     22 CL   UNL     1      -2.721   1.518   0.025  0.00  0.00    -0.082 Cl
ENDBRANCH  13  15
ENDBRANCH   4  11
BRANCH   1  23
ATOM     23  C   UNL     1       2.356  11.333   0.241  0.00  0.00    +0.219 C 
BRANCH  23  26
ATOM     24  C   UNL     1       1.244  14.101  -1.923  0.00  0.00    +0.041 A 
ATOM     25  C   UNL     1       0.990  12.906  -1.211  0.00  0.00    +0.046 A 
ATOM     26  C   UNL     1       2.147  12.548  -0.626  0.00  0.00    +0.126 A 
ATOM     27  O   UNL     1       3.085  13.452  -0.951  0.00  0.00    -0.466 OA
ATOM     28  C   UNL     1       2.543  14.396  -1.738  0.00  0.00    +0.195 A 
ENDBRANCH  23  26
ENDBRANCH   1  23
TORSDOF 4
