REMARK  Name = ZINC43040886
REMARK  4 active torsions:
REMARK  status: ('A' for Active; 'I' for Inactive)
REMARK    1  A    between atoms: C_1  and  C_2
REMARK    2  A    between atoms: N_15  and  C_16
REMARK    3  A    between atoms: C_21  and  C_26
REMARK    4  A    between atoms: C_23  and  C_25
REMARK                            x       y       z     vdW  Elec       q    Type
REMARK                         _______ _______ _______ _____ _____    ______ ____
ROOT
ATOM      1  C   UNL     1      -0.026   1.506   0.013  0.00  0.00    +0.066 C 
ATOM      2  C   UNL     1      -0.001  -0.001   0.005  0.00  0.00    +0.047 A 
ATOM      3  C   UNL     1       0.008  -0.702  -1.154  0.00  0.00    +0.071 A 
ATOM      4  S   UNL     1       0.038  -2.375  -0.532  0.00  0.00    -0.060 S 
ATOM      5  C   UNL     1       0.036  -2.012   1.111  0.00  0.00    +0.161 A 
ATOM      6  N   UNL     1       0.019  -0.697   1.128  0.00  0.00    -0.230 NA
ATOM      7  N   UNL     1       0.053  -2.887   2.186  0.00  0.00    -0.307 N 
ATOM      8  C   UNL     1       0.041  -2.379   3.565  0.00  0.00    +0.126 C 
ATOM      9  C   UNL     1      -1.141  -3.011   4.310  0.00  0.00    +0.128 C 
ATOM     10  N   UNL     1      -1.111  -4.464   4.092  0.00  0.00    -0.283 N 
ATOM     11  C   UNL     1      -1.099  -4.973   2.713  0.00  0.00    +0.128 C 
ATOM     12  C   UNL     1       0.077  -4.340   1.968  0.00  0.00    +0.126 C 
ATOM     13  C   UNL     1      -1.095  -5.315   5.137  0.00  0.00    +0.303 C 
ATOM     14  O   UNL     1      -1.009  -4.883   6.271  0.00  0.00    -0.253 OA
ATOM     15  N   UNL     1      -1.173  -6.644   4.926  0.00  0.00    -0.296 N 
ATOM     16  H   UNL     1      -1.168  -6.992   4.020  0.00  0.00    +0.151 HD
ENDROOT
BRANCH  15  17
ATOM     17  C   UNL     1      -1.265  -7.562   6.063  0.00  0.00    +0.078 C 
ATOM     18  C   UNL     1      -2.727  -7.693   6.496  0.00  0.00    +0.022 C 
ATOM     19  C   UNL     1      -2.823  -8.652   7.684  0.00  0.00    +0.002 C 
ATOM     20  C   UNL     1      -2.288 -10.025   7.275  0.00  0.00    +0.003 C 
ATOM     21  C   UNL     1      -0.826  -9.895   6.843  0.00  0.00    -0.009 C 
ATOM     22  C   UNL     1      -0.730  -8.936   5.654  0.00  0.00    +0.009 C 
ATOM     23  C   UNL     1       0.732  -8.805   5.222  0.00  0.00    +0.009 C 
ATOM     24  C   UNL     1       0.004  -9.350   8.007  0.00  0.00    +0.008 C 
ENDBRANCH  15  17
TORSDOF 1
