REMARK  Name = ZINC62497100
REMARK  4 active torsions:
REMARK  status: ('A' for Active; 'I' for Inactive)
REMARK    1  A    between atoms: C_1  and  N_2
REMARK    2  A    between atoms: C_5  and  O_22
REMARK    3  A    between atoms: C_10  and  C_14
REMARK    4  A    between atoms: C_14  and  C_15
REMARK                            x       y       z     vdW  Elec       q    Type
REMARK                         _______ _______ _______ _____ _____    ______ ____
ROOT
ATOM      1  C   UNL     1      -0.018   1.461   0.010  0.00  0.00    +0.138 C 
ATOM      2  N   UNL     1       0.002  -0.004   0.002  0.00  0.00    -0.268 N 
ATOM      3  C   UNL     1      -1.197  -0.729   0.004  0.00  0.00    +0.082 A 
ATOM      4  C   UNL     1      -2.404  -0.092   0.242  0.00  0.00    +0.072 A 
ATOM      5  C   UNL     1      -3.581  -0.826   0.253  0.00  0.00    +0.119 A 
ATOM      6  C   UNL     1      -3.549  -2.194   0.028  0.00  0.00    +0.049 A 
ATOM      7  C   UNL     1      -2.346  -2.831  -0.215  0.00  0.00    +0.051 A 
ATOM      8  C   UNL     1      -1.169  -2.102  -0.233  0.00  0.00    +0.143 A 
ATOM      9  O   UNL     1       0.016  -2.715  -0.502  0.00  0.00    -0.477 OA
ATOM     10  C   UNL     1       1.183  -2.173   0.121  0.00  0.00    +0.263 C 
ATOM     11  C   UNL     1       1.175  -0.671  -0.013  0.00  0.00    +0.261 C 
ATOM     12  O   UNL     1       2.219  -0.064  -0.129  0.00  0.00    -0.271 OA
ENDROOT
BRANCH   5  13
ATOM     13  O   UNL     1      -4.767  -0.203   0.486  0.00  0.00    -0.507 OA
ATOM     14  H   UNL     1      -5.207   0.117  -0.314  0.00  0.00    +0.292 HD
ENDBRANCH   5  13
BRANCH  10  15
ATOM     15  C   UNL     1       1.193  -2.557   1.603  0.00  0.00    +0.092 C 
BRANCH  15  16
ATOM     16  C   UNL     1       1.328  -4.052   1.733  0.00  0.00    -0.008 A 
ATOM     17  C   UNL     1       0.201  -4.839   1.871  0.00  0.00    +0.006 A 
ATOM     18  C   UNL     1       0.324  -6.210   1.991  0.00  0.00    +0.000 A 
ATOM     19  C   UNL     1       1.577  -6.797   1.973  0.00  0.00    +0.003 A 
ATOM     20  C   UNL     1       2.705  -6.012   1.835  0.00  0.00    +0.038 A 
ATOM     21  C   UNL     1       2.582  -4.638   1.709  0.00  0.00    +0.127 A 
ATOM     22  F   UNL     1       3.685  -3.871   1.569  0.00  0.00    -0.205 F 
ENDBRANCH  15  16
ENDBRANCH  10  15
TORSDOF 3
