REMARK  Name = ZINC12378901
REMARK  6 active torsions:
REMARK  status: ('A' for Active; 'I' for Inactive)
REMARK    1  A    between atoms: C_1  and  C_2
REMARK    2  A    between atoms: C_2  and  C_22
REMARK    3  A    between atoms: N_3  and  N_4
REMARK    4  A    between atoms: C_5  and  S_7
REMARK    5  A    between atoms: S_7  and  C_8
REMARK    6  A    between atoms: N_13  and  C_16
REMARK                            x       y       z     vdW  Elec       q    Type
REMARK                         _______ _______ _______ _____ _____    ______ ____
ROOT
ATOM      1  N   UNL     1      -1.214  -3.888   0.419  0.00  0.00    -0.217 N 
ATOM      2  C   UNL     1      -1.469  -3.738   1.764  0.00  0.00    +0.146 C 
ATOM      3  N   UNL     1      -0.848  -2.817   2.447  0.00  0.00    -0.380 N 
ATOM      4  H   UNL     1      -1.676  -4.573  -0.089  0.00  0.00    +0.176 HD
ATOM      5  H   UNL     1      -1.027  -2.711   3.394  0.00  0.00    +0.158 HD
ATOM      6  H   UNL     1      -0.205  -2.237   2.007  0.00  0.00    +0.158 HD
ENDROOT
BRANCH   1   9
ATOM      7  C   UNL     1       0.987  -2.349  -2.164  0.00  0.00    +0.068 C 
ATOM      8  C   UNL     1      -0.131  -3.114  -1.503  0.00  0.00    +0.063 C 
ATOM      9  N   UNL     1      -0.286  -3.051  -0.216  0.00  0.00    -0.185 NA
BRANCH   8  10
ATOM     10  C   UNL     1      -1.048  -3.933  -2.317  0.00  0.00    -0.002 A 
ATOM     11  C   UNL     1      -2.414  -3.953  -2.029  0.00  0.00    +0.012 A 
ATOM     12  C   UNL     1      -3.266  -4.720  -2.794  0.00  0.00    +0.039 A 
ATOM     13  C   UNL     1      -2.770  -5.471  -3.848  0.00  0.00    +0.123 A 
ATOM     14  C   UNL     1      -1.415  -5.455  -4.139  0.00  0.00    +0.039 A 
ATOM     15  C   UNL     1      -0.553  -4.686  -3.385  0.00  0.00    +0.012 A 
ATOM     16  F   UNL     1      -3.609  -6.221  -4.595  0.00  0.00    -0.205 F 
ENDBRANCH   8  10
ENDBRANCH   1   9
BRANCH   2  17
ATOM     17  S   UNL     1      -2.635  -4.790   2.562  0.00  0.00    -0.078 S 
BRANCH  17  18
ATOM     18  C   UNL     1      -2.630  -4.224   4.285  0.00  0.00    +0.149 C 
ATOM     19  C   UNL     1      -3.666  -5.007   5.117  0.00  0.00    +0.120 C 
ATOM     20  C   UNL     1      -2.825  -5.702   6.166  0.00  0.00    +0.228 C 
ATOM     21  O   UNL     1      -3.250  -6.431   7.036  0.00  0.00    -0.275 OA
ATOM     22  N   UNL     1      -1.538  -5.383   5.981  0.00  0.00    -0.209 N 
ATOM     23  C   UNL     1      -1.312  -4.554   4.950  0.00  0.00    +0.240 C 
ATOM     24  O   UNL     1      -0.227  -4.138   4.605  0.00  0.00    -0.274 OA
BRANCH  22  25
ATOM     25  C   UNL     1      -0.510  -5.874   6.799  0.00  0.00    +0.044 A 
ATOM     26  C   UNL     1      -0.051  -5.117   7.869  0.00  0.00    +0.024 A 
ATOM     27  C   UNL     1       0.962  -5.603   8.672  0.00  0.00    +0.002 A 
ATOM     28  C   UNL     1       1.519  -6.841   8.412  0.00  0.00    +0.000 A 
ATOM     29  C   UNL     1       1.064  -7.597   7.348  0.00  0.00    +0.002 A 
ATOM     30  C   UNL     1       0.047  -7.119   6.544  0.00  0.00    +0.024 A 
ENDBRANCH  22  25
ENDBRANCH  17  18
ENDBRANCH   2  17
TORSDOF 5
