REMARK  Name = ZINC09167582
REMARK  10 active torsions:
REMARK  status: ('A' for Active; 'I' for Inactive)
REMARK    1  A    between atoms: C_1  and  C_2
REMARK    2  A    between atoms: C_2  and  C_3
REMARK    3  A    between atoms: C_3  and  N_4
REMARK    4  A    between atoms: C_8  and  N_18
REMARK    5  A    between atoms: C_13  and  C_16
REMARK    6  A    between atoms: C_13  and  C_17
REMARK    7  A    between atoms: N_18  and  S_19
REMARK    8  A    between atoms: S_19  and  C_22
REMARK    9  A    between atoms: C_25  and  C_29
REMARK   10  A    between atoms: C_26  and  C_28
REMARK                            x       y       z     vdW  Elec       q    Type
REMARK                         _______ _______ _______ _____ _____    ______ ____
ROOT
ATOM      1  N   UNL     1       3.360   1.463   0.238  0.00  0.00    -0.268 N 
ATOM      2  C   UNL     1       2.249   0.647  -0.026  0.00  0.00    +0.078 A 
ATOM      3  C   UNL     1       0.963   1.149   0.091  0.00  0.00    +0.029 A 
ATOM      4  C   UNL     1      -0.123   0.334  -0.166  0.00  0.00    +0.026 A 
ATOM      5  C   UNL     1       0.074  -0.989  -0.542  0.00  0.00    +0.052 A 
ATOM      6  C   UNL     1       1.361  -1.495  -0.661  0.00  0.00    +0.072 A 
ATOM      7  C   UNL     1       2.449  -0.679  -0.406  0.00  0.00    +0.144 A 
ATOM      8  O   UNL     1       3.715  -1.160  -0.530  0.00  0.00    -0.489 OA
ATOM      9  C   UNL     1       4.454  -0.760  -1.681  0.00  0.00    +0.244 C 
ATOM     10  C   UNL     1       4.272   0.733  -1.941  0.00  0.00    +0.076 C 
ATOM     11  C   UNL     1       4.379   1.500  -0.648  0.00  0.00    +0.229 C 
ATOM     12  O   UNL     1       5.376   2.148  -0.405  0.00  0.00    -0.275 OA
ATOM     13  C   UNL     1       2.895   0.976  -2.562  0.00  0.00    +0.024 C 
ATOM     14  C   UNL     1       5.357   1.213  -2.907  0.00  0.00    +0.024 C 
ENDROOT
BRANCH   5  15
ATOM     15  N   UNL     1      -1.027  -1.813  -0.800  0.00  0.00    -0.216 N 
ATOM     16  H   UNL     1      -1.054  -2.713  -0.441  0.00  0.00    +0.174 HD
BRANCH  15  17
ATOM     17  S   UNL     1      -2.284  -1.250  -1.719  0.00  0.00    +0.072 S 
ATOM     18  O   UNL     1      -3.221  -2.314  -1.821  0.00  0.00    -0.150 OA
ATOM     19  O   UNL     1      -2.633   0.024  -1.195  0.00  0.00    -0.150 OA
BRANCH  17  20
ATOM     20  C   UNL     1      -1.659  -0.972  -3.343  0.00  0.00    +0.109 A 
ATOM     21  C   UNL     1      -1.136   0.262  -3.681  0.00  0.00    +0.029 A 
ATOM     22  C   UNL     1      -0.641   0.478  -4.953  0.00  0.00    +0.005 A 
ATOM     23  C   UNL     1      -0.678  -0.536  -5.891  0.00  0.00    -0.047 A 
ATOM     24  C   UNL     1      -1.206  -1.769  -5.555  0.00  0.00    -0.046 A 
ATOM     25  C   UNL     1      -1.697  -1.987  -4.281  0.00  0.00    +0.032 A 
ATOM     26  C   UNL     1      -1.247  -2.875  -6.578  0.00  0.00    +0.044 C 
ATOM     27  C   UNL     1      -0.143  -0.299  -7.280  0.00  0.00    +0.044 C 
ENDBRANCH  17  20
ENDBRANCH  15  17
ENDBRANCH   5  15
BRANCH   1  28
ATOM     28  C   UNL     1       3.415   2.265   1.463  0.00  0.00    +0.113 C 
BRANCH  28  30
ATOM     29  C   UNL     1       4.130   2.287   3.857  0.00  0.00    +0.005 C 
ATOM     30  C   UNL     1       4.073   1.449   2.578  0.00  0.00    +0.016 C 
ENDBRANCH  28  30
ENDBRANCH   1  28
TORSDOF 5
