REMARK  Name = ZINC03671191
REMARK  6 active torsions:
REMARK  status: ('A' for Active; 'I' for Inactive)
REMARK    1  A    between atoms: C_1  and  C_2
REMARK    2  A    between atoms: C_4  and  C_22
REMARK    3  A    between atoms: C_4  and  C_23
REMARK    4  A    between atoms: C_9  and  C_14
REMARK    5  A    between atoms: C_14  and  C_15
REMARK    6  A    between atoms: C_18  and  O_21
REMARK                            x       y       z     vdW  Elec       q    Type
REMARK                         _______ _______ _______ _____ _____    ______ ____
ROOT
ATOM      1  C   UNL     1       0.066   1.122   0.317  0.00  0.00    +0.078 C 
ATOM      2  C   UNL     1       0.291  -0.391   0.356  0.00  0.00    +0.182 C 
ATOM      3  C   UNL     1      -0.989  -1.121   0.779  0.00  0.00    +0.094 C 
ATOM      4  C   UNL     1      -1.313  -0.719   2.222  0.00  0.00    +0.033 C 
ATOM      5  N   UNL     1      -0.171  -0.951   3.102  0.00  0.00    -0.321 N 
ATOM      6  C   UNL     1       1.101  -0.915   2.655  0.00  0.00    +0.137 C 
ATOM      7  S   UNL     1       2.409  -1.087   3.746  0.00  0.00    -0.019 S 
ATOM      8  N   UNL     1       1.329  -0.745   1.347  0.00  0.00    -0.261 N 
ATOM      9  C   UNL     1       2.559  -0.907   0.569  0.00  0.00    +0.192 C 
ATOM     10  C   UNL     1       2.129  -0.722  -0.876  0.00  0.00    +0.330 C 
ATOM     11  O   UNL     1       2.847  -0.493  -1.820  0.00  0.00    -0.249 OA
ATOM     12  O   UNL     1       0.784  -0.865  -0.901  0.00  0.00    -0.439 OA
ATOM     13  C   UNL     1      -2.503  -1.543   2.717  0.00  0.00    +0.031 C 
ATOM     14  C   UNL     1      -1.681   0.765   2.259  0.00  0.00    +0.031 C 
ATOM     15  H   UNL     1      -0.333  -1.138   4.040  0.00  0.00    +0.148 HD
ENDROOT
BRANCH   9  16
ATOM     16  C   UNL     1       3.584   0.158   0.963  0.00  0.00    +0.069 C 
BRANCH  16  17
ATOM     17  C   UNL     1       4.889  -0.116   0.260  0.00  0.00    -0.045 A 
ATOM     18  C   UNL     1       5.779  -1.031   0.790  0.00  0.00    +0.007 A 
ATOM     19  C   UNL     1       6.976  -1.284   0.148  0.00  0.00    +0.045 A 
ATOM     20  C   UNL     1       7.284  -0.619  -1.030  0.00  0.00    +0.117 A 
ATOM     21  C   UNL     1       6.388   0.298  -1.560  0.00  0.00    +0.045 A 
ATOM     22  C   UNL     1       5.190   0.543  -0.917  0.00  0.00    +0.007 A 
BRANCH  20  23
ATOM     23  O   UNL     1       8.461  -0.866  -1.663  0.00  0.00    -0.507 OA
ATOM     24  H   UNL     1       8.416  -1.582  -2.311  0.00  0.00    +0.292 HD
ENDBRANCH  20  23
ENDBRANCH  16  17
ENDBRANCH   9  16
TORSDOF 3
