REMARK  Name = ZINC37131305
REMARK  7 active torsions:
REMARK  status: ('A' for Active; 'I' for Inactive)
REMARK    1  A    between atoms: C_1  and  C_2
REMARK    2  A    between atoms: C_5  and  C_9
REMARK    3  A    between atoms: C_6  and  C_8
REMARK    4  A    between atoms: C_9  and  C_11
REMARK    5  A    between atoms: C_9  and  N_12
REMARK    6  A    between atoms: N_12  and  C_13
REMARK    7  A    between atoms: C_16  and  N_20
REMARK                            x       y       z     vdW  Elec       q    Type
REMARK                         _______ _______ _______ _____ _____    ______ ____
ROOT
ATOM      1  N   UNL     1       0.642  -4.749  -1.279  0.00  0.00    -0.336 N 
ATOM      2  H   UNL     1       0.610  -4.189  -2.070  0.00  0.00    +0.147 HD
ENDROOT
BRANCH   1   3
ATOM      3  C   UNL     1       1.246  -6.008  -1.339  0.00  0.00    +0.042 A 
ATOM      4  C   UNL     1       1.289  -6.814  -0.208  0.00  0.00    +0.026 A 
ATOM      5  C   UNL     1       1.885  -8.058  -0.271  0.00  0.00    +0.034 A 
ATOM      6  C   UNL     1       2.441  -8.502  -1.457  0.00  0.00    +0.127 A 
ATOM      7  C   UNL     1       2.400  -7.703  -2.585  0.00  0.00    +0.049 A 
ATOM      8  C   UNL     1       1.799  -6.459  -2.531  0.00  0.00    +0.041 A 
ATOM      9 BR   UNL     1       1.737  -5.370  -4.076  0.00  0.00    -0.048 Br
BRANCH   6  10
ATOM     10  N   UNL     1       3.080  -9.835  -1.520  0.00  0.00    +0.056 N 
ATOM     11  O   UNL     1       3.116 -10.535  -0.534  0.00  0.00    -0.126 OA
ATOM     12  O   UNL     1       3.566 -10.225  -2.556  0.00  0.00    -0.126 OA
ENDBRANCH   6  10
ENDBRANCH   1   3
BRANCH   1  13
ATOM     13  C   UNL     1       0.059  -4.275  -0.021  0.00  0.00    +0.098 C 
ATOM     14  C   UNL     1      -1.370  -4.804   0.109  0.00  0.00    +0.033 C 
BRANCH  13  19
ATOM     15  C   UNL     1      -0.018   1.503   0.010  0.00  0.00    +0.044 C 
ATOM     16  C   UNL     1       0.002  -0.004   0.002  0.00  0.00    -0.050 A 
ATOM     17  C   UNL     1       0.006  -0.689  -1.199  0.00  0.00    +0.004 A 
ATOM     18  C   UNL     1       0.025  -2.071  -1.207  0.00  0.00    +0.006 A 
ATOM     19  C   UNL     1       0.040  -2.768  -0.013  0.00  0.00    -0.025 A 
ATOM     20  C   UNL     1       0.037  -2.084   1.188  0.00  0.00    -0.045 A 
ATOM     21  C   UNL     1       0.023  -0.702   1.195  0.00  0.00    +0.007 A 
ATOM     22  C   UNL     1       0.054  -2.845   2.489  0.00  0.00    +0.044 C 
ENDBRANCH  13  19
ENDBRANCH   1  13
TORSDOF 4
