REMARK  Name = ZINC40330343
REMARK  4 active torsions:
REMARK  status: ('A' for Active; 'I' for Inactive)
REMARK    1  A    between atoms: C_1  and  C_2
REMARK    2  A    between atoms: C_5  and  S_9
REMARK    3  A    between atoms: C_7  and  N_8
REMARK    4  A    between atoms: S_9  and  N_12
REMARK                            x       y       z     vdW  Elec       q    Type
REMARK                         _______ _______ _______ _____ _____    ______ ____
ROOT
ATOM      1  S   UNL     1       0.062  -4.535  -0.031  0.00  0.00    +0.061 S 
ATOM      2  O   UNL     1      -0.477  -4.960   1.213  0.00  0.00    -0.153 OA
ATOM      3  O   UNL     1      -0.490  -4.937  -1.277  0.00  0.00    -0.153 OA
ENDROOT
BRANCH   1   4
ATOM      4  N   UNL     1       1.650  -5.004  -0.044  0.00  0.00    -0.169 NA
ATOM      5  C   UNL     1       2.381  -5.204  -1.308  0.00  0.00    +0.138 C 
ATOM      6  C   UNL     1       3.073  -6.570  -1.269  0.00  0.00    +0.177 C 
ATOM      7  O   UNL     1       3.830  -6.697  -0.060  0.00  0.00    -0.374 OA
ATOM      8  C   UNL     1       3.033  -6.626   1.120  0.00  0.00    +0.137 C 
ATOM      9  C   UNL     1       2.389  -5.232   1.204  0.00  0.00    +0.109 C 
ATOM     10  C   UNL     1       1.452  -5.190   2.409  0.00  0.00    +0.023 C 
ATOM     11  C   UNL     1       2.269  -5.433   3.682  0.00  0.00    +0.002 C 
ATOM     12  C   UNL     1       2.962  -6.794   3.607  0.00  0.00    +0.003 C 
ATOM     13  C   UNL     1       3.875  -6.846   2.374  0.00  0.00    +0.033 C 
ENDBRANCH   1   4
BRANCH   1  18
ATOM     14  C   UNL     1      -0.018   1.503   0.010  0.00  0.00    +0.045 C 
ATOM     15  C   UNL     1       0.002  -0.004   0.002  0.00  0.00    -0.030 A 
ATOM     16  C   UNL     1       0.006  -0.689  -1.198  0.00  0.00    +0.007 A 
ATOM     17  C   UNL     1       0.024  -2.071  -1.206  0.00  0.00    +0.029 A 
ATOM     18  C   UNL     1       0.039  -2.773  -0.014  0.00  0.00    +0.107 A 
ATOM     19  C   UNL     1       0.036  -2.095   1.188  0.00  0.00    +0.051 A 
ATOM     20  C   UNL     1       0.023  -0.706   1.200  0.00  0.00    +0.029 A 
BRANCH  20  21
ATOM     21  N   UNL     1       0.025  -0.016   2.415  0.00  0.00    -0.358 N 
ATOM     22  H   UNL     1       0.012   0.954   2.422  0.00  0.00    +0.142 HD
ATOM     23  H   UNL     1       0.040  -0.507   3.252  0.00  0.00    +0.142 HD
ENDBRANCH  20  21
ENDBRANCH   1  18
TORSDOF 3
