REMARK  Name = ZINC09002356
REMARK  8 active torsions:
REMARK  status: ('A' for Active; 'I' for Inactive)
REMARK    1  A    between atoms: C_1  and  C_2
REMARK    2  A    between atoms: C_7  and  C_8
REMARK    3  A    between atoms: N_11  and  C_12
REMARK    4  A    between atoms: C_12  and  C_14
REMARK    5  A    between atoms: C_16  and  C_20
REMARK    6  A    between atoms: N_17  and  C_19
REMARK    7  A    between atoms: N_21  and  C_22
REMARK    8  A    between atoms: C_22  and  C_23
REMARK                            x       y       z     vdW  Elec       q    Type
REMARK                         _______ _______ _______ _____ _____    ______ ____
ROOT
ATOM      1  C   UNL     1      -8.311   5.347   9.758  0.00  0.00    +0.044 C 
ATOM      2  C   UNL     1      -7.898   4.870   8.390  0.00  0.00    -0.046 A 
ATOM      3  C   UNL     1      -6.575   4.585   8.146  0.00  0.00    +0.030 A 
ATOM      4  C   UNL     1      -6.159   4.139   6.882  0.00  0.00    +0.059 A 
ATOM      5  C   UNL     1      -7.153   4.002   5.901  0.00  0.00    +0.039 A 
ATOM      6  C   UNL     1      -8.475   4.287   6.147  0.00  0.00    +0.020 A 
ATOM      7  C   UNL     1      -8.857   4.725   7.402  0.00  0.00    -0.046 A 
ATOM      8  C   UNL     1     -10.302   5.043   7.691  0.00  0.00    +0.044 C 
ATOM      9  S   UNL     1      -6.250   3.431   4.483  0.00  0.00    -0.052 S 
ATOM     10  C   UNL     1      -4.667   3.391   5.189  0.00  0.00    +0.168 A 
ATOM     11  N   UNL     1      -3.520   3.036   4.621  0.00  0.00    -0.151 NA
ATOM     12  N   UNL     1      -4.883   3.805   6.467  0.00  0.00    -0.310 N 
ENDROOT
BRANCH  11  13
ATOM     13  C   UNL     1      -3.500   2.647   3.341  0.00  0.00    +0.290 C 
ATOM     14  O   UNL     1      -4.535   2.619   2.697  0.00  0.00    -0.266 OA
BRANCH  13  15
ATOM     15  C   UNL     1      -2.222   2.252   2.708  0.00  0.00    +0.149 A 
ATOM     16  C   UNL     1      -2.042   1.827   1.371  0.00  0.00    +0.057 A 
ATOM     17  C   UNL     1      -0.718   1.572   1.248  0.00  0.00    +0.037 A 
ATOM     18  N   UNL     1      -0.147   1.840   2.442  0.00  0.00    -0.271 N 
ATOM     19  N   UNL     1      -1.036   2.235   3.280  0.00  0.00    -0.167 NA
ATOM     20  C   UNL     1       1.281   1.702   2.737  0.00  0.00    +0.172 C 
ATOM     21  C   UNL     1      -0.013   1.086   0.008  0.00  0.00    +0.065 C 
ENDBRANCH  13  15
ENDBRANCH  11  13
BRANCH  12  22
ATOM     22  C   UNL     1      -3.761   3.901   7.404  0.00  0.00    +0.212 C 
BRANCH  22  23
ATOM     23  C   UNL     1      -3.172   5.248   7.329  0.00  0.00    -0.084 C 
ATOM     24  C   UNL     1      -2.703   6.322   7.269  0.00  0.00    +0.005 C 
ENDBRANCH  22  23
ENDBRANCH  12  22
TORSDOF 4
