REMARK  Name = ZINC12770368
REMARK  5 active torsions:
REMARK  status: ('A' for Active; 'I' for Inactive)
REMARK    1  A    between atoms: C_1  and  C_2
REMARK    2  A    between atoms: C_5  and  C_11
REMARK    3  A    between atoms: N_19  and  C_20
REMARK    4  A    between atoms: C_20  and  C_21
REMARK    5  A    between atoms: C_20  and  C_22
REMARK                            x       y       z     vdW  Elec       q    Type
REMARK                         _______ _______ _______ _____ _____    ______ ____
ROOT
ATOM      1  C   UNL     1       4.750   3.409   0.028  0.00  0.00    +0.265 C 
ATOM      2  O   UNL     1       4.862   2.642   0.963  0.00  0.00    -0.267 OA
ATOM      3  N   UNL     1       5.539   4.499  -0.048  0.00  0.00    -0.268 N 
ATOM      4  C   UNL     1       4.983   5.750  -0.009  0.00  0.00    +0.096 A 
ATOM      5  C   UNL     1       5.757   6.850  -0.082  0.00  0.00    +0.018 A 
ATOM      6  C   UNL     1       7.154   6.733  -0.201  0.00  0.00    +0.005 A 
ATOM      7  C   UNL     1       7.728   5.504  -0.243  0.00  0.00    +0.046 A 
ATOM      8  C   UNL     1       6.907   4.353  -0.159  0.00  0.00    +0.136 A 
ATOM      9  N   UNL     1       7.444   3.153  -0.192  0.00  0.00    -0.264 NA
ENDROOT
BRANCH   1  14
ATOM     10  C   UNL     1       2.469   5.712  -4.836  0.00  0.00    +0.070 C 
ATOM     11  C   UNL     1       2.063   4.392  -4.233  0.00  0.00    +0.090 A 
ATOM     12  C   UNL     1       2.597   3.765  -3.020  0.00  0.00    +0.064 A 
ATOM     13  C   UNL     1       3.552   4.069  -2.062  0.00  0.00    +0.030 A 
ATOM     14  C   UNL     1       3.750   3.148  -1.026  0.00  0.00    +0.059 A 
ATOM     15  C   UNL     1       2.985   1.975  -1.005  0.00  0.00    +0.128 A 
ATOM     16  N   UNL     1       2.089   1.722  -1.933  0.00  0.00    -0.218 NA
ATOM     17  C   UNL     1       1.864   2.561  -2.932  0.00  0.00    +0.259 A 
ATOM     18  O   UNL     1       1.040   2.575  -3.994  0.00  0.00    -0.334 OA
ATOM     19  N   UNL     1       1.160   3.567  -4.673  0.00  0.00    -0.080 NA
ENDBRANCH   1  14
BRANCH   9  20
ATOM     20  C   UNL     1       8.901   3.002  -0.171  0.00  0.00    +0.101 C 
ATOM     21  C   UNL     1       9.322   2.299   1.121  0.00  0.00    +0.032 C 
ATOM     22  C   UNL     1       9.344   2.167  -1.373  0.00  0.00    +0.032 C 
ENDBRANCH   9  20
TORSDOF 2
