REMARK  Name = ZINC66342743
REMARK  4 active torsions:
REMARK  status: ('A' for Active; 'I' for Inactive)
REMARK    1  A    between atoms: C_6  and  N_7
REMARK    2  A    between atoms: C_10  and  C_13
REMARK    3  A    between atoms: C_13  and  N_14
REMARK    4  A    between atoms: C_21  and  O_24
REMARK                            x       y       z     vdW  Elec       q    Type
REMARK                         _______ _______ _______ _____ _____    ______ ____
ROOT
ATOM      1  C   UNL     1      -3.112  -3.717  -0.916  0.00  0.00    +0.110 C 
ENDROOT
BRANCH   1   2
ATOM      2  N   UNL     1      -4.548  -4.005  -0.910  0.00  0.00    -0.299 N 
ATOM      3  C   UNL     1      -5.034  -5.025  -1.646  0.00  0.00    +0.302 C 
ATOM      4  O   UNL     1      -4.296  -5.647  -2.385  0.00  0.00    -0.253 OA
ATOM      5  N   UNL     1      -6.338  -5.355  -1.562  0.00  0.00    -0.283 N 
ATOM      6  C   UNL     1      -6.858  -6.535  -2.266  0.00  0.00    +0.109 C 
ATOM      7  C   UNL     1      -7.593  -7.427  -1.260  0.00  0.00    +0.022 C 
ATOM      8  C   UNL     1      -8.662  -6.603  -0.539  0.00  0.00    +0.034 C 
ATOM      9  C   UNL     1      -7.996  -5.457   0.226  0.00  0.00    +0.132 C 
ATOM     10  C   UNL     1      -7.265  -4.546  -0.758  0.00  0.00    +0.140 C 
ATOM     11  H   UNL     1      -5.150  -3.463  -0.377  0.00  0.00    +0.150 HD
BRANCH   9  12
ATOM     12  O   UNL     1      -8.992  -4.707   0.924  0.00  0.00    -0.390 OA
ATOM     13  H   UNL     1      -8.640  -3.963   1.433  0.00  0.00    +0.210 HD
ENDBRANCH   9  12
ENDBRANCH   1   2
BRANCH   1  17
ATOM     14  N   UNL     1      -1.197  -0.724   0.014  0.00  0.00    -0.330 N 
ATOM     15  C   UNL     1      -2.548  -0.134   0.023  0.00  0.00    +0.105 C 
ATOM     16  C   UNL     1      -3.462  -1.228  -0.585  0.00  0.00    +0.025 C 
ATOM     17  C   UNL     1      -2.828  -2.520  -0.006  0.00  0.00    +0.025 C 
ATOM     18  C   UNL     1      -1.321  -2.189   0.007  0.00  0.00    +0.110 C 
BRANCH  14  24
ATOM     19  C   UNL     1      -0.013   1.381   0.015  0.00  0.00    +0.026 A 
ATOM     20  C   UNL     1       1.174   2.086   0.008  0.00  0.00    +0.040 A 
ATOM     21  C   UNL     1       2.382   1.409  -0.006  0.00  0.00    +0.124 A 
ATOM     22  C   UNL     1       2.402   0.024  -0.014  0.00  0.00    +0.040 A 
ATOM     23  C   UNL     1       1.217  -0.685  -0.008  0.00  0.00    +0.026 A 
ATOM     24  C   UNL     1       0.004  -0.008   0.007  0.00  0.00    +0.030 A 
ATOM     25  F   UNL     1       3.543   2.100  -0.012  0.00  0.00    -0.205 F 
ENDBRANCH  14  24
ENDBRANCH   1  17
TORSDOF 4
