REMARK  Name = ZINC03184575
REMARK  11 active torsions:
REMARK  status: ('A' for Active; 'I' for Inactive)
REMARK    1  A    between atoms: C_1  and  C_2
REMARK    2  A    between atoms: C_4  and  C_16
REMARK    3  A    between atoms: C_5  and  C_15
REMARK    4  A    between atoms: N_6  and  C_7
REMARK    5  A    between atoms: N_17  and  C_18
REMARK    6  A    between atoms: C_18  and  C_20
REMARK    7  A    between atoms: C_18  and  C_22
REMARK    8  A    between atoms: C_20  and  O_21
REMARK    9  A    between atoms: C_22  and  C_24
REMARK   10  A    between atoms: C_22  and  O_31
REMARK   11  A    between atoms: C_28  and  O_30
REMARK                            x       y       z     vdW  Elec       q    Type
REMARK                         _______ _______ _______ _____ _____    ______ ____
ROOT
ATOM      1  C   UNK A   0       0.899   7.831  -2.203  0.00  0.00    +0.115 C 
ATOM      2  N   UNK A   1      -0.042   7.378  -1.436  0.00  0.00    -0.282 NA
ENDROOT
BRANCH   1   6
ATOM      3  C   UNK A   0       2.909  12.354  -3.441  0.00  0.00    +0.064 C 
ATOM      4  C   UNK A   0       2.065  11.266  -2.829  0.00  0.00    +0.022 A 
ATOM      5  C   UNK A   0       2.183   9.950  -3.080  0.00  0.00    +0.032 A 
ATOM      6  C   UNK A   0       1.163   9.277  -2.269  0.00  0.00    +0.014 A 
ATOM      7  C   UNK A   0       0.503  10.264  -1.590  0.00  0.00    +0.030 A 
ATOM      8  N   UNK A   0       1.054  11.456  -1.929  0.00  0.00    -0.316 N 
ATOM      9  C   UNK A   0      -0.640  10.062  -0.629  0.00  0.00    +0.064 C 
BRANCH   8  10
ATOM     10  C   UNK A   0       0.644  12.701  -1.433  0.00  0.00    +0.066 A 
ATOM     11  C   UNK A   0      -0.344  13.421  -2.090  0.00  0.00    +0.047 A 
ATOM     12  C   UNK A   0      -0.747  14.648  -1.597  0.00  0.00    +0.043 A 
ATOM     13  C   UNK A   0      -0.165  15.160  -0.451  0.00  0.00    +0.021 A 
ATOM     14  C   UNK A   0       0.820  14.445   0.206  0.00  0.00    +0.023 A 
ATOM     15  C   UNK A   0       1.222  13.215  -0.279  0.00  0.00    +0.065 A 
ATOM     16 CL   UNK A   0       2.454  12.315   0.551  0.00  0.00    -0.081 Cl
ATOM     17 CL   UNK A   0      -1.983  15.549  -2.419  0.00  0.00    -0.083 Cl
ENDBRANCH   8  10
ENDBRANCH   1   6
BRANCH   2  18
ATOM     18  C   UNK A   1      -0.304   5.939  -1.371  0.00  0.00    +0.163 C 
BRANCH  18  19
ATOM     19  C   UNK A   1      -1.743   5.662  -1.813  0.00  0.00    +0.185 C 
BRANCH  19  20
ATOM     20  O   UNK A   1      -2.650   6.267  -0.889  0.00  0.00    -0.393 OA
ATOM     21  H   UNK A   1      -3.582   6.132  -1.107  0.00  0.00    +0.209 HD
ENDBRANCH  19  20
ENDBRANCH  18  19
BRANCH  18  22
ATOM     22  C   UNK A   1      -0.109   5.449   0.066  0.00  0.00    +0.171 C 
BRANCH  22  23
ATOM     23  C   UNK A   1       1.287   5.782   0.525  0.00  0.00    -0.014 A 
ATOM     24  C   UNK A   1       2.348   4.981   0.145  0.00  0.00    +0.006 A 
ATOM     25  C   UNK A   1       3.631   5.287   0.559  0.00  0.00    +0.004 A 
ATOM     26  C   UNK A   1       3.855   6.388   1.364  0.00  0.00    +0.045 A 
ATOM     27  C   UNK A   1       2.792   7.192   1.747  0.00  0.00    +0.117 A 
ATOM     28  C   UNK A   1       1.506   6.887   1.325  0.00  0.00    +0.051 A 
BRANCH  27  29
ATOM     29  O   UNK A   1       3.009   8.278   2.534  0.00  0.00    -0.507 OA
ATOM     30  H   UNK A   1       3.190   9.091   2.042  0.00  0.00    +0.292 HD
ENDBRANCH  27  29
ENDBRANCH  22  23
BRANCH  22  31
ATOM     31  O   UNK A   1      -0.303   4.035   0.118  0.00  0.00    -0.385 OA
ATOM     32  H   UNK A   1       0.241   3.540  -0.510  0.00  0.00    +0.210 HD
ENDBRANCH  22  31
ENDBRANCH  18  22
ENDBRANCH   2  18
TORSDOF 9
