REMARK  Name = ZINC59427241
REMARK  7 active torsions:
REMARK  status: ('A' for Active; 'I' for Inactive)
REMARK    1  A    between atoms: C_1  and  C_2
REMARK    2  A    between atoms: C_4  and  C_17
REMARK    3  A    between atoms: C_5  and  C_16
REMARK    4  A    between atoms: N_6  and  C_7
REMARK    5  A    between atoms: C_11  and  N_13
REMARK    6  A    between atoms: N_18  and  N_19
REMARK    7  A    between atoms: C_20  and  C_22
REMARK                            x       y       z     vdW  Elec       q    Type
REMARK                         _______ _______ _______ _____ _____    ______ ____
ROOT
ATOM      1  C   UNL     1      -0.018   1.503   0.010  0.00  0.00    +0.064 C 
ATOM      2  C   UNL     1       0.002  -0.004   0.002  0.00  0.00    +0.022 A 
ATOM      3  C   UNL     1       0.008  -0.781  -1.097  0.00  0.00    +0.032 A 
ATOM      4  C   UNL     1       0.029  -2.170  -0.628  0.00  0.00    +0.016 A 
ATOM      5  C   UNL     1       0.034  -2.113   0.736  0.00  0.00    +0.030 A 
ATOM      6  N   UNL     1       0.024  -0.804   1.109  0.00  0.00    -0.317 N 
ATOM      7  C   UNL     1       0.054  -3.296   1.669  0.00  0.00    +0.064 C 
ENDROOT
BRANCH   6   8
ATOM      8  C   UNL     1       0.030  -0.345   2.433  0.00  0.00    +0.049 A 
ATOM      9  C   UNL     1       1.133  -0.577   3.244  0.00  0.00    +0.026 A 
ATOM     10  C   UNL     1       1.136  -0.122   4.548  0.00  0.00    +0.004 A 
ATOM     11  C   UNL     1       0.042   0.562   5.046  0.00  0.00    +0.033 A 
ATOM     12  C   UNL     1      -1.057   0.794   4.241  0.00  0.00    +0.128 A 
ATOM     13  C   UNL     1      -1.064   0.347   2.934  0.00  0.00    +0.058 A 
BRANCH  12  14
ATOM     14  N   UNL     1      -2.226   1.527   4.778  0.00  0.00    +0.056 N 
ATOM     15  O   UNL     1      -2.219   1.922   5.921  0.00  0.00    -0.126 OA
ATOM     16  O   UNL     1      -3.188   1.730   4.074  0.00  0.00    -0.126 OA
ENDBRANCH  12  14
ENDBRANCH   6   8
BRANCH   4  17
ATOM     17  C   UNL     1       0.042  -3.384  -1.463  0.00  0.00    +0.140 C 
ATOM     18  N   UNL     1       0.059  -4.556  -0.904  0.00  0.00    -0.187 NA
BRANCH  18  19
ATOM     19  N   UNL     1       0.071  -5.711  -1.697  0.00  0.00    -0.203 N 
ATOM     20  C   UNL     1       0.090  -6.927  -1.117  0.00  0.00    +0.263 C 
ATOM     21  O   UNL     1       0.096  -7.022   0.096  0.00  0.00    -0.268 OA
ATOM     22  H   UNL     1       0.066  -5.635  -2.664  0.00  0.00    +0.178 HD
BRANCH  20  23
ATOM     23  C   UNL     1       0.102  -8.145  -1.954  0.00  0.00    +0.039 A 
ATOM     24  C   UNL     1       0.101  -8.039  -3.346  0.00  0.00    +0.013 A 
ATOM     25  C   UNL     1       0.113  -9.180  -4.122  0.00  0.00    +0.002 A 
ATOM     26  C   UNL     1       0.126 -10.427  -3.523  0.00  0.00    +0.015 A 
ATOM     27  C   UNL     1       0.127 -10.540  -2.144  0.00  0.00    +0.019 A 
ATOM     28  C   UNL     1       0.121  -9.406  -1.356  0.00  0.00    +0.028 A 
ATOM     29 BR   UNL     1       0.144 -12.250  -1.337  0.00  0.00    -0.050 Br
ENDBRANCH  20  23
ENDBRANCH  18  19
ENDBRANCH   4  17
TORSDOF 5
