REMARK  Name = ZINC40334735
REMARK  5 active torsions:
REMARK  status: ('A' for Active; 'I' for Inactive)
REMARK    1  A    between atoms: C_1  and  C_2
REMARK    2  A    between atoms: C_2  and  C_3
REMARK    3  A    between atoms: N_6  and  S_9
REMARK    4  A    between atoms: S_9  and  C_12
REMARK    5  A    between atoms: C_16  and  N_18
REMARK                            x       y       z     vdW  Elec       q    Type
REMARK                         _______ _______ _______ _____ _____    ______ ____
ROOT
ATOM      1  S   UNL     1      -4.331  -3.141   2.066  0.00  0.00    +0.061 S 
ATOM      2  O   UNL     1      -3.713  -4.408   1.888  0.00  0.00    -0.153 OA
ATOM      3  O   UNL     1      -4.405  -2.501   3.332  0.00  0.00    -0.153 OA
ENDROOT
BRANCH   1   4
ATOM      4  C   UNL     1      -5.987  -3.303   1.486  0.00  0.00    +0.107 A 
ATOM      5  C   UNL     1      -6.968  -2.445   1.950  0.00  0.00    +0.030 A 
ATOM      6  C   UNL     1      -8.269  -2.569   1.498  0.00  0.00    +0.024 A 
ATOM      7  C   UNL     1      -8.593  -3.551   0.581  0.00  0.00    +0.062 A 
ATOM      8  C   UNL     1      -7.609  -4.414   0.113  0.00  0.00    +0.045 A 
ATOM      9  C   UNL     1      -6.303  -4.283   0.565  0.00  0.00    +0.052 A 
ATOM     10 CL   UNL     1     -10.227  -3.707   0.015  0.00  0.00    -0.082 Cl
BRANCH   8  11
ATOM     11  N   UNL     1      -7.933  -5.408  -0.814  0.00  0.00    -0.357 N 
ATOM     12  H   UNL     1      -8.845  -5.497  -1.132  0.00  0.00    +0.142 HD
ATOM     13  H   UNL     1      -7.245  -6.010  -1.140  0.00  0.00    +0.142 HD
ENDBRANCH   8  11
ENDBRANCH   1   4
BRANCH   1  17
ATOM     14  C   UNL     1      -1.433  -0.534   0.013  0.00  0.00    -0.009 C 
ATOM     15  C   UNL     1      -2.111  -0.144   1.329  0.00  0.00    +0.020 C 
ATOM     16  C   UNL     1      -3.558  -0.645   1.321  0.00  0.00    +0.110 C 
ATOM     17  N   UNL     1      -3.557  -2.089   1.048  0.00  0.00    -0.177 NA
ATOM     18  C   UNL     1      -2.855  -2.582  -0.145  0.00  0.00    +0.110 C 
ATOM     19  C   UNL     1      -1.415  -2.058  -0.121  0.00  0.00    +0.020 C 
BRANCH  14  21
ATOM     20  C   UNL     1      -0.019   1.526   0.010  0.00  0.00    +0.004 C 
ATOM     21  C   UNL     1       0.002  -0.004   0.002  0.00  0.00    +0.000 C 
ENDBRANCH  14  21
ENDBRANCH   1  17
TORSDOF 4
