REMARK  Name = ZINC22366898
REMARK  10 active torsions:
REMARK  status: ('A' for Active; 'I' for Inactive)
REMARK    1  A    between atoms: C_1  and  C_2
REMARK    2  A    between atoms: C_5  and  C_8
REMARK    3  A    between atoms: N_13  and  C_15
REMARK    4  A    between atoms: C_15  and  N_16
REMARK    5  A    between atoms: N_16  and  C_17
REMARK    6  A    between atoms: N_16  and  C_18
REMARK    7  A    between atoms: C_18  and  C_19
REMARK    8  A    between atoms: C_22  and  N_25
REMARK    9  A    between atoms: N_25  and  C_26
REMARK   10  A    between atoms: N_25  and  C_27
REMARK                            x       y       z     vdW  Elec       q    Type
REMARK                         _______ _______ _______ _____ _____    ______ ____
ROOT
ATOM      1  C   UNL     1       0.002  -0.004   0.002  0.00  0.00    +0.160 A 
ATOM      2  N   UNL     1      -1.108  -0.826   0.014  0.00  0.00    -0.317 N 
ATOM      3  H   UNL     1      -2.116  -0.387   0.034  0.00  0.00    +0.169 HD
ATOM      4  C   UNL     1      -0.686  -2.106  -0.003  0.00  0.00    +0.174 A 
ATOM      5  S   UNL     1      -1.682  -3.498  -0.001  0.00  0.00    -0.012 S 
ATOM      6  N   UNL     1       0.663  -2.092  -0.015  0.00  0.00    -0.257 N 
ATOM      7  N   UNL     1       1.070  -0.751  -0.012  0.00  0.00    -0.153 NA
ENDROOT
BRANCH   1  12
ATOM      8  C   UNL     1      -0.076   5.751   0.033  0.00  0.00    +0.044 C 
ATOM      9  C   UNL     1      -0.056   4.244   0.025  0.00  0.00    -0.050 A 
ATOM     10  C   UNL     1       1.153   3.572   0.010  0.00  0.00    +0.004 A 
ATOM     11  C   UNL     1       1.179   2.192   0.003  0.00  0.00    +0.012 A 
ATOM     12  C   UNL     1      -0.018   1.476   0.010  0.00  0.00    +0.019 A 
ATOM     13  C   UNL     1      -1.234   2.159   0.020  0.00  0.00    +0.012 A 
ATOM     14  C   UNL     1      -1.246   3.539   0.033  0.00  0.00    +0.004 A 
ENDBRANCH   1  12
BRANCH   6  15
ATOM     15  C   UNL     1       1.541  -3.264  -0.029  0.00  0.00    +0.072 C 
BRANCH  15  16
ATOM     16  N   UNL     1       1.847  -3.663   1.351  0.00  0.00    +0.394 N 
ATOM     17  C   UNL     1       2.647  -2.635   2.031  0.00  0.00    -0.093 C 
ATOM     18  H   UNL     1       0.895  -3.764   1.893  0.00  0.00    -0.079 HD
BRANCH  16  19
ATOM     19  C   UNL     1       2.526  -4.965   1.385  0.00  0.00    -0.041 C 
BRANCH  19  20
ATOM     20  C   UNL     1       2.604  -5.455   2.808  0.00  0.00    -0.064 A 
ATOM     21  C   UNL     1       3.697  -5.131   3.590  0.00  0.00    +0.003 A 
ATOM     22  C   UNL     1       3.769  -5.573   4.896  0.00  0.00    +0.023 A 
ATOM     23  C   UNL     1       2.747  -6.354   5.421  0.00  0.00    +0.029 A 
ATOM     24  C   UNL     1       1.652  -6.682   4.630  0.00  0.00    +0.023 A 
ATOM     25  C   UNL     1       1.584  -6.232   3.327  0.00  0.00    +0.003 A 
BRANCH  23  26
ATOM     26  N   UNL     1       2.818  -6.807   6.740  0.00  0.00    -0.336 N 
ATOM     27  C   UNL     1       1.739  -7.630   7.292  0.00  0.00    +0.129 C 
ATOM     28  C   UNL     1       3.973  -6.460   7.572  0.00  0.00    +0.129 C 
ENDBRANCH  23  26
ENDBRANCH  19  20
ENDBRANCH  16  19
ENDBRANCH  15  16
ENDBRANCH   6  15
TORSDOF 6
