REMARK  Name = ZINC67460539
REMARK  7 active torsions:
REMARK  status: ('A' for Active; 'I' for Inactive)
REMARK    1  A    between atoms: C_1  and  C_2
REMARK    2  A    between atoms: C_2  and  C_4
REMARK    3  A    between atoms: C_2  and  N_10
REMARK    4  A    between atoms: C_4  and  N_5
REMARK    5  A    between atoms: C_16  and  C_19
REMARK    6  A    between atoms: C_19  and  C_21
REMARK    7  A    between atoms: C_19  and  O_28
REMARK                            x       y       z     vdW  Elec       q    Type
REMARK                         _______ _______ _______ _____ _____    ______ ____
ROOT
ATOM      1  N   UNL     1      -1.466  -0.303  -2.311  0.00  0.00    -0.295 N 
ATOM      2  C   UNL     1      -2.051  -0.643  -1.145  0.00  0.00    +0.302 C 
ATOM      3  O   UNL     1      -1.409  -0.615  -0.112  0.00  0.00    -0.253 OA
ATOM      4  N   UNL     1      -3.346  -1.013  -1.123  0.00  0.00    -0.286 N 
ATOM      5  C   UNL     1      -4.031  -1.269   0.151  0.00  0.00    +0.109 C 
ATOM      6  C   UNL     1      -4.665  -2.663   0.099  0.00  0.00    +0.025 C 
ATOM      7  C   UNL     1      -5.571  -2.761  -1.131  0.00  0.00    +0.025 C 
ATOM      8  C   UNL     1      -4.736  -2.562  -2.398  0.00  0.00    +0.025 C 
ATOM      9  C   UNL     1      -4.103  -1.162  -2.374  0.00  0.00    +0.109 C 
ATOM     10  H   UNL     1      -1.956  -0.394  -3.143  0.00  0.00    +0.151 HD
ENDROOT
BRANCH   1  12
ATOM     11  C   UNL     1       0.885  -0.974  -2.342  0.00  0.00    +0.029 C 
ATOM     12  C   UNL     1      -0.092   0.203  -2.321  0.00  0.00    +0.091 C 
BRANCH  12  13
ATOM     13  C   UNL     1       0.124   1.068  -3.564  0.00  0.00    +0.144 C 
BRANCH  13  14
ATOM     14  N   UNL     1      -0.727   2.258  -3.485  0.00  0.00    -0.337 N 
ATOM     15  C   UNL     1      -2.008   2.373  -3.954  0.00  0.00    +0.104 A 
ATOM     16  C   UNL     1      -2.414   3.626  -3.675  0.00  0.00    +0.101 A 
ATOM     17  N   UNL     1      -1.408   4.260  -3.053  0.00  0.00    -0.352 N 
ATOM     18  C   UNL     1      -0.396   3.444  -2.931  0.00  0.00    +0.173 A 
ATOM     19  H   UNL     1      -1.430   5.177  -2.739  0.00  0.00    +0.166 HD
ENDBRANCH  13  14
ENDBRANCH  12  13
ENDBRANCH   1  12
BRANCH   7  20
ATOM     20  C   UNL     1      -6.233  -4.139  -1.168  0.00  0.00    +0.148 C 
BRANCH  20  21
ATOM     21  C   UNL     1      -7.125  -4.236  -2.379  0.00  0.00    -0.019 A 
ATOM     22  C   UNL     1      -8.383  -3.664  -2.358  0.00  0.00    +0.007 A 
ATOM     23  C   UNL     1      -9.201  -3.752  -3.469  0.00  0.00    +0.020 A 
ATOM     24  C   UNL     1      -8.760  -4.413  -4.602  0.00  0.00    +0.041 A 
ATOM     25  C   UNL     1      -7.501  -4.985  -4.622  0.00  0.00    +0.020 A 
ATOM     26  C   UNL     1      -6.681  -4.891  -3.513  0.00  0.00    +0.007 A 
ATOM     27 CL   UNL     1      -9.787  -4.525  -5.997  0.00  0.00    -0.084 Cl
ENDBRANCH  20  21
BRANCH  20  28
ATOM     28  O   UNL     1      -7.014  -4.324   0.014  0.00  0.00    -0.387 OA
ATOM     29  H   UNL     1      -7.719  -3.672   0.126  0.00  0.00    +0.210 HD
ENDBRANCH  20  28
ENDBRANCH   7  20
TORSDOF 6
