REMARK  Name = ZINC61988470
REMARK  3 active torsions:
REMARK  status: ('A' for Active; 'I' for Inactive)
REMARK    1  A    between atoms: C_1  and  N_2
REMARK    2  A    between atoms: C_5  and  N_8
REMARK    3  A    between atoms: N_8  and  C_9
REMARK                            x       y       z     vdW  Elec       q    Type
REMARK                         _______ _______ _______ _____ _____    ______ ____
ROOT
ATOM      1  C   UNL     1       0.048  -3.626   3.204  0.00  0.00    +0.044 A 
ATOM      2  C   UNL     1       0.190  -4.641   2.270  0.00  0.00    +0.051 A 
ATOM      3  C   UNL     1       0.188  -5.964   2.683  0.00  0.00    +0.069 A 
ATOM      4  C   UNL     1       0.044  -6.271   4.038  0.00  0.00    +0.068 A 
ATOM      5  C   UNL     1      -0.097  -5.252   4.968  0.00  0.00    +0.045 A 
ATOM      6  C   UNL     1      -0.090  -3.934   4.553  0.00  0.00    +0.041 A 
ATOM      7 BR   UNL     1      -0.275  -2.545   5.823  0.00  0.00    -0.048 Br
ATOM      8  N   UNL     1       0.080  -7.662   4.142  0.00  0.00    -0.306 N 
ATOM      9  H   UNL     1       0.003  -8.172   4.964  0.00  0.00    +0.170 HD
ATOM     10  C   UNL     1       0.238  -8.175   2.908  0.00  0.00    +0.325 A 
ATOM     11  O   UNL     1       0.309  -9.361   2.646  0.00  0.00    -0.247 OA
ATOM     12  N   UNL     1       0.307  -7.176   2.007  0.00  0.00    -0.306 N 
ATOM     13  H   UNL     1       0.420  -7.283   1.049  0.00  0.00    +0.170 HD
ENDROOT
BRANCH   1  14
ATOM     14  N   UNL     1       0.050  -2.290   2.789  0.00  0.00    -0.342 N 
ATOM     15  H   UNL     1      -0.045  -1.579   3.443  0.00  0.00    +0.146 HD
BRANCH  14  20
ATOM     16  C   UNL     1      -0.018   1.465   0.010  0.00  0.00    -0.096 C 
ATOM     17  N   UNL     1       0.002  -0.004   0.002  0.00  0.00    +0.379 N 
ATOM     18  C   UNL     1      -1.375  -0.543   0.139  0.00  0.00    -0.077 C 
ATOM     19  C   UNL     1      -1.180  -1.979   0.672  0.00  0.00    +0.002 C 
ATOM     20  C   UNL     1       0.196  -1.964   1.369  0.00  0.00    +0.052 C 
ATOM     21  C   UNL     1       0.716  -0.521   1.198  0.00  0.00    -0.057 C 
ATOM     22  H   UNL     1       0.435  -0.346  -0.843  0.00  0.00    -0.082 HD
ENDBRANCH  14  20
ENDBRANCH   1  14
TORSDOF 2
