REMARK  Name = ZINC37669247
REMARK  3 active torsions:
REMARK  status: ('A' for Active; 'I' for Inactive)
REMARK    1  A    between atoms: C_3  and  N_8
REMARK    2  A    between atoms: C_9  and  C_11
REMARK    3  A    between atoms: C_16  and  N_17
REMARK                            x       y       z     vdW  Elec       q    Type
REMARK                         _______ _______ _______ _____ _____    ______ ____
ROOT
ATOM      1  N   UNL     1       3.604   2.057  -0.078  0.00  0.00    -0.281 N 
ATOM      2  C   UNL     1       4.789   1.423   0.031  0.00  0.00    +0.251 C 
ATOM      3  O   UNL     1       4.831   0.208   0.030  0.00  0.00    -0.270 OA
ATOM      4  H   UNL     1       3.575   3.024  -0.139  0.00  0.00    +0.155 HD
ENDROOT
BRANCH   1   7
ATOM      5  C   UNL     1       0.098   1.095   0.467  0.00  0.00    +0.003 A 
ATOM      6  C   UNL     1       1.269   1.826   0.493  0.00  0.00    +0.023 A 
ATOM      7  C   UNL     1       2.417   1.319  -0.103  0.00  0.00    +0.035 A 
ATOM      8  C   UNL     1       2.382   0.077  -0.725  0.00  0.00    +0.038 A 
ATOM      9  C   UNL     1       1.206  -0.649  -0.748  0.00  0.00    +0.020 A 
ATOM     10  C   UNL     1       0.065  -0.140  -0.153  0.00  0.00    +0.015 A 
ATOM     11 BR   UNL     1       1.157  -2.340  -1.594  0.00  0.00    -0.050 Br
ENDBRANCH   1   7
BRANCH   2  12
ATOM     12  C   UNL     1       6.037   2.206   0.152  0.00  0.00    +0.070 A 
ATOM     13  C   UNL     1       6.358   3.166  -0.809  0.00  0.00    +0.053 A 
ATOM     14  C   UNL     1       7.526   3.894  -0.690  0.00  0.00    +0.124 A 
ATOM     15  C   UNL     1       8.377   3.671   0.381  0.00  0.00    +0.040 A 
ATOM     16  C   UNL     1       8.063   2.721   1.335  0.00  0.00    +0.036 A 
ATOM     17  C   UNL     1       6.897   1.992   1.230  0.00  0.00    +0.138 A 
ATOM     18  F   UNL     1       7.839   4.824  -1.619  0.00  0.00    -0.205 F 
BRANCH  17  19
ATOM     19  N   UNL     1       6.560   0.980   2.257  0.00  0.00    +0.057 N 
ATOM     20  O   UNL     1       7.358   0.711   3.125  0.00  0.00    -0.126 OA
ATOM     21  O   UNL     1       5.488   0.422   2.227  0.00  0.00    -0.126 OA
ENDBRANCH  17  19
ENDBRANCH   2  12
TORSDOF 3
