REMARK  Name = ZINC40801603
REMARK  7 active torsions:
REMARK  status: ('A' for Active; 'I' for Inactive)
REMARK    1  A    between atoms: C_1  and  C_2
REMARK    2  A    between atoms: C_11  and  C_14
REMARK    3  A    between atoms: C_14  and  C_15
REMARK    4  A    between atoms: N_17  and  C_18
REMARK    5  A    between atoms: C_19  and  C_27
REMARK    6  A    between atoms: N_29  and  C_30
REMARK    7  A    between atoms: C_30  and  C_31
REMARK                            x       y       z     vdW  Elec       q    Type
REMARK                         _______ _______ _______ _____ _____    ______ ____
ROOT
ATOM      1  C   UNL     1      -2.446  -5.515  -0.389  0.00  0.00    +0.222 C 
ATOM      2  O   UNL     1      -1.584  -6.061  -1.045  0.00  0.00    -0.275 OA
ATOM      3  N   UNL     1      -3.736  -5.599  -0.769  0.00  0.00    -0.279 N 
ATOM      4  H   UNL     1      -4.425  -5.162  -0.244  0.00  0.00    +0.155 HD
ENDROOT
BRANCH   3   5
ATOM      5  C   UNL     1      -4.079  -6.310  -1.909  0.00  0.00    +0.084 A 
ATOM      6  C   UNL     1      -5.341  -6.497  -2.450  0.00  0.00    +0.069 A 
ATOM      7  C   UNL     1      -5.433  -7.290  -3.663  0.00  0.00    -0.023 A 
ATOM      8  C   UNL     1      -4.246  -7.752  -4.113  0.00  0.00    -0.004 A 
ATOM      9  S   UNL     1      -3.058  -7.135  -2.957  0.00  0.00    -0.077 S 
ATOM     10  C   UNL     1      -4.011  -8.593  -5.329  0.00  0.00    +0.043 C 
ATOM     11  C   UNL     1      -5.359  -9.173  -5.782  0.00  0.00    +0.005 C 
ATOM     12  C   UNL     1      -6.395  -8.046  -5.820  0.00  0.00    +0.005 C 
ATOM     13  C   UNL     1      -6.731  -7.599  -4.395  0.00  0.00    +0.037 C 
BRANCH   6  14
ATOM     14  C   UNL     1      -6.534  -5.919  -1.823  0.00  0.00    +0.247 C 
ATOM     15  O   UNL     1      -6.910  -4.806  -2.142  0.00  0.00    -0.270 OA
ATOM     16  N   UNL     1      -7.213  -6.619  -0.892  0.00  0.00    -0.308 N 
ATOM     17  H   UNL     1      -6.912  -7.506  -0.638  0.00  0.00    +0.149 HD
BRANCH  16  18
ATOM     18  C   UNL     1      -8.404  -6.042  -0.266  0.00  0.00    +0.131 C 
BRANCH  18  19
ATOM     19  C   UNL     1      -8.972  -7.019   0.730  0.00  0.00    -0.016 C 
ATOM     20  C   UNL     1      -9.164  -6.652   1.973  0.00  0.00    +0.005 C 
ENDBRANCH  18  19
ENDBRANCH  16  18
ENDBRANCH   6  14
ENDBRANCH   3   5
BRANCH   1  21
ATOM     21  C   UNL     1      -2.074  -4.742   0.850  0.00  0.00    +0.150 C 
BRANCH  21  32
ATOM     22  C   UNL     1      -0.018   1.503   0.010  0.00  0.00    +0.044 C 
ATOM     23  C   UNL     1       0.002  -0.004   0.002  0.00  0.00    -0.048 A 
ATOM     24  C   UNL     1       0.006  -0.687  -1.200  0.00  0.00    +0.007 A 
ATOM     25  C   UNL     1       0.031  -2.070  -1.216  0.00  0.00    +0.048 A 
ATOM     26  C   UNL     1       0.050  -2.773  -0.024  0.00  0.00    +0.143 A 
ATOM     27  C   UNL     1       0.035  -2.085   1.188  0.00  0.00    +0.076 A 
ATOM     28  C   UNL     1       0.023  -0.700   1.197  0.00  0.00    +0.030 A 
ATOM     29  N   UNL     1       0.020  -2.806   2.390  0.00  0.00    -0.280 N 
ATOM     30  C   UNL     1      -0.200  -4.137   2.357  0.00  0.00    +0.259 C 
ATOM     31  O   UNL     1      -0.109  -4.794   3.373  0.00  0.00    -0.271 OA
ATOM     32  C   UNL     1      -0.558  -4.804   1.054  0.00  0.00    +0.268 C 
ATOM     33  O   UNL     1       0.093  -4.132  -0.026  0.00  0.00    -0.477 OA
ATOM     34  H   UNL     1       0.165  -2.353   3.235  0.00  0.00    +0.155 HD
ENDBRANCH  21  32
ENDBRANCH   1  21
TORSDOF 6
