REMARK  Name = ZINC35959048
REMARK  9 active torsions:
REMARK  status: ('A' for Active; 'I' for Inactive)
REMARK    1  A    between atoms: C_1  and  C_2
REMARK    2  A    between atoms: C_2  and  C_3
REMARK    3  A    between atoms: C_3  and  C_4
REMARK    4  A    between atoms: C_4  and  C_5
REMARK    5  A    between atoms: C_8  and  C_11
REMARK    6  A    between atoms: C_16  and  N_19
REMARK    7  A    between atoms: C_22  and  C_25
REMARK    8  A    between atoms: N_30  and  C_33
REMARK    9  A    between atoms: C_33  and  C_34
REMARK                            x       y       z     vdW  Elec       q    Type
REMARK                         _______ _______ _______ _____ _____    ______ ____
ROOT
ATOM      1  C   UNL     1      -6.907  -4.071   0.106  0.00  0.00    +0.247 C 
ATOM      2  O   UNL     1      -5.811  -3.544   0.118  0.00  0.00    -0.270 OA
ATOM      3  N   UNL     1      -7.487  -4.392  -1.067  0.00  0.00    -0.298 N 
ATOM      4  C   UNL     1      -6.759  -4.228  -2.332  0.00  0.00    +0.106 C 
ATOM      5  C   UNL     1      -7.608  -3.380  -3.284  0.00  0.00    +0.004 C 
ATOM      6  C   UNL     1      -8.991  -4.019  -3.433  0.00  0.00    -0.066 C 
ATOM      7  C   UNL     1      -9.686  -4.058  -2.070  0.00  0.00    +0.004 C 
ATOM      8  C   UNL     1      -8.858  -4.919  -1.104  0.00  0.00    +0.106 C 
ENDROOT
BRANCH   6   9
ATOM      9  N   UNL     1      -9.798  -3.227  -4.371  0.00  0.00    +0.382 N 
ATOM     10  C   UNL     1      -9.126  -3.183  -5.676  0.00  0.00    -0.078 C 
ATOM     11  C   UNL     1      -9.921  -2.293  -6.633  0.00  0.00    -0.006 C 
ATOM     12  C   UNL     1     -11.332  -2.865  -6.802  0.00  0.00    +0.072 C 
ATOM     13  C   UNL     1     -11.995  -2.974  -5.426  0.00  0.00    -0.006 C 
ATOM     14  C   UNL     1     -11.123  -3.840  -4.513  0.00  0.00    -0.078 C 
ATOM     15  H   UNL     1      -9.899  -2.288  -4.016  0.00  0.00    -0.081 HD
BRANCH  12  16
ATOM     16  C   UNL     1     -12.144  -1.950  -7.681  0.00  0.00    +0.219 C 
ATOM     17  O   UNL     1     -11.842  -0.780  -7.782  0.00  0.00    -0.275 OA
ATOM     18  N   UNL     1     -13.207  -2.433  -8.356  0.00  0.00    -0.299 N 
ATOM     19  C   UNL     1     -13.527  -3.868  -8.333  0.00  0.00    +0.123 C 
ATOM     20  C   UNL     1     -15.002  -4.031  -7.953  0.00  0.00    +0.103 C 
ATOM     21  N   UNL     1     -15.831  -3.225  -8.859  0.00  0.00    -0.300 NA
ATOM     22  C   UNL     1     -15.530  -1.793  -8.723  0.00  0.00    +0.103 C 
ATOM     23  C   UNL     1     -14.080  -1.537  -9.129  0.00  0.00    +0.123 C 
BRANCH  21  24
ATOM     24  C   UNL     1     -17.259  -3.486  -8.640  0.00  0.00    +0.081 C 
ATOM     25  C   UNL     1     -18.075  -2.828  -9.754  0.00  0.00    +0.020 C 
ENDBRANCH  21  24
ENDBRANCH  12  16
ENDBRANCH   6   9
BRANCH   1  29
ATOM     26  C   UNL     1      -8.906  -4.898   3.762  0.00  0.00    -0.047 A 
ATOM     27  C   UNL     1      -8.092  -3.784   3.659  0.00  0.00    +0.004 A 
ATOM     28  C   UNL     1      -7.440  -3.509   2.474  0.00  0.00    +0.013 A 
ATOM     29  C   UNL     1      -7.602  -4.359   1.379  0.00  0.00    +0.037 A 
ATOM     30  C   UNL     1      -8.425  -5.481   1.490  0.00  0.00    +0.013 A 
ATOM     31  C   UNL     1      -9.067  -5.747   2.681  0.00  0.00    +0.004 A 
BRANCH  26  32
ATOM     32  C   UNL     1      -9.615  -5.191   5.059  0.00  0.00    +0.035 C 
BRANCH  32  33
ATOM     33  C   UNL     1      -8.724  -6.069   5.940  0.00  0.00    +0.004 C 
BRANCH  33  35
ATOM     34  C   UNL     1      -8.553  -7.244   8.139  0.00  0.00    +0.004 C 
ATOM     35  C   UNL     1      -9.444  -6.367   7.257  0.00  0.00    -0.003 C 
ENDBRANCH  33  35
ENDBRANCH  32  33
ENDBRANCH  26  32
ENDBRANCH   1  29
TORSDOF 7
