REMARK  Name = ZINC21009504
REMARK  7 active torsions:
REMARK  status: ('A' for Active; 'I' for Inactive)
REMARK    1  A    between atoms: C_1  and  C_2
REMARK    2  A    between atoms: N_5  and  S_11
REMARK    3  A    between atoms: C_7  and  C_10
REMARK    4  A    between atoms: S_11  and  C_14
REMARK    5  A    between atoms: C_17  and  C_20
REMARK    6  A    between atoms: C_28  and  C_29
REMARK    7  A    between atoms: C_28  and  C_30
REMARK                            x       y       z     vdW  Elec       q    Type
REMARK                         _______ _______ _______ _____ _____    ______ ____
ROOT
ATOM      1  C   UNL     1      -0.155   2.845  -4.799  0.00  0.00    +0.106 A 
ATOM      2  C   UNL     1       1.205   3.098  -4.798  0.00  0.00    +0.029 A 
ATOM      3  C   UNL     1       1.944   2.911  -3.648  0.00  0.00    +0.015 A 
ATOM      4  C   UNL     1       1.316   2.467  -2.483  0.00  0.00    +0.037 A 
ATOM      5  C   UNL     1      -0.056   2.210  -2.492  0.00  0.00    +0.015 A 
ATOM      6  C   UNL     1      -0.784   2.405  -3.648  0.00  0.00    +0.029 A 
ENDROOT
BRANCH   4   7
ATOM      7  C   UNL     1       2.101   2.265  -1.247  0.00  0.00    +0.247 C 
ATOM      8  O   UNL     1       3.068   2.965  -1.020  0.00  0.00    -0.270 OA
ATOM      9  N   UNL     1       1.745   1.303  -0.372  0.00  0.00    -0.282 N 
ATOM     10  C   UNL     1       0.660   0.354  -0.677  0.00  0.00    +0.128 C 
ATOM     11  C   UNL     1       1.252  -1.057  -0.692  0.00  0.00    +0.123 C 
ATOM     12  N   UNL     1       2.101  -1.274   0.471  0.00  0.00    -0.312 N 
ATOM     13  C   UNL     1       2.670  -0.302   1.185  0.00  0.00    +0.236 C 
ATOM     14  O   UNL     1       3.422  -0.610   2.085  0.00  0.00    -0.273 OA
ATOM     15  C   UNL     1       2.423   1.159   0.924  0.00  0.00    +0.108 C 
ATOM     16  C   UNL     1       1.538   1.734   2.032  0.00  0.00    +0.041 C 
ATOM     17  C   UNL     1       3.757   1.907   0.891  0.00  0.00    +0.041 C 
ATOM     18  H   UNL     1       2.311  -2.297   0.816  0.00  0.00    +0.149 HD
ENDBRANCH   4   7
BRANCH   1  19
ATOM     19  S   UNL     1      -1.091   3.085  -6.273  0.00  0.00    +0.061 S 
ATOM     20  O   UNL     1      -2.436   3.303  -5.869  0.00  0.00    -0.153 OA
ATOM     21  O   UNL     1      -0.371   4.022  -7.063  0.00  0.00    -0.153 OA
BRANCH  19  25
ATOM     22  C   UNL     1      -0.673  -0.656  -5.287  0.00  0.00    +0.039 C 
ATOM     23  C   UNL     1      -1.418  -0.711  -6.622  0.00  0.00    +0.131 C 
ATOM     24  C   UNL     1      -2.109   0.633  -6.878  0.00  0.00    +0.140 C 
ATOM     25  N   UNL     1      -1.072   1.652  -7.103  0.00  0.00    -0.172 NA
ATOM     26  C   UNL     1      -0.021   1.363  -8.092  0.00  0.00    +0.140 C 
ATOM     27  C   UNL     1       0.571  -0.019  -7.772  0.00  0.00    +0.131 C 
ATOM     28  O   UNL     1      -0.490  -0.972  -7.677  0.00  0.00    -0.371 OA
ATOM     29  C   UNL     1       1.531  -0.432  -8.889  0.00  0.00    +0.039 C 
ENDBRANCH  19  25
ENDBRANCH   1  19
TORSDOF 3
