REMARK  Name = ZINC27154685
REMARK  4 active torsions:
REMARK  status: ('A' for Active; 'I' for Inactive)
REMARK    1  A    between atoms: C_1  and  C_2
REMARK    2  A    between atoms: C_2  and  C_3
REMARK    3  A    between atoms: C_10  and  C_12
REMARK    4  A    between atoms: C_17  and  N_18
REMARK                            x       y       z     vdW  Elec       q    Type
REMARK                         _______ _______ _______ _____ _____    ______ ____
ROOT
ATOM      1  C   UNL     1      -1.149  -0.644   0.080  0.00  0.00    +0.064 A 
ATOM      2  C   UNL     1      -0.792  -1.469   1.148  0.00  0.00    +0.035 A 
ATOM      3  C   UNL     1       0.373  -2.206   1.088  0.00  0.00    +0.042 A 
ATOM      4  C   UNL     1       1.187  -2.135  -0.031  0.00  0.00    +0.022 A 
ATOM      5  C   UNL     1       0.842  -1.327  -1.096  0.00  0.00    +0.030 A 
ATOM      6  C   UNL     1      -0.326  -0.580  -1.052  0.00  0.00    +0.081 A 
ATOM      7 CL   UNL     1       0.821  -3.226   2.420  0.00  0.00    -0.084 Cl
ENDROOT
BRANCH   1  14
ATOM      8  C   UNL     1      -5.782  -0.349  -0.705  0.00  0.00    +0.006 C 
ATOM      9  C   UNL     1      -5.958  -1.827  -0.349  0.00  0.00    +0.006 C 
ATOM     10  C   UNL     1      -4.605  -2.538  -0.433  0.00  0.00    +0.019 C 
ATOM     11  C   UNL     1      -3.639  -1.909   0.576  0.00  0.00    +0.108 C 
ATOM     12  N   UNL     1      -3.576  -0.461   0.332  0.00  0.00    -0.297 N 
ATOM     13  C   UNL     1      -4.829   0.306   0.306  0.00  0.00    +0.111 C 
ATOM     14  C   UNL     1      -2.392   0.152   0.141  0.00  0.00    +0.249 C 
ATOM     15  O   UNL     1      -2.345   1.361   0.018  0.00  0.00    -0.270 OA
BRANCH   8  17
ATOM     16  C   UNL     1      -6.985   1.800  -1.129  0.00  0.00    +0.004 C 
ATOM     17  C   UNL     1      -7.140   0.354  -0.653  0.00  0.00    +0.002 C 
ENDBRANCH   8  17
ENDBRANCH   1  14
BRANCH   6  18
ATOM     18  N   UNL     1      -0.677   0.239  -2.131  0.00  0.00    -0.200 N 
ATOM     19  C   UNL     1       0.060   0.509  -3.230  0.00  0.00    +0.250 A 
ATOM     20  N   UNL     1      -0.644   1.315  -3.981  0.00  0.00    -0.116 NA
ATOM     21  N   UNL     1      -1.775   1.573  -3.432  0.00  0.00    -0.023 NA
ATOM     22  N   UNL     1      -1.876   0.952  -2.306  0.00  0.00    -0.039 NA
ENDBRANCH   6  18
TORSDOF 3
