REMARK  Name = ZINC11612552
REMARK  4 active torsions:
REMARK  status: ('A' for Active; 'I' for Inactive)
REMARK    1  A    between atoms: C_4  and  S_7
REMARK    2  A    between atoms: S_7  and  N_10
REMARK    3  A    between atoms: C_15  and  C_17
REMARK    4  A    between atoms: C_17  and  C_18
REMARK                            x       y       z     vdW  Elec       q    Type
REMARK                         _______ _______ _______ _____ _____    ______ ____
ROOT
ATOM      1  N   UNL     1       4.953   5.248   1.428  0.00  0.00    -0.173 NA
ATOM      2  C   UNL     1       6.125   5.823   2.100  0.00  0.00    +0.110 C 
ATOM      3  C   UNL     1       6.140   7.335   1.858  0.00  0.00    +0.017 C 
ATOM      4  C   UNL     1       6.082   7.608   0.353  0.00  0.00    +0.003 C 
ATOM      5  C   UNL     1       4.782   7.039  -0.220  0.00  0.00    +0.021 C 
ATOM      6  C   UNL     1       4.752   5.523  -0.001  0.00  0.00    +0.089 C 
ENDROOT
BRANCH   1   7
ATOM      7  S   UNL     1       3.877   4.307   2.264  0.00  0.00    +0.061 S 
ATOM      8  O   UNL     1       4.144   4.514   3.645  0.00  0.00    -0.153 OA
ATOM      9  O   UNL     1       2.599   4.544   1.691  0.00  0.00    -0.153 OA
BRANCH   7  13
ATOM     10  C   UNL     1       4.909  -0.012   1.384  0.00  0.00    +0.000 A 
ATOM     11  C   UNL     1       5.597   0.677   2.365  0.00  0.00    +0.002 A 
ATOM     12  C   UNL     1       5.282   1.996   2.634  0.00  0.00    +0.028 A 
ATOM     13  C   UNL     1       4.279   2.626   1.922  0.00  0.00    +0.105 A 
ATOM     14  C   UNL     1       3.587   1.935   0.944  0.00  0.00    +0.028 A 
ATOM     15  C   UNL     1       3.905   0.618   0.672  0.00  0.00    +0.002 A 
ENDBRANCH   7  13
ENDBRANCH   1   7
BRANCH   6  16
ATOM     16  C   UNL     1       3.398   4.968  -0.446  0.00  0.00    +0.116 C 
BRANCH  16  17
ATOM     17  C   UNL     1       3.285   5.059  -1.946  0.00  0.00    +0.220 C 
ATOM     18  O   UNL     1       4.241   5.408  -2.606  0.00  0.00    -0.275 OA
ATOM     19  N   UNL     1       2.122   4.752  -2.554  0.00  0.00    -0.265 N 
ATOM     20  C   UNL     1       2.048   4.733  -3.938  0.00  0.00    +0.165 A 
ATOM     21  N   UNL     1       1.047   4.368  -4.704  0.00  0.00    -0.225 NA
ATOM     22  C   UNL     1       1.114   4.402  -6.052  0.00  0.00    +0.080 A 
ATOM     23  C   UNL     1       0.115   4.039  -6.985  0.00  0.00    +0.029 A 
ATOM     24  C   UNL     1       0.349   4.135  -8.332  0.00  0.00    +0.002 A 
ATOM     25  C   UNL     1       1.564   4.586  -8.828  0.00  0.00    +0.001 A 
ATOM     26  C   UNL     1       2.563   4.948  -7.944  0.00  0.00    +0.017 A 
ATOM     27  C   UNL     1       2.338   4.857  -6.593  0.00  0.00    +0.041 A 
ATOM     28  S   UNL     1       3.292   5.199  -5.133  0.00  0.00    -0.052 S 
ATOM     29  H   UNL     1       1.337   4.544  -2.024  0.00  0.00    +0.157 HD
ENDBRANCH  16  17
ENDBRANCH   6  16
TORSDOF 4
