REMARK  Name = ZINC00386598
REMARK  6 active torsions:
REMARK  status: ('A' for Active; 'I' for Inactive)
REMARK    1  A    between atoms: C_1  and  C_2
REMARK    2  A    between atoms: C_2  and  C_3
REMARK    3  A    between atoms: C_2  and  C_4
REMARK    4  A    between atoms: C_2  and  N_5
REMARK    5  A    between atoms: N_8  and  C_9
REMARK    6  A    between atoms: C_9  and  C_10
REMARK                            x       y       z     vdW  Elec       q    Type
REMARK                         _______ _______ _______ _____ _____    ______ ____
ROOT
ATOM      1  N   UNL     1       0.002  -0.004   0.002  0.00  0.00    -0.177 NA
ATOM      2  C   UNL     1       0.601  -0.925   0.991  0.00  0.00    +0.199 C 
ATOM      3  C   UNL     1       0.385  -2.332   0.497  0.00  0.00    +0.220 C 
ATOM      4  N   UNL     1       1.092  -3.349   0.859  0.00  0.00    -0.248 NA
ATOM      5  O   UNL     1      -0.646  -2.390  -0.376  0.00  0.00    -0.371 OA
ATOM      6  S   UNL     1      -0.654  -1.051  -1.125  0.00  0.00    +0.294 S 
ATOM      7  O   UNL     1       0.373  -1.199  -2.096  0.00  0.00    -0.197 OA
ENDROOT
BRANCH   1   9
ATOM      8  C   UNL     1       1.418   1.990  -0.001  0.00  0.00    +0.028 C 
ATOM      9  C   UNL     1      -0.018   1.461   0.010  0.00  0.00    +0.029 C 
ATOM     10  C   UNL     1      -0.758   1.968  -1.230  0.00  0.00    +0.028 C 
ATOM     11  C   UNL     1      -0.734   1.954   1.269  0.00  0.00    +0.028 C 
ENDBRANCH   1   9
BRANCH   4  12
ATOM     12  C   UNL     1       0.797  -4.677   0.316  0.00  0.00    +0.180 C 
BRANCH  12  13
ATOM     13  C   UNL     1       1.958  -5.147  -0.522  0.00  0.00    -0.026 A 
ATOM     14  C   UNL     1       1.994  -4.862  -1.875  0.00  0.00    +0.005 A 
ATOM     15  C   UNL     1       3.061  -5.289  -2.643  0.00  0.00    +0.000 A 
ATOM     16  C   UNL     1       4.087  -6.009  -2.060  0.00  0.00    +0.000 A 
ATOM     17  C   UNL     1       4.049  -6.298  -0.709  0.00  0.00    +0.000 A 
ATOM     18  C   UNL     1       2.984  -5.867   0.060  0.00  0.00    +0.005 A 
ENDBRANCH  12  13
ENDBRANCH   4  12
TORSDOF 3
