REMARK  Name = ZINC38913630
REMARK  8 active torsions:
REMARK  status: ('A' for Active; 'I' for Inactive)
REMARK    1  A    between atoms: C_1  and  C_2
REMARK    2  A    between atoms: C_5  and  N_9
REMARK    3  A    between atoms: C_6  and  C_8
REMARK    4  A    between atoms: C_11  and  C_16
REMARK    5  A    between atoms: C_18  and  C_21
REMARK    6  A    between atoms: C_21  and  C_22
REMARK    7  A    between atoms: C_21  and  C_23
REMARK    8  A    between atoms: C_21  and  C_24
REMARK                            x       y       z     vdW  Elec       q    Type
REMARK                         _______ _______ _______ _____ _____    ______ ____
ROOT
ATOM      1  N   UNL     1       0.059  -4.170  -0.021  0.00  0.00    -0.270 N 
ATOM      2  C   UNL     1      -1.142  -5.014  -0.025  0.00  0.00    +0.127 C 
ATOM      3  C   UNL     1      -0.661  -6.413  -0.469  0.00  0.00    +0.104 C 
ATOM      4  C   UNL     1       0.826  -6.385  -0.044  0.00  0.00    +0.111 C 
ATOM      5  C   UNL     1       1.178  -4.913  -0.031  0.00  0.00    +0.221 C 
ATOM      6  O   UNL     1       2.307  -4.470  -0.029  0.00  0.00    -0.275 OA
ENDROOT
BRANCH   1  11
ATOM      7  C   UNL     1      -0.018   1.503   0.010  0.00  0.00    +0.044 C 
ATOM      8  C   UNL     1       0.002  -0.004   0.002  0.00  0.00    -0.050 A 
ATOM      9  C   UNL     1       0.006  -0.688  -1.200  0.00  0.00    +0.005 A 
ATOM     10  C   UNL     1       0.025  -2.068  -1.211  0.00  0.00    +0.024 A 
ATOM     11  C   UNL     1       0.040  -2.771  -0.013  0.00  0.00    +0.039 A 
ATOM     12  C   UNL     1       0.037  -2.082   1.192  0.00  0.00    -0.029 A 
ATOM     13  C   UNL     1       0.023  -0.700   1.196  0.00  0.00    +0.008 A 
ATOM     14  C   UNL     1       0.054  -2.840   2.494  0.00  0.00    +0.045 C 
ENDBRANCH   1  11
BRANCH   3  15
ATOM     15  C   UNL     1      -0.793  -6.581  -1.960  0.00  0.00    +0.232 A 
ATOM     16  N   UNL     1      -1.517  -7.480  -2.567  0.00  0.00    -0.195 NA
ATOM     17  C   UNL     1      -1.403  -7.343  -3.893  0.00  0.00    +0.177 A 
ATOM     18  N   UNL     1      -0.601  -6.349  -4.147  0.00  0.00    -0.061 NA
ATOM     19  O   UNL     1      -0.191  -5.829  -2.891  0.00  0.00    -0.338 OA
BRANCH  17  20
ATOM     20  C   UNL     1      -2.092  -8.199  -4.925  0.00  0.00    +0.025 C 
ATOM     21  C   UNL     1      -3.608  -8.088  -4.750  0.00  0.00    +0.019 C 
ATOM     22  C   UNL     1      -1.703  -7.721  -6.325  0.00  0.00    +0.019 C 
ATOM     23  C   UNL     1      -1.663  -9.657  -4.746  0.00  0.00    +0.019 C 
ENDBRANCH  17  20
ENDBRANCH   3  15
TORSDOF 3
