REMARK  Name = ZINC45068631
REMARK  4 active torsions:
REMARK  status: ('A' for Active; 'I' for Inactive)
REMARK    1  A    between atoms: C_4  and  N_21
REMARK    2  A    between atoms: C_6  and  S_7
REMARK    3  A    between atoms: S_7  and  N_10
REMARK    4  A    between atoms: C_14  and  C_16
REMARK                            x       y       z     vdW  Elec       q    Type
REMARK                         _______ _______ _______ _____ _____    ______ ____
ROOT
ATOM      1  S   UNL     1      -2.002  -0.798  -0.107  0.00  0.00    +0.061 S 
ATOM      2  O   UNL     1      -1.468  -1.962   0.510  0.00  0.00    -0.153 OA
ATOM      3  O   UNL     1      -3.232  -0.216   0.302  0.00  0.00    -0.153 OA
ENDROOT
BRANCH   1   9
ATOM      4  C   UNL     1      -1.144   1.790  -0.001  0.00  0.00    +0.030 A 
ATOM      5  C   UNL     1      -0.185   2.780   0.114  0.00  0.00    +0.024 A 
ATOM      6  C   UNL     1       1.145   2.440   0.273  0.00  0.00    +0.062 A 
ATOM      7  C   UNL     1       1.518   1.101   0.316  0.00  0.00    +0.045 A 
ATOM      8  C   UNL     1       0.552   0.111   0.199  0.00  0.00    +0.052 A 
ATOM      9  C   UNL     1      -0.776   0.458   0.041  0.00  0.00    +0.107 A 
ATOM     10 CL   UNL     1       2.348   3.683   0.417  0.00  0.00    -0.082 Cl
BRANCH   7  11
ATOM     11  N   UNL     1       2.862   0.753   0.475  0.00  0.00    -0.357 N 
ATOM     12  H   UNL     1       3.536   1.446   0.556  0.00  0.00    +0.142 HD
ATOM     13  H   UNL     1       3.121  -0.181   0.505  0.00  0.00    +0.142 HD
ENDBRANCH   7  11
ENDBRANCH   1   9
BRANCH   1  14
ATOM     14  N   UNL     1      -2.156  -1.146  -1.718  0.00  0.00    -0.173 NA
ATOM     15  C   UNL     1      -2.988  -0.402  -2.682  0.00  0.00    +0.110 C 
ATOM     16  C   UNL     1      -2.341  -0.680  -4.062  0.00  0.00    +0.019 C 
ATOM     17  C   UNL     1      -1.905  -2.162  -3.908  0.00  0.00    +0.022 C 
ATOM     18  C   UNL     1      -1.482  -2.243  -2.427  0.00  0.00    +0.083 C 
BRANCH  18  19
ATOM     19  C   UNL     1      -1.915  -3.587  -1.838  0.00  0.00    +0.008 C 
ATOM     20  C   UNL     1      -1.277  -4.744  -2.634  0.00  0.00    +0.005 C 
ATOM     21  C   UNL     1      -2.377  -5.833  -2.669  0.00  0.00    +0.000 C 
ATOM     22  C   UNL     1      -3.675  -5.004  -2.838  0.00  0.00    +0.000 C 
ATOM     23  C   UNL     1      -3.439  -3.752  -1.967  0.00  0.00    +0.005 C 
ENDBRANCH  18  19
ENDBRANCH   1  14
TORSDOF 4
