REMARK  Name = ZINC48841390
REMARK  4 active torsions:
REMARK  status: ('A' for Active; 'I' for Inactive)
REMARK    1  A    between atoms: C_1  and  C_2
REMARK    2  A    between atoms: C_5  and  N_20
REMARK    3  A    between atoms: C_7  and  S_8
REMARK    4  A    between atoms: S_8  and  N_11
REMARK                            x       y       z     vdW  Elec       q    Type
REMARK                         _______ _______ _______ _____ _____    ______ ____
ROOT
ATOM      1  C   UNL     1      -2.366  -1.274   1.616  0.00  0.00    +0.046 C 
ATOM      2  C   UNL     1      -1.119  -1.335   0.772  0.00  0.00    -0.024 A 
ATOM      3  C   UNL     1      -1.098  -2.105  -0.377  0.00  0.00    +0.007 A 
ATOM      4  C   UNL     1       0.046  -2.161  -1.150  0.00  0.00    +0.033 A 
ATOM      5  C   UNL     1       1.169  -1.448  -0.776  0.00  0.00    +0.128 A 
ATOM      6  C   UNL     1       1.149  -0.678   0.372  0.00  0.00    +0.061 A 
ATOM      7  C   UNL     1       0.003  -0.618   1.143  0.00  0.00    +0.111 A 
ENDROOT
BRANCH   7   8
ATOM      8  S   UNL     1      -0.025   0.368   2.603  0.00  0.00    +0.061 S 
ATOM      9  O   UNL     1      -1.177   1.196   2.512  0.00  0.00    -0.153 OA
ATOM     10  O   UNL     1       0.193  -0.515   3.695  0.00  0.00    -0.153 OA
BRANCH   8  11
ATOM     11  N   UNL     1       1.288   1.375   2.539  0.00  0.00    -0.173 NA
ATOM     12  C   UNL     1       2.666   1.056   2.967  0.00  0.00    +0.113 C 
ATOM     13  C   UNL     1       3.487   2.358   2.711  0.00  0.00    +0.006 C 
ATOM     14  C   UNL     1       3.595   2.436   1.156  0.00  0.00    +0.006 C 
ATOM     15  C   UNL     1       2.143   2.694   0.689  0.00  0.00    +0.021 C 
ATOM     16  C   UNL     1       1.310   2.778   2.034  0.00  0.00    +0.080 C 
ATOM     17  C   UNL     1       2.371   3.427   2.997  0.00  0.00    +0.025 C 
ENDBRANCH   8  11
ENDBRANCH   7   8
BRANCH   5  18
ATOM     18  N   UNL     1       2.395  -1.509  -1.604  0.00  0.00    +0.056 N 
ATOM     19  O   UNL     1       2.413  -2.183  -2.607  0.00  0.00    -0.126 OA
ATOM     20  O   UNL     1       3.377  -0.885  -1.276  0.00  0.00    -0.126 OA
ENDBRANCH   5  18
TORSDOF 3
