REMARK  Name = ZINC04259290
REMARK  6 active torsions:
REMARK  status: ('A' for Active; 'I' for Inactive)
REMARK    1  A    between atoms: C_1  and  C_2
REMARK    2  A    between atoms: C_3  and  N_9
REMARK    3  A    between atoms: C_10  and  C_12
REMARK    4  A    between atoms: N_14  and  N_15
REMARK    5  A    between atoms: C_16  and  C_17
REMARK    6  A    between atoms: C_22  and  O_23
REMARK                            x       y       z     vdW  Elec       q    Type
REMARK                         _______ _______ _______ _____ _____    ______ ____
ROOT
ATOM      1  C   UNL     1       0.190   0.101  -4.862  0.00  0.00    +0.318 C 
ATOM      2  O   UNL     1       0.173   1.315  -4.853  0.00  0.00    -0.263 OA
ATOM      3  N   UNL     1       0.295  -0.564  -6.029  0.00  0.00    -0.199 N 
ATOM      4  H   UNL     1       0.309  -1.534  -6.036  0.00  0.00    +0.178 HD
ENDROOT
BRANCH   1   6
ATOM      5  N   UNL     1      -0.010   0.010  -2.412  0.00  0.00    -0.277 N 
ATOM      6  C   UNL     1       0.095  -0.655  -3.580  0.00  0.00    +0.305 C 
ATOM      7  O   UNL     1       0.113  -1.869  -3.588  0.00  0.00    -0.265 OA
ATOM      8  H   UNL     1      -0.105   0.975  -2.410  0.00  0.00    +0.155 HD
BRANCH   5  11
ATOM      9  C   UNL     1      -1.264   1.189  -0.146  0.00  0.00    +0.047 C 
ATOM     10  C   UNL     1      -0.584  -0.154  -0.073  0.00  0.00    -0.011 A 
ATOM     11  C   UNL     1       0.017  -0.692  -1.204  0.00  0.00    +0.038 A 
ATOM     12  C   UNL     1       0.643  -1.930  -1.132  0.00  0.00    +0.023 A 
ATOM     13  C   UNL     1       0.668  -2.621   0.063  0.00  0.00    +0.003 A 
ATOM     14  C   UNL     1       0.070  -2.084   1.188  0.00  0.00    +0.020 A 
ATOM     15  C   UNL     1      -0.551  -0.848   1.121  0.00  0.00    +0.046 A 
ATOM     16 CL   UNL     1      -1.294  -0.174   2.538  0.00  0.00    -0.083 Cl
ENDBRANCH   5  11
ENDBRANCH   1   6
BRANCH   3  17
ATOM     17  N   UNL     1       0.385   0.146  -7.234  0.00  0.00    -0.187 NA
ATOM     18  C   UNL     1       0.486  -0.494  -8.360  0.00  0.00    +0.142 C 
BRANCH  18  19
ATOM     19  C   UNL     1       0.580   0.252  -9.626  0.00  0.00    +0.037 A 
ATOM     20  C   UNL     1       0.684  -0.433 -10.839  0.00  0.00    +0.033 A 
ATOM     21  C   UNL     1       0.772   0.273 -12.022  0.00  0.00    +0.042 A 
ATOM     22  C   UNL     1       0.757   1.659 -12.011  0.00  0.00    +0.023 A 
ATOM     23  C   UNL     1       0.655   2.347 -10.817  0.00  0.00    +0.047 A 
ATOM     24  C   UNL     1       0.561   1.654  -9.621  0.00  0.00    +0.126 A 
ATOM     25 CL   UNL     1       0.901  -0.578 -13.529  0.00  0.00    -0.084 Cl
BRANCH  24  26
ATOM     26  O   UNL     1       0.455   2.330  -8.448  0.00  0.00    -0.506 OA
ATOM     27  H   UNL     1       1.304   2.538  -8.036  0.00  0.00    +0.292 HD
ENDBRANCH  24  26
ENDBRANCH  18  19
ENDBRANCH   3  17
TORSDOF 5
