REMARK  Name = ZINC67611920
REMARK  5 active torsions:
REMARK  status: ('A' for Active; 'I' for Inactive)
REMARK    1  A    between atoms: C_1  and  N_2
REMARK    2  A    between atoms: C_4  and  C_11
REMARK    3  A    between atoms: N_13  and  N_14
REMARK    4  A    between atoms: N_17  and  C_18
REMARK    5  A    between atoms: C_21  and  C_23
REMARK                            x       y       z     vdW  Elec       q    Type
REMARK                         _______ _______ _______ _____ _____    ______ ____
ROOT
ATOM      1  N   UNL     1       0.043  -4.135  -3.890  0.00  0.00    -0.218 N 
ATOM      2  C   UNL     1       0.035  -3.935  -5.223  0.00  0.00    +0.316 C 
ATOM      3  O   UNL     1       0.045  -4.886  -5.980  0.00  0.00    -0.251 OA
ATOM      4  N   UNL     1       0.016  -2.680  -5.716  0.00  0.00    -0.295 N 
ATOM      5  H   UNL     1       0.057  -5.037  -3.535  0.00  0.00    +0.174 HD
ATOM      6  H   UNL     1       0.008  -1.922  -5.112  0.00  0.00    +0.151 HD
ENDROOT
BRANCH   1   9
ATOM      7  C   UNL     1       0.040  -3.239  -1.684  0.00  0.00    +0.262 C 
ATOM      8  O   UNL     1       0.057  -4.371  -1.239  0.00  0.00    -0.269 OA
ATOM      9  N   UNL     1       0.032  -3.039  -3.017  0.00  0.00    -0.229 N 
ATOM     10  H   UNL     1       0.018  -2.136  -3.372  0.00  0.00    +0.173 HD
BRANCH   7  14
ATOM     11  C   UNL     1      -0.018   1.461   0.010  0.00  0.00    +0.149 C 
ATOM     12  N   UNL     1       0.002  -0.004   0.002  0.00  0.00    -0.349 N 
ATOM     13  C   UNL     1       0.008  -0.771  -1.115  0.00  0.00    +0.099 A 
ATOM     14  C   UNL     1       0.028  -2.090  -0.769  0.00  0.00    +0.063 A 
ATOM     15  C   UNL     1       0.035  -2.135   0.705  0.00  0.00    +0.012 A 
ATOM     16  C   UNL     1       0.024  -0.797   1.131  0.00  0.00    +0.050 A 
ATOM     17  C   UNL     1       0.032  -0.515   2.493  0.00  0.00    +0.026 A 
ATOM     18  C   UNL     1       0.055  -1.545   3.408  0.00  0.00    +0.002 A 
ATOM     19  C   UNL     1       0.070  -2.866   2.986  0.00  0.00    +0.001 A 
ATOM     20  C   UNL     1       0.053  -3.166   1.641  0.00  0.00    +0.011 A 
ENDBRANCH   7  14
ENDBRANCH   1   9
BRANCH   4  21
ATOM     21  C   UNL     1       0.007  -2.463  -7.165  0.00  0.00    +0.083 C 
ATOM     22  C   UNL     1      -0.949  -1.401  -7.714  0.00  0.00    +0.033 C 
ATOM     23  C   UNL     1       0.558  -1.133  -7.683  0.00  0.00    +0.041 C 
BRANCH  23  24
ATOM     24  C   UNL     1       1.295  -1.150  -8.997  0.00  0.00    -0.042 A 
ATOM     25  C   UNL     1       0.650  -1.569 -10.146  0.00  0.00    +0.004 A 
ATOM     26  C   UNL     1       1.326  -1.585 -11.351  0.00  0.00    +0.000 A 
ATOM     27  C   UNL     1       2.647  -1.182 -11.409  0.00  0.00    +0.000 A 
ATOM     28  C   UNL     1       3.292  -0.762 -10.260  0.00  0.00    +0.000 A 
ATOM     29  C   UNL     1       2.615  -0.742  -9.055  0.00  0.00    +0.004 A 
ENDBRANCH  23  24
ENDBRANCH   4  21
TORSDOF 4
