REMARK  Name = ZINC23249000
REMARK  7 active torsions:
REMARK  status: ('A' for Active; 'I' for Inactive)
REMARK    1  A    between atoms: C_1  and  C_2
REMARK    2  A    between atoms: C_2  and  C_3
REMARK    3  A    between atoms: C_2  and  N_4
REMARK    4  A    between atoms: C_5  and  C_7
REMARK    5  A    between atoms: C_7  and  N_8
REMARK    6  A    between atoms: N_11  and  C_14
REMARK    7  A    between atoms: C_14  and  N_15
REMARK                            x       y       z     vdW  Elec       q    Type
REMARK                         _______ _______ _______ _____ _____    ______ ____
ROOT
ATOM      1  N   UNL     1      -3.979  -1.213  -2.509  0.00  0.00    -0.298 NA
ATOM      2  C   UNL     1      -3.251  -2.208  -3.309  0.00  0.00    +0.066 C 
ATOM      3  C   UNL     1      -3.775  -2.186  -4.746  0.00  0.00    -0.061 C 
ATOM      4  N   UNL     1      -5.213  -2.488  -4.748  0.00  0.00    +0.394 N 
ATOM      5  C   UNL     1      -5.929  -1.472  -3.966  0.00  0.00    -0.061 C 
ATOM      6  C   UNL     1      -5.423  -1.488  -2.522  0.00  0.00    +0.066 C 
ATOM      7  H   UNL     1      -5.365  -3.397  -4.338  0.00  0.00    -0.079 HD
ENDROOT
BRANCH   1   8
ATOM      8  C   UNL     1      -3.465  -1.164  -1.134  0.00  0.00    +0.180 C 
BRANCH   8  10
ATOM      9  N   UNL     1      -1.372  -0.511   0.012  0.00  0.00    -0.312 N 
ATOM     10  C   UNL     1      -2.051  -0.643  -1.145  0.00  0.00    +0.227 C 
ATOM     11  O   UNL     1      -1.524  -0.341  -2.194  0.00  0.00    -0.274 OA
ATOM     12  H   UNL     1      -1.794  -0.752   0.852  0.00  0.00    +0.149 HD
BRANCH   9  14
ATOM     13  C   UNL     1      -0.019   1.526   0.010  0.00  0.00    +0.027 C 
ATOM     14  C   UNL     1       0.002  -0.004   0.002  0.00  0.00    +0.067 C 
ATOM     15  C   UNL     1       0.742  -0.511   1.242  0.00  0.00    +0.027 C 
ENDBRANCH   9  14
ENDBRANCH   8  10
ENDBRANCH   1   8
BRANCH   4  16
ATOM     16  C   UNL     1      -5.712  -2.484  -6.130  0.00  0.00    +0.072 C 
BRANCH  16  17
ATOM     17  N   UNL     1      -7.116  -2.902  -6.143  0.00  0.00    -0.257 N 
ATOM     18  C   UNL     1      -7.586  -4.103  -6.535  0.00  0.00    +0.181 A 
ATOM     19  S   UNL     1      -6.647  -5.414  -7.109  0.00  0.00    -0.011 S 
ATOM     20  N   UNL     1      -8.927  -4.088  -6.396  0.00  0.00    -0.279 N 
ATOM     21  C   UNL     1      -9.884  -5.041  -6.649  0.00  0.00    +0.095 A 
ATOM     22  C   UNL     1     -11.185  -4.784  -6.425  0.00  0.00    +0.018 A 
ATOM     23  C   UNL     1     -11.593  -3.530  -5.925  0.00  0.00    +0.005 A 
ATOM     24  C   UNL     1     -10.668  -2.574  -5.667  0.00  0.00    +0.048 A 
ATOM     25  C   UNL     1      -9.297  -2.850  -5.905  0.00  0.00    +0.160 A 
ATOM     26  N   UNL     1      -8.214  -2.127  -5.743  0.00  0.00    -0.153 NA
ENDBRANCH  16  17
ENDBRANCH   4  16
TORSDOF 5
