REMARK  Name = ZINC49548497
REMARK  3 active torsions:
REMARK  status: ('A' for Active; 'I' for Inactive)
REMARK    1  A    between atoms: C_1  and  N_2
REMARK    2  A    between atoms: C_7  and  C_13
REMARK    3  A    between atoms: C_16  and  C_18
REMARK                            x       y       z     vdW  Elec       q    Type
REMARK                         _______ _______ _______ _____ _____    ______ ____
ROOT
ATOM      1  C   UNL     1       1.452  -3.640  -1.939  0.00  0.00    +0.114 A 
ATOM      2  C   UNL     1       2.005  -4.847  -1.709  0.00  0.00    +0.046 A 
ATOM      3  C   UNL     1       3.341  -4.779  -2.153  0.00  0.00    +0.050 A 
ATOM      4  C   UNL     1       3.531  -3.522  -2.635  0.00  0.00    +0.137 A 
ATOM      5  O   UNL     1       2.374  -2.844  -2.503  0.00  0.00    -0.459 OA
ENDROOT
BRANCH   1  12
ATOM      6  C   UNL     1      -0.018   1.461   0.010  0.00  0.00    +0.174 C 
ATOM      7  N   UNL     1       0.002  -0.004   0.002  0.00  0.00    -0.253 N 
ATOM      8  C   UNL     1       0.008  -0.788  -1.085  0.00  0.00    +0.127 A 
ATOM      9  C   UNL     1       0.025  -2.091  -0.659  0.00  0.00    +0.023 A 
ATOM     10  C   UNL     1       0.033  -2.087   0.727  0.00  0.00    +0.140 A 
ATOM     11  N   UNL     1       0.025  -0.838   1.132  0.00  0.00    -0.178 NA
ATOM     12  C   UNL     1       0.031  -3.251  -1.621  0.00  0.00    +0.099 C 
ATOM     13  C   UNL     1      -0.685  -2.817  -2.904  0.00  0.00    +0.112 C 
ATOM     14  C   UNL     1      -0.263  -1.441  -3.330  0.00  0.00    +0.219 C 
ATOM     15  O   UNL     1      -0.156  -1.203  -4.515  0.00  0.00    -0.275 OA
ATOM     16  N   UNL     1       0.002  -0.460  -2.441  0.00  0.00    -0.270 N 
ATOM     17  H   UNL     1       0.182   0.446  -2.736  0.00  0.00    +0.156 HD
ENDBRANCH   1  12
BRANCH   4  18
ATOM     18  C   UNL     1       4.786  -2.993  -3.207  0.00  0.00    +0.037 A 
ATOM     19  C   UNL     1       5.991  -3.150  -2.521  0.00  0.00    +0.033 A 
ATOM     20  C   UNL     1       7.160  -2.654  -3.061  0.00  0.00    +0.042 A 
ATOM     21  C   UNL     1       7.139  -2.001  -4.283  0.00  0.00    +0.021 A 
ATOM     22  C   UNL     1       5.949  -1.841  -4.968  0.00  0.00    +0.022 A 
ATOM     23  C   UNL     1       4.773  -2.338  -4.441  0.00  0.00    +0.052 A 
ATOM     24 CL   UNL     1       3.280  -2.143  -5.307  0.00  0.00    -0.083 Cl
ATOM     25 CL   UNL     1       8.660  -2.848  -2.209  0.00  0.00    -0.084 Cl
ENDBRANCH   4  18
TORSDOF 2
