REMARK  Name = ZINC09729573
REMARK  6 active torsions:
REMARK  status: ('A' for Active; 'I' for Inactive)
REMARK    1  A    between atoms: C_6  and  N_7
REMARK    2  A    between atoms: C_8  and  C_24
REMARK    3  A    between atoms: C_11  and  S_12
REMARK    4  A    between atoms: S_12  and  C_13
REMARK    5  A    between atoms: C_13  and  C_14
REMARK    6  A    between atoms: C_24  and  N_52
REMARK                            x       y       z     vdW  Elec       q    Type
REMARK                         _______ _______ _______ _____ _____    ______ ____
ROOT
ATOM      1  N   UNL     1       1.672  -7.416  -2.343  0.00  0.00    -0.276 N 
ATOM      2  C   UNL     1       1.674  -8.616  -1.682  0.00  0.00    +0.122 A 
ATOM      3  N   UNL     1       1.317  -8.380  -0.451  0.00  0.00    -0.135 NA
ATOM      4  N   UNL     1       1.096  -7.125  -0.286  0.00  0.00    -0.122 NA
ATOM      5  C   UNL     1       1.293  -6.485  -1.416  0.00  0.00    +0.196 A 
ENDROOT
BRANCH   1  11
ATOM      6  C   UNL     1       1.200  -7.731  -4.693  0.00  0.00    +0.029 A 
ATOM      7  C   UNL     1       1.514  -7.504  -6.019  0.00  0.00    +0.040 A 
ATOM      8  C   UNL     1       2.624  -6.745  -6.348  0.00  0.00    +0.124 A 
ATOM      9  C   UNL     1       3.419  -6.208  -5.348  0.00  0.00    +0.040 A 
ATOM     10  C   UNL     1       3.105  -6.429  -4.022  0.00  0.00    +0.029 A 
ATOM     11  C   UNL     1       1.992  -7.190  -3.690  0.00  0.00    +0.050 A 
ATOM     12  F   UNL     1       2.933  -6.527  -7.645  0.00  0.00    -0.205 F 
ENDBRANCH   1  11
BRANCH   5  13
ATOM     13  S   UNL     1       1.110  -4.753  -1.684  0.00  0.00    -0.079 S 
BRANCH  13  14
ATOM     14  C   UNL     1       0.600  -4.230  -0.028  0.00  0.00    +0.133 C 
BRANCH  14  15
ATOM     15  C   UNL     1       0.379  -2.739  -0.018  0.00  0.00    +0.059 A 
ATOM     16  C   UNL     1      -0.897  -2.219  -0.003  0.00  0.00    +0.095 A 
ATOM     17  C   UNL     1      -1.082  -0.836   0.007  0.00  0.00    +0.259 A 
ATOM     18  O   UNL     1      -2.210  -0.370   0.021  0.00  0.00    -0.267 OA
ATOM     19  N   UNL     1       0.002  -0.004   0.002  0.00  0.00    -0.262 N 
ATOM     20  C   UNL     1      -0.017   1.370   0.010  0.00  0.00    +0.104 A 
ATOM     21  C   UNL     1       1.115   2.074   0.003  0.00  0.00    +0.067 A 
ATOM     22  S   UNL     1       2.349   0.782  -0.015  0.00  0.00    -0.058 S 
ATOM     23  C   UNL     1       1.233  -0.605  -0.013  0.00  0.00    +0.180 A 
ATOM     24  N   UNL     1       1.413  -1.902  -0.022  0.00  0.00    -0.227 NA
ENDBRANCH  14  15
ENDBRANCH  13  14
ENDBRANCH   5  13
BRANCH   2  25
ATOM     25  C   UNL     1       2.025  -9.958  -2.269  0.00  0.00    -0.001 C 
BRANCH  25  31
ATOM     26  C   UNL     1       4.249  -9.248  -2.909  0.00  0.00    -0.078 C 
ATOM     27  C   UNL     1       5.739  -9.434  -2.610  0.00  0.00    -0.019 C 
ATOM     28  C   UNL     1       6.147 -10.871  -2.948  0.00  0.00    -0.004 C 
ATOM     29  C   UNL     1       5.283 -11.842  -2.140  0.00  0.00    -0.019 C 
ATOM     30  C   UNL     1       3.807 -11.587  -2.453  0.00  0.00    -0.078 C 
ATOM     31  N   UNL     1       3.472 -10.195  -2.082  0.00  0.00    +0.384 N 
ATOM     32  H   UNL     1       3.709 -10.047  -1.094  0.00  0.00    -0.081 HD
ENDBRANCH  25  31
ENDBRANCH   2  25
TORSDOF 6
