REMARK  Name = ZINC14347128
REMARK  6 active torsions:
REMARK  status: ('A' for Active; 'I' for Inactive)
REMARK    1  A    between atoms: C_1  and  C_2
REMARK    2  A    between atoms: C_5  and  C_34
REMARK    3  A    between atoms: N_8  and  S_10
REMARK    4  A    between atoms: S_10  and  C_13
REMARK    5  A    between atoms: C_16  and  N_19
REMARK    6  A    between atoms: C_20  and  C_22
REMARK                            x       y       z     vdW  Elec       q    Type
REMARK                         _______ _______ _______ _____ _____    ______ ____
ROOT
ATOM      1  C   UNL     1      -0.010   1.391   0.030  0.00  0.00    +0.106 A 
ATOM      2  C   UNL     1       1.179   2.097   0.025  0.00  0.00    +0.030 A 
ATOM      3  C   UNL     1       2.385   1.423   0.003  0.00  0.00    +0.025 A 
ATOM      4  C   UNL     1       2.402   0.035  -0.014  0.00  0.00    +0.034 A 
ATOM      5  C   UNL     1       1.206  -0.672  -0.009  0.00  0.00    +0.025 A 
ATOM      6  C   UNL     1       0.004   0.008   0.013  0.00  0.00    +0.030 A 
ENDROOT
BRANCH   4   7
ATOM      7  N   UNL     1       3.622  -0.651  -0.036  0.00  0.00    -0.285 N 
ATOM      8  C   UNL     1       4.669  -0.140  -0.713  0.00  0.00    +0.225 C 
ATOM      9  O   UNL     1       4.582   0.953  -1.232  0.00  0.00    -0.275 OA
ATOM     10  H   UNL     1       3.713  -1.493   0.435  0.00  0.00    +0.155 HD
BRANCH   8  11
ATOM     11  C   UNL     1       5.950  -0.927  -0.825  0.00  0.00    +0.116 C 
ATOM     12  C   UNL     1       6.507  -1.194   0.574  0.00  0.00    +0.113 C 
ATOM     13  C   UNL     1       7.043   0.082   1.164  0.00  0.00    +0.218 C 
ATOM     14  O   UNL     1       6.933   0.284   2.355  0.00  0.00    -0.275 OA
ATOM     15  N   UNL     1       7.644   1.002   0.387  0.00  0.00    -0.285 N 
ATOM     16  C   UNL     1       7.764   0.795  -0.991  0.00  0.00    +0.037 A 
ATOM     17  C   UNL     1       6.955  -0.139  -1.625  0.00  0.00    -0.014 A 
ATOM     18  C   UNL     1       7.072  -0.343  -2.985  0.00  0.00    +0.006 A 
ATOM     19  C   UNL     1       7.995   0.382  -3.717  0.00  0.00    +0.000 A 
ATOM     20  C   UNL     1       8.802   1.312  -3.089  0.00  0.00    +0.002 A 
ATOM     21  C   UNL     1       8.690   1.521  -1.728  0.00  0.00    +0.023 A 
ATOM     22  H   UNL     1       7.995   1.813   0.784  0.00  0.00    +0.155 HD
ENDBRANCH   8  11
ENDBRANCH   4   7
BRANCH   1  23
ATOM     23  S   UNL     1      -1.545   2.254   0.050  0.00  0.00    +0.061 S 
ATOM     24  O   UNL     1      -1.293   3.545  -0.487  0.00  0.00    -0.153 OA
ATOM     25  O   UNL     1      -2.513   1.374  -0.505  0.00  0.00    -0.153 OA
BRANCH  23  31
ATOM     26  C   UNL     1      -0.733   0.355   3.269  0.00  0.00    +0.009 C 
ATOM     27  C   UNL     1      -2.039   1.067   3.629  0.00  0.00    +0.002 C 
ATOM     28  C   UNL     1      -1.727   2.319   4.452  0.00  0.00    +0.009 C 
ATOM     29  C   UNL     1      -0.813   3.246   3.648  0.00  0.00    +0.002 C 
ATOM     30  C   UNL     1      -1.530   3.677   2.365  0.00  0.00    +0.112 C 
ATOM     31  N   UNL     1      -1.962   2.475   1.638  0.00  0.00    -0.176 NA
ATOM     32  C   UNL     1      -2.775   1.476   2.344  0.00  0.00    +0.112 C 
ATOM     33  C   UNL     1      -0.475   4.482   4.484  0.00  0.00    +0.009 C 
ENDBRANCH  23  31
ENDBRANCH   1  23
TORSDOF 4
