REMARK  Name = ZINC32651210
REMARK  7 active torsions:
REMARK  status: ('A' for Active; 'I' for Inactive)
REMARK    1  A    between atoms: C_1  and  C_2
REMARK    2  A    between atoms: C_5  and  N_12
REMARK    3  A    between atoms: C_7  and  C_9
REMARK    4  A    between atoms: C_9  and  C_10
REMARK    5  A    between atoms: C_9  and  C_11
REMARK    6  A    between atoms: C_16  and  C_19
REMARK    7  A    between atoms: N_20  and  C_22
REMARK                            x       y       z     vdW  Elec       q    Type
REMARK                         _______ _______ _______ _____ _____    ______ ____
ROOT
ATOM      1  C   UNL     1      -3.604   8.084  -4.154  0.00  0.00    +0.070 C 
ATOM      2  C   UNL     1      -2.729   7.200  -3.302  0.00  0.00    +0.086 A 
ATOM      3  C   UNL     1      -2.456   5.837  -3.543  0.00  0.00    +0.117 A 
ATOM      4  C   UNL     1      -1.602   5.404  -2.512  0.00  0.00    +0.127 A 
ATOM      5  C   UNL     1      -1.174   4.069  -2.518  0.00  0.00    +0.151 A 
ATOM      6  N   UNL     1      -1.589   3.274  -3.497  0.00  0.00    -0.215 NA
ATOM      7  C   UNL     1      -2.397   3.718  -4.445  0.00  0.00    +0.134 A 
ATOM      8  N   UNL     1      -2.825   4.959  -4.484  0.00  0.00    -0.228 NA
ATOM      9  N   UNL     1      -1.386   6.483  -1.698  0.00  0.00    -0.262 N 
ATOM     10  N   UNL     1      -2.100   7.569  -2.222  0.00  0.00    -0.174 NA
ATOM     11  C   UNL     1      -0.556   6.500  -0.492  0.00  0.00    +0.173 C 
ENDROOT
BRANCH   5  12
ATOM     12  N   UNL     1      -0.334   3.592  -1.527  0.00  0.00    -0.313 N 
ATOM     13  C   UNL     1       0.958   3.175  -2.089  0.00  0.00    +0.106 C 
ATOM     14  C   UNL     1       1.909   2.791  -0.953  0.00  0.00    +0.019 C 
ATOM     15  C   UNL     1       1.292   1.649  -0.141  0.00  0.00    +0.006 C 
ATOM     16  C   UNL     1      -0.073   2.092   0.392  0.00  0.00    +0.003 C 
ATOM     17  C   UNL     1      -0.967   2.496  -0.782  0.00  0.00    +0.109 C 
ATOM     18  C   UNL     1      -0.723   0.936   1.155  0.00  0.00    +0.009 C 
ENDBRANCH   5  12
BRANCH   7  19
ATOM     19  C   UNL     1      -2.839   2.765  -5.525  0.00  0.00    +0.051 C 
ATOM     20  C   UNL     1      -4.365   2.650  -5.511  0.00  0.00    +0.015 C 
ATOM     21  C   UNL     1      -2.380   3.290  -6.887  0.00  0.00    +0.015 C 
ENDBRANCH   7  19
TORSDOF 2
