REMARK  Name = ZINC67299135
REMARK  6 active torsions:
REMARK  status: ('A' for Active; 'I' for Inactive)
REMARK    1  A    between atoms: C_1  and  O_2
REMARK    2  A    between atoms: O_2  and  C_3
REMARK    3  A    between atoms: N_11  and  C_12
REMARK    4  A    between atoms: C_20  and  C_22
REMARK    5  A    between atoms: N_24  and  C_25
REMARK    6  A    between atoms: C_25  and  C_26
REMARK                            x       y       z     vdW  Elec       q    Type
REMARK                         _______ _______ _______ _____ _____    ______ ____
ROOT
ATOM      1  C   UNL     1      -1.288  -0.580   1.124  0.00  0.00    +0.163 A 
ATOM      2  C   UNL     1      -2.448   0.118   1.417  0.00  0.00    +0.049 A 
ATOM      3  C   UNL     1      -3.674  -0.529   1.441  0.00  0.00    +0.004 A 
ATOM      4  C   UNL     1      -3.757  -1.878   1.175  0.00  0.00    +0.012 A 
ATOM      5  C   UNL     1      -2.594  -2.600   0.880  0.00  0.00    +0.022 A 
ATOM      6  C   UNL     1      -1.351  -1.942   0.846  0.00  0.00    +0.179 A 
ATOM      7  O   UNL     1      -0.226  -2.638   0.545  0.00  0.00    -0.435 OA
ATOM      8  C   UNL     1      -0.225  -3.963   0.839  0.00  0.00    +0.212 A 
ATOM      9  N   UNL     1       0.840  -4.543   1.348  0.00  0.00    -0.323 N 
ATOM     10  C   UNL     1      -1.456  -4.733   0.571  0.00  0.00    +0.097 A 
ATOM     11  C   UNL     1      -2.654  -4.037   0.600  0.00  0.00    +0.030 A 
ATOM     12  H   UNL     1       0.803  -5.474   1.619  0.00  0.00    +0.169 HD
ENDROOT
BRANCH   9  13
ATOM     13  C   UNL     1       2.001  -3.834   1.495  0.00  0.00    +0.079 A 
ATOM     14  C   UNL     1       2.508  -3.090   0.428  0.00  0.00    +0.048 A 
ATOM     15  C   UNL     1       3.680  -2.377   0.583  0.00  0.00    +0.043 A 
ATOM     16  C   UNL     1       4.353  -2.398   1.793  0.00  0.00    +0.023 A 
ATOM     17  C   UNL     1       3.857  -3.133   2.855  0.00  0.00    +0.042 A 
ATOM     18  C   UNL     1       2.682  -3.847   2.716  0.00  0.00    +0.147 A 
ATOM     19  F   UNL     1       2.196  -4.559   3.756  0.00  0.00    -0.203 F 
ATOM     20 CL   UNL     1       4.313  -1.452  -0.743  0.00  0.00    -0.083 Cl
ENDBRANCH   9  13
BRANCH  10  21
ATOM     21  C   UNL     1      -1.413  -6.179   0.294  0.00  0.00    +0.250 C 
ATOM     22  O   UNL     1      -0.354  -6.776   0.341  0.00  0.00    -0.270 OA
ATOM     23  N   UNL     1      -2.547  -6.841  -0.010  0.00  0.00    -0.304 N 
ATOM     24  H   UNL     1      -3.400  -6.382   0.024  0.00  0.00    +0.149 HD
BRANCH  23  25
ATOM     25  C   UNL     1      -2.490  -8.254  -0.393  0.00  0.00    +0.179 C 
BRANCH  25  26
ATOM     26  C   UNL     1      -3.882  -8.753  -0.680  0.00  0.00    +0.122 A 
ATOM     27  C   UNL     1      -4.494  -8.730  -1.878  0.00  0.00    +0.046 A 
ATOM     28  C   UNL     1      -5.778  -9.292  -1.693  0.00  0.00    +0.041 A 
ATOM     29  C   UNL     1      -5.874  -9.624  -0.393  0.00  0.00    +0.195 A 
ATOM     30  O   UNL     1      -4.721  -9.301   0.214  0.00  0.00    -0.466 OA
ENDBRANCH  25  26
ENDBRANCH  23  25
ENDBRANCH  10  21
BRANCH   1  32
ATOM     31  C   UNL     1      -0.103   1.464   1.399  0.00  0.00    +0.277 C 
ATOM     32  O   UNL     1      -0.091   0.066   1.103  0.00  0.00    -0.491 OA
ENDBRANCH   1  32
TORSDOF 5
