REMARK  Name = ZINC49643221
REMARK  4 active torsions:
REMARK  status: ('A' for Active; 'I' for Inactive)
REMARK    1  A    between atoms: C_4  and  N_10
REMARK    2  A    between atoms: C_6  and  N_7
REMARK    3  A    between atoms: N_10  and  S_11
REMARK    4  A    between atoms: S_11  and  C_14
REMARK                            x       y       z     vdW  Elec       q    Type
REMARK                         _______ _______ _______ _____ _____    ______ ____
ROOT
ATOM      1  N   UNL     1       3.620  -0.654  -0.037  0.00  0.00    -0.099 NA
ENDROOT
BRANCH   1   5
ATOM      2  C   UNL     1      -0.017   1.378   0.010  0.00  0.00    +0.035 A 
ATOM      3  C   UNL     1       1.170   2.089   0.002  0.00  0.00    +0.042 A 
ATOM      4  C   UNL     1       2.379   1.419  -0.013  0.00  0.00    +0.148 A 
ATOM      5  C   UNL     1       2.400   0.028  -0.021  0.00  0.00    +0.111 A 
ATOM      6  C   UNL     1       1.207  -0.681  -0.013  0.00  0.00    +0.062 A 
ATOM      7  C   UNL     1       0.002  -0.004   0.002  0.00  0.00    +0.128 A 
ATOM      8  F   UNL     1       3.537   2.113  -0.021  0.00  0.00    -0.203 F 
BRANCH   7   9
ATOM      9  N   UNL     1      -1.270  -0.760   0.011  0.00  0.00    +0.056 N 
ATOM     10  O   UNL     1      -2.325  -0.169   0.024  0.00  0.00    -0.126 OA
ATOM     11  O   UNL     1      -1.255  -1.969   0.004  0.00  0.00    -0.126 OA
ENDBRANCH   7   9
ENDBRANCH   1   5
BRANCH   1  12
ATOM     12  S   UNL     1       5.043   0.194  -0.046  0.00  0.00    +0.065 S 
ATOM     13  O   UNL     1       5.034   0.904  -1.277  0.00  0.00    -0.153 OA
ATOM     14  O   UNL     1       5.058   0.890   1.192  0.00  0.00    -0.153 OA
BRANCH  12  15
ATOM     15  C   UNL     1       6.341  -1.073  -0.066  0.00  0.00    +0.150 C 
ATOM     16  C   UNL     1       6.146  -2.024   1.119  0.00  0.00    +0.009 C 
ATOM     17  C   UNL     1       7.289  -3.042   1.142  0.00  0.00    -0.081 C 
ATOM     18  N   UNL     1       8.571  -2.340   1.281  0.00  0.00    +0.379 N 
ATOM     19  C   UNL     1       8.797  -1.481   0.113  0.00  0.00    -0.081 C 
ATOM     20  C   UNL     1       7.713  -0.403   0.050  0.00  0.00    +0.009 C 
ATOM     21  H   UNL     1       8.555  -1.774   2.116  0.00  0.00    -0.086 HD
ATOM     22  H   UNL     1       9.317  -3.016   1.349  0.00  0.00    -0.086 HD
ENDBRANCH  12  15
ENDBRANCH   1  12
TORSDOF 4
