REMARK  Name = ZINC10402992
REMARK  10 active torsions:
REMARK  status: ('A' for Active; 'I' for Inactive)
REMARK    1  A    between atoms: C_1  and  C_2
REMARK    2  A    between atoms: C_5  and  C_8
REMARK    3  A    between atoms: C_8  and  N_9
REMARK    4  A    between atoms: N_12  and  C_13
REMARK    5  A    between atoms: C_13  and  C_14
REMARK    6  A    between atoms: N_16  and  N_17
REMARK    7  A    between atoms: C_18  and  C_20
REMARK    8  A    between atoms: C_20  and  C_22
REMARK    9  A    between atoms: C_20  and  O_23
REMARK   10  A    between atoms: O_23  and  C_24
REMARK                            x       y       z     vdW  Elec       q    Type
REMARK                         _______ _______ _______ _____ _____    ______ ____
ROOT
ATOM      1  C   UNL     1       4.465  -8.480   0.392  0.00  0.00    +0.246 C 
ATOM      2  O   UNL     1       5.142  -7.493   0.588  0.00  0.00    -0.273 OA
ATOM      3  N   UNL     1       5.056  -9.678   0.210  0.00  0.00    -0.233 N 
ATOM      4  H   UNL     1       4.515 -10.467   0.054  0.00  0.00    +0.173 HD
ENDROOT
BRANCH   3   5
ATOM      5  N   UNL     1       6.453  -9.782   0.247  0.00  0.00    -0.231 N 
ATOM      6  C   UNL     1       7.044 -10.980   0.065  0.00  0.00    +0.270 C 
ATOM      7  O   UNL     1       6.367 -11.967  -0.131  0.00  0.00    -0.270 OA
ATOM      8  H   UNL     1       6.995  -8.993   0.403  0.00  0.00    +0.173 HD
BRANCH   6   9
ATOM      9  C   UNL     1       8.546 -11.092   0.104  0.00  0.00    +0.257 C 
ATOM     10  C   UNL     1       9.147 -10.310  -1.066  0.00  0.00    +0.062 C 
BRANCH   9  11
ATOM     11  O   UNL     1       8.924 -12.467   0.002  0.00  0.00    -0.480 OA
BRANCH  11  12
ATOM     12  C   UNL     1      10.131 -12.815   0.522  0.00  0.00    +0.122 A 
ATOM     13  C   UNL     1      10.980 -11.838   1.021  0.00  0.00    +0.048 A 
ATOM     14  C   UNL     1      12.206 -12.194   1.549  0.00  0.00    +0.042 A 
ATOM     15  C   UNL     1      12.587 -13.525   1.581  0.00  0.00    +0.124 A 
ATOM     16  C   UNL     1      11.740 -14.501   1.083  0.00  0.00    +0.042 A 
ATOM     17  C   UNL     1      10.511 -14.149   0.561  0.00  0.00    +0.048 A 
ATOM     18  F   UNL     1      13.786 -13.871   2.098  0.00  0.00    -0.205 F 
ENDBRANCH  11  12
ENDBRANCH   9  11
ENDBRANCH   6   9
ENDBRANCH   3   5
BRANCH   1  19
ATOM     19  C   UNL     1       2.963  -8.368   0.353  0.00  0.00    +0.203 C 
BRANCH  19  23
ATOM     20  N   UNL     1       0.907  -5.351   0.790  0.00  0.00    -0.295 N 
ATOM     21  C   UNL     1       1.268  -6.633   0.584  0.00  0.00    +0.300 C 
ATOM     22  O   UNL     1       0.416  -7.482   0.405  0.00  0.00    -0.253 OA
ATOM     23  N   UNL     1       2.571  -6.974   0.577  0.00  0.00    -0.291 N 
ATOM     24  H   UNL     1       1.587  -4.673   0.932  0.00  0.00    +0.151 HD
ATOM     25  H   UNL     1       3.251  -6.296   0.719  0.00  0.00    +0.151 HD
BRANCH  20  26
ATOM     26  C   UNL     1      -0.510  -4.980   0.798  0.00  0.00    +0.141 C 
BRANCH  26  31
ATOM     27  C   UNL     1      -1.014   0.697   1.752  0.00  0.00    +0.044 C 
ATOM     28  C   UNL     1      -0.883  -0.783   1.503  0.00  0.00    -0.050 A 
ATOM     29  C   UNL     1      -0.775  -1.260   0.210  0.00  0.00    +0.003 A 
ATOM     30  C   UNL     1      -0.654  -2.618  -0.018  0.00  0.00    +0.005 A 
ATOM     31  C   UNL     1      -0.640  -3.499   1.047  0.00  0.00    -0.030 A 
ATOM     32  C   UNL     1      -0.747  -3.023   2.340  0.00  0.00    +0.005 A 
ATOM     33  C   UNL     1      -0.863  -1.664   2.568  0.00  0.00    +0.003 A 
ENDBRANCH  26  31
ENDBRANCH  20  26
ENDBRANCH  19  23
ENDBRANCH   1  19
TORSDOF 8
