REMARK  Name = ZINC64818493
REMARK  5 active torsions:
REMARK  status: ('A' for Active; 'I' for Inactive)
REMARK    1  A    between atoms: C_1  and  C_2
REMARK    2  A    between atoms: C_2  and  C_3
REMARK    3  A    between atoms: C_2  and  N_4
REMARK    4  A    between atoms: C_8  and  C_13
REMARK    5  A    between atoms: N_15  and  C_16
REMARK                            x       y       z     vdW  Elec       q    Type
REMARK                         _______ _______ _______ _____ _____    ______ ____
ROOT
ATOM      1  N   UNL     1       0.716  -0.436  -1.206  0.00  0.00    -0.241 N 
ATOM      2  C   UNL     1       1.837  -1.226  -1.254  0.00  0.00    +0.089 A 
ATOM      3  C   UNL     1       2.652  -1.801  -0.281  0.00  0.00    +0.030 A 
ATOM      4  C   UNL     1       3.726  -2.557  -0.646  0.00  0.00    +0.015 A 
ATOM      5  C   UNL     1       4.021  -2.763  -2.002  0.00  0.00    +0.039 A 
ATOM      6  C   UNL     1       3.221  -2.198  -2.987  0.00  0.00    +0.044 A 
ATOM      7  C   UNL     1       2.118  -1.423  -2.618  0.00  0.00    +0.113 A 
ATOM      8  N   UNL     1       1.176  -0.758  -3.329  0.00  0.00    -0.129 NA
ATOM      9  N   UNL     1       0.345  -0.182  -2.534  0.00  0.00    -0.064 NA
ENDROOT
BRANCH   5  10
ATOM     10  C   UNL     1       5.188  -3.584  -2.383  0.00  0.00    +0.248 C 
ATOM     11  O   UNL     1       5.447  -3.764  -3.558  0.00  0.00    -0.270 OA
ATOM     12  N   UNL     1       5.967  -4.133  -1.430  0.00  0.00    -0.280 N 
ATOM     13  H   UNL     1       5.800  -3.936  -0.495  0.00  0.00    +0.155 HD
BRANCH  12  14
ATOM     14  C   UNL     1       7.016  -4.987  -1.789  0.00  0.00    +0.052 A 
ATOM     15  C   UNL     1       7.729  -4.759  -2.958  0.00  0.00    +0.027 A 
ATOM     16  C   UNL     1       8.765  -5.603  -3.311  0.00  0.00    +0.040 A 
ATOM     17  C   UNL     1       9.092  -6.676  -2.499  0.00  0.00    +0.125 A 
ATOM     18  C   UNL     1       8.383  -6.906  -1.333  0.00  0.00    +0.060 A 
ATOM     19  C   UNL     1       7.349  -6.061  -0.973  0.00  0.00    +0.065 A 
ATOM     20 CL   UNL     1       6.465  -6.345   0.493  0.00  0.00    -0.082 Cl
ATOM     21  F   UNL     1      10.105  -7.500  -2.846  0.00  0.00    -0.205 F 
ENDBRANCH  12  14
ENDBRANCH   5  10
BRANCH   1  23
ATOM     22  C   UNL     1       0.025   1.572   0.006  0.00  0.00    +0.032 C 
ATOM     23  C   UNL     1       0.034   0.042  -0.001  0.00  0.00    +0.103 C 
ATOM     24  C   UNL     1      -1.405  -0.476   0.011  0.00  0.00    +0.032 C 
ENDBRANCH   1  23
TORSDOF 3
