REMARK  Name = ZINC24094329
REMARK  11 active torsions:
REMARK  status: ('A' for Active; 'I' for Inactive)
REMARK    1  A    between atoms: C_1  and  C_2
REMARK    2  A    between atoms: C_2  and  C_3
REMARK    3  A    between atoms: C_2  and  C_4
REMARK    4  A    between atoms: C_2  and  C_5
REMARK    5  A    between atoms: C_8  and  O_11
REMARK    6  A    between atoms: O_11  and  C_12
REMARK    7  A    between atoms: C_12  and  C_13
REMARK    8  A    between atoms: C_13  and  C_15
REMARK    9  A    between atoms: C_13  and  O_29
REMARK   10  A    between atoms: C_15  and  S_16
REMARK   11  A    between atoms: S_16  and  C_17
REMARK                            x       y       z     vdW  Elec       q    Type
REMARK                         _______ _______ _______ _____ _____    ______ ____
ROOT
ATOM      1  C   UNL     1       4.544  -2.009  -6.106  0.00  0.00    +0.162 C 
ENDROOT
BRANCH   1   2
ATOM      2  O   UNL     1       3.843  -1.439  -7.213  0.00  0.00    -0.388 OA
ATOM      3  H   UNL     1       3.923  -0.477  -7.277  0.00  0.00    +0.210 HD
ENDBRANCH   1   2
BRANCH   1   4
ATOM      4  C   UNL     1       4.000  -1.423  -4.801  0.00  0.00    +0.261 C 
BRANCH   4   5
ATOM      5  O   UNL     1       2.639  -1.822  -4.631  0.00  0.00    -0.489 OA
BRANCH   5   9
ATOM      6  C   UNL     1       0.707  -0.490  -1.238  0.00  0.00    -0.042 A 
ATOM      7  C   UNL     1       0.035  -1.284  -2.148  0.00  0.00    +0.008 A 
ATOM      8  C   UNL     1       0.679  -1.732  -3.285  0.00  0.00    +0.046 A 
ATOM      9  C   UNL     1       2.002  -1.383  -3.514  0.00  0.00    +0.121 A 
ATOM     10  C   UNL     1       2.675  -0.585  -2.599  0.00  0.00    +0.046 A 
ATOM     11  C   UNL     1       2.024  -0.136  -1.466  0.00  0.00    +0.008 A 
BRANCH   6  13
ATOM     12  C   UNL     1      -0.019   1.526   0.010  0.00  0.00    +0.015 C 
ATOM     13  C   UNL     1       0.002  -0.004   0.002  0.00  0.00    -0.013 C 
ATOM     14  C   UNL     1       0.742  -0.511   1.242  0.00  0.00    +0.015 C 
ATOM     15  C   UNL     1      -1.433  -0.534   0.013  0.00  0.00    +0.015 C 
ENDBRANCH   6  13
ENDBRANCH   5   9
ENDBRANCH   4   5
ENDBRANCH   1   4
BRANCH   1  16
ATOM     16  C   UNL     1       6.035  -1.687  -6.227  0.00  0.00    +0.112 C 
BRANCH  16  17
ATOM     17  S   UNL     1       6.680  -2.382  -7.774  0.00  0.00    -0.083 S 
BRANCH  17  18
ATOM     18  C   UNL     1       8.383  -1.932  -7.766  0.00  0.00    +0.197 A 
ATOM     19  N   UNL     1       8.989  -1.256  -6.824  0.00  0.00    -0.121 NA
ATOM     20  N   UNL     1      10.333  -1.108  -7.192  0.00  0.00    -0.121 NA
ATOM     21  C   UNL     1      10.492  -1.698  -8.339  0.00  0.00    +0.202 A 
ATOM     22  N   UNL     1       9.306  -2.243  -8.753  0.00  0.00    -0.264 N 
ATOM     23  C   UNL     1       9.286  -2.930  -9.977  0.00  0.00    +0.065 A 
ATOM     24  C   UNL     1       8.175  -3.549 -10.570  0.00  0.00    +0.027 A 
ATOM     25  C   UNL     1       8.290  -4.193 -11.780  0.00  0.00    +0.002 A 
ATOM     26  C   UNL     1       9.500  -4.252 -12.450  0.00  0.00    +0.001 A 
ATOM     27  C   UNL     1      10.612  -3.649 -11.887  0.00  0.00    +0.017 A 
ATOM     28  C   UNL     1      10.494  -3.005 -10.677  0.00  0.00    +0.040 A 
ATOM     29  S   UNL     1      11.629  -2.118  -9.638  0.00  0.00    -0.048 S 
ENDBRANCH  17  18
ENDBRANCH  16  17
ENDBRANCH   1  16
TORSDOF 8
