REMARK  Name = ZINC39469710
REMARK  5 active torsions:
REMARK  status: ('A' for Active; 'I' for Inactive)
REMARK    1  A    between atoms: C_1  and  O_2
REMARK    2  A    between atoms: O_2  and  C_3
REMARK    3  A    between atoms: P_19  and  S_22
REMARK    4  A    between atoms: S_22  and  O_25
REMARK    5  A    between atoms: O_25  and  C_26
REMARK                            x       y       z     vdW  Elec       q    Type
REMARK                         _______ _______ _______ _____ _____    ______ ____
ROOT
ATOM      1  C   UNL     1       0.626  -0.618   1.042  0.00  0.00    +0.151 C 
ATOM      2  C   UNL     1       1.183   0.109   2.017  0.00  0.00    +0.027 C 
ATOM      3  C   UNL     1       1.854  -0.603   3.159  0.00  0.00    +0.038 C 
ATOM      4  C   UNL     1       1.925   0.277   4.402  0.00  0.00    +0.111 C 
ATOM      5  N   UNL     1       2.610  -0.449   5.488  0.00  0.00    -0.228 NA
ATOM      6  C   UNL     1       1.943  -1.704   5.837  0.00  0.00    +0.100 C 
ATOM      7  C   UNL     1       1.790  -2.609   4.606  0.00  0.00    +0.031 C 
ATOM      8  C   UNL     1       1.041  -1.856   3.511  0.00  0.00    +0.024 C 
ATOM      9  C   UNL     1       0.885  -2.699   2.275  0.00  0.00    +0.019 C 
ATOM     10  C   UNL     1       0.688  -2.094   1.104  0.00  0.00    +0.161 C 
ATOM     11  F   UNL     1       0.550  -2.827  -0.022  0.00  0.00    -0.202 F 
ATOM     12  C   UNL     1       2.752  -2.502   6.867  0.00  0.00    +0.191 C 
ATOM     13  O   UNL     1       2.887  -1.729   8.073  0.00  0.00    -0.297 OA
ATOM     14  P   UNL     1       3.422  -0.199   7.940  0.00  0.00    +0.458 P 
ATOM     15  O   UNL     1       4.895  -0.181   7.794  0.00  0.00    -0.243 OA
ATOM     16  N   UNL     1       2.688   0.403   6.571  0.00  0.00    -0.159 NA
ATOM     17  H   UNL     1       2.344   1.310   6.524  0.00  0.00    +0.152 HD
ENDROOT
BRANCH  14  18
ATOM     18  S   UNL     1       2.839   0.934   9.634  0.00  0.00    +0.211 S 
ATOM     19  O   UNL     1       3.463   2.204   9.508  0.00  0.00    -0.126 OA
ATOM     20  O   UNL     1       1.431   0.786   9.757  0.00  0.00    -0.126 OA
BRANCH  18  21
ATOM     21  O   UNL     1       3.455   0.266  10.855  0.00  0.00    -0.339 OA
BRANCH  21  22
ATOM     22  C   UNL     1       4.790   0.483  10.990  0.00  0.00    +0.157 A 
ATOM     23  C   UNL     1       5.698  -0.386  10.403  0.00  0.00    +0.048 A 
ATOM     24  C   UNL     1       7.054  -0.162  10.541  0.00  0.00    +0.004 A 
ATOM     25  C   UNL     1       7.507   0.926  11.264  0.00  0.00    +0.000 A 
ATOM     26  C   UNL     1       6.604   1.793  11.850  0.00  0.00    +0.004 A 
ATOM     27  C   UNL     1       5.246   1.578  11.710  0.00  0.00    +0.048 A 
ENDBRANCH  21  22
ENDBRANCH  18  21
ENDBRANCH  14  18
BRANCH   1  29
ATOM     28  C   UNL     1      -0.017   1.425   0.010  0.00  0.00    +0.277 C 
ATOM     29  O   UNL     1       0.002  -0.004   0.002  0.00  0.00    -0.493 OA
ENDBRANCH   1  29
TORSDOF 4
