REMARK  Name = ZINC05937733
REMARK  4 active torsions:
REMARK  status: ('A' for Active; 'I' for Inactive)
REMARK    1  A    between atoms: C_4  and  S_7
REMARK    2  A    between atoms: S_7  and  N_10
REMARK    3  A    between atoms: C_15  and  C_16
REMARK    4  A    between atoms: C_15  and  N_51
REMARK                            x       y       z     vdW  Elec       q    Type
REMARK                         _______ _______ _______ _____ _____    ______ ____
ROOT
ATOM      1  N   UNL     1      -0.018   1.467   0.010  0.00  0.00    -0.180 NA
ATOM      2  C   UNL     1       1.268   2.180   0.002  0.00  0.00    +0.091 C 
ATOM      3  C   UNL     1       2.147   1.614   1.123  0.00  0.00    -0.061 C 
ATOM      4  C   UNL     1       0.930  -0.484   1.123  0.00  0.00    -0.061 C 
ATOM      5  C   UNL     1       0.002  -0.004   0.002  0.00  0.00    +0.091 C 
ATOM      6  N   UNL     1       2.255   0.149   0.947  0.00  0.00    +0.387 N 
ATOM      7  H   UNL     1       2.594  -0.048  -0.002  0.00  0.00    -0.081 HD
ENDROOT
BRANCH   1   8
ATOM      8  S   UNL     1      -1.450   2.297   0.021  0.00  0.00    +0.061 S 
ATOM      9  O   UNL     1      -1.180   3.581  -0.524  0.00  0.00    -0.153 OA
ATOM     10  O   UNL     1      -2.429   1.426  -0.529  0.00  0.00    -0.153 OA
BRANCH   8  14
ATOM     11  C   UNL     1      -2.588   2.945   4.355  0.00  0.00    +0.000 A 
ATOM     12  C   UNL     1      -1.814   3.882   3.696  0.00  0.00    +0.002 A 
ATOM     13  C   UNL     1      -1.466   3.684   2.373  0.00  0.00    +0.028 A 
ATOM     14  C   UNL     1      -1.893   2.549   1.708  0.00  0.00    +0.105 A 
ATOM     15  C   UNL     1      -2.672   1.615   2.365  0.00  0.00    +0.028 A 
ATOM     16  C   UNL     1      -3.015   1.811   3.690  0.00  0.00    +0.002 A 
ENDBRANCH   8  14
ENDBRANCH   1   8
BRANCH   6  17
ATOM     17  C   UNL     1       3.214  -0.407   1.924  0.00  0.00    +0.019 C 
BRANCH  17  18
ATOM     18  C   UNL     1       4.596   0.089   1.583  0.00  0.00    +0.204 C 
ATOM     19  O   UNL     1       4.757   0.837   0.642  0.00  0.00    -0.277 OA
ATOM     20  N   UNL     1       5.652  -0.299   2.325  0.00  0.00    -0.262 N 
ATOM     21  C   UNL     1       5.483  -1.200   3.475  0.00  0.00    +0.209 C 
ATOM     22  C   UNL     1       6.343  -0.720   4.611  0.00  0.00    +0.235 C 
ATOM     23  O   UNL     1       6.003  -0.942   5.754  0.00  0.00    -0.274 OA
ATOM     24  N   UNL     1       7.483  -0.043   4.375  0.00  0.00    -0.283 N 
ATOM     25  C   UNL     1       7.872   0.270   3.068  0.00  0.00    +0.055 A 
ATOM     26  C   UNL     1       6.949   0.149   2.028  0.00  0.00    +0.058 A 
ATOM     27  C   UNL     1       7.315   0.467   0.733  0.00  0.00    +0.025 A 
ATOM     28  C   UNL     1       8.603   0.903   0.471  0.00  0.00    +0.002 A 
ATOM     29  C   UNL     1       9.519   1.020   1.499  0.00  0.00    +0.002 A 
ATOM     30  C   UNL     1       9.159   0.705   2.797  0.00  0.00    +0.025 A 
ATOM     31  H   UNL     1       8.040   0.231   5.120  0.00  0.00    +0.155 HD
ENDBRANCH  17  18
ENDBRANCH   6  17
TORSDOF 4
