REMARK  Name = ZINC62060876
REMARK  8 active torsions:
REMARK  status: ('A' for Active; 'I' for Inactive)
REMARK    1  A    between atoms: C_1  and  C_2
REMARK    2  A    between atoms: C_11  and  C_14
REMARK    3  A    between atoms: C_14  and  N_15
REMARK    4  A    between atoms: C_16  and  C_18
REMARK    5  A    between atoms: N_20  and  C_21
REMARK    6  A    between atoms: C_26  and  C_27
REMARK    7  A    between atoms: C_27  and  C_28
REMARK    8  A    between atoms: C_27  and  C_29
REMARK                            x       y       z     vdW  Elec       q    Type
REMARK                         _______ _______ _______ _____ _____    ______ ____
ROOT
ATOM      1  N   UNL     1      -2.304  -7.682   4.232  0.00  0.00    -0.303 N 
ATOM      2  C   UNL     1      -2.678  -8.756   4.955  0.00  0.00    +0.300 C 
ATOM      3  O   UNL     1      -3.207  -8.605   6.037  0.00  0.00    -0.265 OA
ATOM      4  H   UNL     1      -1.882  -7.803   3.368  0.00  0.00    +0.149 HD
ENDROOT
BRANCH   2   5
ATOM      5  C   UNL     1      -2.442 -10.132   4.425  0.00  0.00    +0.303 C 
ATOM      6  O   UNL     1      -1.913 -10.283   3.343  0.00  0.00    -0.265 OA
ATOM      7  N   UNL     1      -2.816 -11.207   5.148  0.00  0.00    -0.277 N 
ATOM      8  H   UNL     1      -3.288 -11.086   5.987  0.00  0.00    +0.155 HD
BRANCH   7   9
ATOM      9  C   UNL     1      -2.524 -12.494   4.689  0.00  0.00    +0.037 A 
ATOM     10  C   UNL     1      -2.357 -12.727   3.330  0.00  0.00    +0.023 A 
ATOM     11  C   UNL     1      -2.068 -14.000   2.880  0.00  0.00    +0.002 A 
ATOM     12  C   UNL     1      -1.945 -15.042   3.780  0.00  0.00    +0.000 A 
ATOM     13  C   UNL     1      -2.111 -14.814   5.134  0.00  0.00    +0.006 A 
ATOM     14  C   UNL     1      -2.394 -13.542   5.592  0.00  0.00    -0.024 A 
BRANCH  14  15
ATOM     15  C   UNL     1      -2.567 -13.292   7.068  0.00  0.00    +0.015 C 
ATOM     16  C   UNL     1      -3.799 -14.048   7.571  0.00  0.00    +0.012 C 
ATOM     17  C   UNL     1      -1.326 -13.782   7.817  0.00  0.00    +0.012 C 
ENDBRANCH  14  15
ENDBRANCH   7   9
ENDBRANCH   2   5
BRANCH   1  18
ATOM     18  C   UNL     1      -2.536  -6.332   4.753  0.00  0.00    +0.141 C 
BRANCH  18  29
ATOM     19  C   UNL     1       1.643  -1.750  -2.458  0.00  0.00    +0.007 C 
ATOM     20  C   UNL     1       0.844  -1.585  -1.163  0.00  0.00    -0.011 C 
ATOM     21  C   UNL     1       1.617  -2.216  -0.003  0.00  0.00    +0.022 C 
ATOM     22  C   UNL     1       0.831  -2.018   1.297  0.00  0.00    +0.107 C 
ATOM     23  N   UNL     1      -0.526  -2.551   1.115  0.00  0.00    -0.317 N 
ATOM     24  C   UNL     1      -1.324  -2.079  -0.025  0.00  0.00    +0.107 C 
ATOM     25  C   UNL     1      -0.513  -2.276  -1.310  0.00  0.00    +0.022 C 
ATOM     26  C   UNL     1      -1.045  -3.486   2.003  0.00  0.00    +0.099 A 
ATOM     27  C   UNL     1      -2.369  -3.896   1.878  0.00  0.00    +0.042 A 
ATOM     28  C   UNL     1      -2.872  -4.827   2.769  0.00  0.00    +0.010 A 
ATOM     29  C   UNL     1      -2.031  -5.318   3.760  0.00  0.00    -0.014 A 
ATOM     30  C   UNL     1      -0.728  -4.867   3.826  0.00  0.00    +0.089 A 
ATOM     31  N   UNL     1      -0.273  -3.982   2.958  0.00  0.00    -0.349 N 
ATOM     32  H   UNL     1       0.648  -3.685   3.025  0.00  0.00    +0.167 HD
ENDBRANCH  18  29
ENDBRANCH   1  18
TORSDOF 5
