REMARK  Name = ZINC67486959
REMARK  7 active torsions:
REMARK  status: ('A' for Active; 'I' for Inactive)
REMARK    1  A    between atoms: C_1  and  C_2
REMARK    2  A    between atoms: C_5  and  N_9
REMARK    3  A    between atoms: C_6  and  C_8
REMARK    4  A    between atoms: N_12  and  C_13
REMARK    5  A    between atoms: C_13  and  C_15
REMARK    6  A    between atoms: C_13  and  C_16
REMARK    7  A    between atoms: C_23  and  C_25
REMARK                            x       y       z     vdW  Elec       q    Type
REMARK                         _______ _______ _______ _____ _____    ______ ____
ROOT
ATOM      1  N   UNL     1      -0.909  -4.220  -0.022  0.00  0.00    -0.269 N 
ATOM      2  C   UNL     1      -1.056  -4.987  -1.120  0.00  0.00    +0.304 C 
ATOM      3  O   UNL     1      -1.402  -4.483  -2.171  0.00  0.00    -0.252 OA
ATOM      4  N   UNL     1      -0.821  -6.312  -1.053  0.00  0.00    -0.288 N 
ATOM      5  H   UNL     1      -0.571  -4.610   0.800  0.00  0.00    +0.156 HD
ATOM      6  H   UNL     1      -0.545  -6.714  -0.215  0.00  0.00    +0.151 HD
ENDROOT
BRANCH   1  11
ATOM      7  C   UNL     1      -2.270   1.284  -0.203  0.00  0.00    +0.044 C 
ATOM      8  C   UNL     1      -1.908  -0.178  -0.155  0.00  0.00    -0.050 A 
ATOM      9  C   UNL     1      -1.391  -0.798  -1.277  0.00  0.00    +0.005 A 
ATOM     10  C   UNL     1      -1.059  -2.138  -1.236  0.00  0.00    +0.024 A 
ATOM     11  C   UNL     1      -1.245  -2.862  -0.066  0.00  0.00    +0.038 A 
ATOM     12  C   UNL     1      -1.764  -2.237   1.059  0.00  0.00    -0.029 A 
ATOM     13  C   UNL     1      -2.089  -0.895   1.014  0.00  0.00    +0.008 A 
ATOM     14  C   UNL     1      -1.968  -3.019   2.331  0.00  0.00    +0.045 C 
ENDBRANCH   1  11
BRANCH   4  15
ATOM     15  C   UNL     1      -0.981  -7.146  -2.248  0.00  0.00    +0.157 C 
ATOM     16  C   UNL     1      -2.446  -7.562  -2.386  0.00  0.00    +0.038 C 
BRANCH  15  17
ATOM     17  C   UNL     1      -0.119  -8.376  -2.121  0.00  0.00    +0.236 C 
ATOM     18  O   UNL     1       0.483  -8.591  -1.090  0.00  0.00    -0.274 OA
ATOM     19  N   UNL     1      -0.017  -9.237  -3.153  0.00  0.00    -0.297 N 
ATOM     20  C   UNL     1      -0.673  -8.949  -4.435  0.00  0.00    +0.108 C 
ATOM     21  C   UNL     1      -1.550 -10.144  -4.820  0.00  0.00    +0.019 C 
ATOM     22  C   UNL     1      -0.699 -11.416  -4.821  0.00  0.00    +0.003 C 
ATOM     23  C   UNL     1      -0.140 -11.659  -3.417  0.00  0.00    +0.022 C 
ATOM     24  C   UNL     1       0.758 -10.478  -3.018  0.00  0.00    +0.073 C 
ATOM     25  C   UNL     1       1.213 -10.644  -1.567  0.00  0.00    +0.028 C 
ENDBRANCH  15  17
ENDBRANCH   4  15
TORSDOF 3
