REMARK  Name = ZINC52122720
REMARK  3 active torsions:
REMARK  status: ('A' for Active; 'I' for Inactive)
REMARK    1  A    between atoms: C_1  and  O_2
REMARK    2  A    between atoms: O_2  and  C_3
REMARK    3  A    between atoms: C_8  and  N_10
REMARK                            x       y       z     vdW  Elec       q    Type
REMARK                         _______ _______ _______ _____ _____    ______ ____
ROOT
ATOM      1  N   UNL     1      -1.685  -1.886   2.079  0.00  0.00    -0.314 N 
ATOM      2  C   UNL     1      -0.923  -2.210   3.199  0.00  0.00    +0.070 A 
ATOM      3  C   UNL     1       0.368  -2.687   3.366  0.00  0.00    +0.066 A 
ATOM      4  C   UNL     1       0.857  -2.918   4.639  0.00  0.00    +0.125 A 
ATOM      5  C   UNL     1       0.061  -2.673   5.748  0.00  0.00    +0.040 A 
ATOM      6  C   UNL     1      -1.226  -2.197   5.589  0.00  0.00    +0.030 A 
ATOM      7  C   UNL     1      -1.724  -1.963   4.316  0.00  0.00    +0.065 A 
ATOM      8  N   UNL     1      -2.948  -1.498   3.839  0.00  0.00    -0.334 N 
ATOM      9  C   UNL     1      -2.891  -1.457   2.495  0.00  0.00    +0.159 A 
ATOM     10  S   UNL     1      -4.161  -0.942   1.469  0.00  0.00    -0.013 S 
ATOM     11  F   UNL     1       2.114  -3.384   4.803  0.00  0.00    -0.205 F 
ATOM     12  H   UNL     1      -3.709  -1.242   4.383  0.00  0.00    +0.168 HD
ENDROOT
BRANCH   1  17
ATOM     13  C   UNL     1      -1.295  -0.603   0.011  0.00  0.00    +0.141 C 
ATOM     14  C   UNL     1      -1.767  -0.897  -1.435  0.00  0.00    +0.034 C 
ATOM     15  C   UNL     1      -2.806  -2.027  -1.232  0.00  0.00    +0.005 C 
ATOM     16  C   UNL     1      -2.205  -2.897  -0.108  0.00  0.00    +0.028 C 
ATOM     17  C   UNL     1      -1.245  -1.990   0.685  0.00  0.00    +0.118 C 
BRANCH  13  19
ATOM     18  C   UNL     1      -0.017   1.425   0.010  0.00  0.00    +0.194 C 
ATOM     19  O   UNL     1       0.002  -0.004   0.002  0.00  0.00    -0.378 OA
ENDBRANCH  13  19
ENDBRANCH   1  17
TORSDOF 2
