REMARK  Name = ZINC00163793
REMARK  6 active torsions:
REMARK  status: ('A' for Active; 'I' for Inactive)
REMARK    1  A    between atoms: C_1  and  C_2
REMARK    2  A    between atoms: C_3  and  C_23
REMARK    3  A    between atoms: C_4  and  C_16
REMARK    4  A    between atoms: C_10  and  C_14
REMARK    5  A    between atoms: C_10  and  C_15
REMARK    6  A    between atoms: C_19  and  O_22
REMARK                            x       y       z     vdW  Elec       q    Type
REMARK                         _______ _______ _______ _____ _____    ______ ____
ROOT
ATOM      1  C   UNL     1      -5.088   2.255   2.482  0.00  0.00    +0.062 C 
ATOM      2  C   UNL     1      -4.344   2.619   1.222  0.00  0.00    +0.034 C 
ATOM      3  C   UNL     1      -3.322   3.486   1.279  0.00  0.00    +0.147 C 
ATOM      4  C   UNL     1      -2.553   3.866   0.046  0.00  0.00    +0.076 C 
ATOM      5  C   UNL     1      -3.327   3.522  -1.201  0.00  0.00    +0.025 C 
ATOM      6  C   UNL     1      -4.351   2.643  -1.157  0.00  0.00    +0.049 C 
ATOM      7  N   UNL     1      -4.717   2.062   0.026  0.00  0.00    -0.259 NA
ATOM      8  C   UNL     1      -5.116   2.278  -2.405  0.00  0.00    +0.062 C 
ATOM      9  C   UNL     1      -5.132   3.470  -3.365  0.00  0.00    -0.023 C 
ATOM     10  C   UNL     1      -3.684   3.851  -3.689  0.00  0.00    +0.086 C 
ATOM     11  C   UNL     1      -2.953   4.140  -2.406  0.00  0.00    +0.162 C 
ATOM     12  O   UNL     1      -2.023   4.922  -2.413  0.00  0.00    -0.292 OA
ATOM     13  C   UNL     1      -5.839   4.654  -2.702  0.00  0.00    +0.011 C 
ATOM     14  C   UNL     1      -5.864   3.088  -4.652  0.00  0.00    +0.011 C 
ENDROOT
BRANCH   4  15
ATOM     15  C   UNL     1      -1.237   3.132   0.031  0.00  0.00    -0.038 A 
ATOM     16  C   UNL     1      -1.218   1.750   0.018  0.00  0.00    +0.008 A 
ATOM     17  C   UNL     1      -0.013   1.074   0.009  0.00  0.00    +0.045 A 
ATOM     18  C   UNL     1       1.179   1.784   0.001  0.00  0.00    +0.117 A 
ATOM     19  C   UNL     1       1.157   3.172   0.009  0.00  0.00    +0.045 A 
ATOM     20  C   UNL     1      -0.051   3.842   0.024  0.00  0.00    +0.008 A 
BRANCH  18  21
ATOM     21  O   UNL     1       2.366   1.122  -0.014  0.00  0.00    -0.507 OA
ATOM     22  H   UNL     1       2.701   0.936  -0.901  0.00  0.00    +0.292 HD
ENDBRANCH  18  21
ENDBRANCH   4  15
BRANCH   3  23
ATOM     23  C   UNL     1      -2.955   4.057   2.540  0.00  0.00    +0.073 C 
ATOM     24  N   UNL     1      -2.663   4.510   3.540  0.00  0.00    -0.196 NA
ENDBRANCH   3  23
TORSDOF 3
