REMARK  Name = ZINC16901038
REMARK  5 active torsions:
REMARK  status: ('A' for Active; 'I' for Inactive)
REMARK    1  A    between atoms: C_4  and  N_11
REMARK    2  A    between atoms: C_5  and  C_7
REMARK    3  A    between atoms: N_11  and  C_12
REMARK    4  A    between atoms: N_17  and  C_20
REMARK    5  A    between atoms: C_24  and  C_26
REMARK                            x       y       z     vdW  Elec       q    Type
REMARK                         _______ _______ _______ _____ _____    ______ ____
ROOT
ATOM      1  C   UNL     1       4.966   0.228  -0.104  0.00  0.00    +0.166 C 
ATOM      2  C   UNL     1       5.931  -0.884  -0.562  0.00  0.00    +0.128 C 
ATOM      3  C   UNL     1       6.871  -1.045   0.613  0.00  0.00    +0.228 C 
ATOM      4  O   UNL     1       7.795  -1.827   0.671  0.00  0.00    -0.275 OA
ATOM      5  N   UNL     1       6.520  -0.187   1.578  0.00  0.00    -0.209 N 
ATOM      6  C   UNL     1       5.460   0.582   1.282  0.00  0.00    +0.247 C 
ATOM      7  O   UNL     1       4.975   1.425   2.006  0.00  0.00    -0.273 OA
ENDROOT
BRANCH   5   8
ATOM      8  C   UNL     1       7.204  -0.096   2.799  0.00  0.00    +0.045 A 
ATOM      9  C   UNL     1       8.507   0.385   2.830  0.00  0.00    +0.024 A 
ATOM     10  C   UNL     1       9.187   0.476   4.031  0.00  0.00    +0.003 A 
ATOM     11  C   UNL     1       8.576   0.091   5.207  0.00  0.00    +0.015 A 
ATOM     12  C   UNL     1       7.266  -0.393   5.186  0.00  0.00    +0.065 A 
ATOM     13  C   UNL     1       6.578  -0.481   3.973  0.00  0.00    +0.039 A 
BRANCH  12  14
ATOM     14  C   UNL     1       6.609  -0.806   6.441  0.00  0.00    +0.387 C 
ATOM     15  O   UNL     1       7.211  -0.724   7.502  0.00  0.00    -0.241 OA
ATOM     16  O   UNL     1       5.462  -1.230   6.420  0.00  0.00    -0.241 OA
ENDBRANCH  12  14
ENDBRANCH   5   8
BRANCH   1  17
ATOM     17  N   UNL     1       3.591  -0.274  -0.048  0.00  0.00    -0.332 N 
ATOM     18  H   UNL     1       3.425  -1.225   0.046  0.00  0.00    +0.147 HD
BRANCH  17  22
ATOM     19  C   UNL     1       0.394   2.382  -0.295  0.00  0.00    +0.001 A 
ATOM     20  C   UNL     1       1.692   2.857  -0.347  0.00  0.00    +0.002 A 
ATOM     21  C   UNL     1       2.754   1.979  -0.266  0.00  0.00    +0.023 A 
ATOM     22  C   UNL     1       2.518   0.617  -0.130  0.00  0.00    +0.039 A 
ATOM     23  C   UNL     1       1.214   0.143  -0.078  0.00  0.00    +0.076 A 
ATOM     24  C   UNL     1       0.156   1.027  -0.160  0.00  0.00    +0.014 A 
BRANCH  23  25
ATOM     25  C   UNL     1       0.953  -1.334   0.068  0.00  0.00    +0.419 C 
ATOM     26  F   UNL     1      -0.426  -1.564   0.097  0.00  0.00    -0.166 F 
ATOM     27  F   UNL     1       1.517  -2.017  -1.016  0.00  0.00    -0.166 F 
ATOM     28  F   UNL     1       1.527  -1.794   1.258  0.00  0.00    -0.166 F 
ENDBRANCH  23  25
ENDBRANCH  17  22
ENDBRANCH   1  17
TORSDOF 5
