REMARK  Name = ZINC00800556
REMARK  9 active torsions:
REMARK  status: ('A' for Active; 'I' for Inactive)
REMARK    1  A    between atoms: C_1  and  C_2
REMARK    2  A    between atoms: C_9  and  N_32
REMARK    3  A    between atoms: C_10  and  C_30
REMARK    4  A    between atoms: C_11  and  C_13
REMARK    5  A    between atoms: C_16  and  O_21
REMARK    6  A    between atoms: C_17  and  O_19
REMARK    7  A    between atoms: O_19  and  C_20
REMARK    8  A    between atoms: O_21  and  C_22
REMARK    9  A    between atoms: C_22  and  C_23
REMARK                            x       y       z     vdW  Elec       q    Type
REMARK                         _______ _______ _______ _____ _____    ______ ____
ROOT
ATOM      1  C   UNL     1       1.208  -0.679  -0.013  0.00  0.00    -0.031 A 
ATOM      2  C   UNL     1       2.398   0.026  -0.021  0.00  0.00    +0.008 A 
ATOM      3  C   UNL     1       2.386   1.408  -0.014  0.00  0.00    +0.050 A 
ATOM      4  C   UNL     1       1.181   2.091   0.002  0.00  0.00    +0.162 A 
ATOM      5  C   UNL     1      -0.017   1.381   0.010  0.00  0.00    +0.162 A 
ATOM      6  C   UNL     1       0.002  -0.004   0.002  0.00  0.00    +0.054 A 
ENDROOT
BRANCH   1  17
ATOM      7  C   UNL     1       0.270  -2.171   3.061  0.00  0.00    +0.068 C 
ATOM      8  C   UNL     1       1.575  -2.695   2.522  0.00  0.00    +0.068 A 
ATOM      9  C   UNL     1       1.967  -2.692   1.190  0.00  0.00    +0.049 A 
ATOM     10  C   UNL     1       3.212  -3.252   1.113  0.00  0.00    +0.222 A 
ATOM     11  N   UNL     1       3.582  -3.591   2.358  0.00  0.00    -0.246 N 
ATOM     12  H   UNL     1       4.446  -4.022   2.619  0.00  0.00    +0.192 HD
ATOM     13  N   UNL     1       2.540  -3.234   3.229  0.00  0.00    -0.176 NA
ATOM     14  O   UNL     1       3.877  -3.400  -0.059  0.00  0.00    -0.423 OA
ATOM     15  C   UNL     1       3.178  -3.232  -1.200  0.00  0.00    +0.200 C 
ATOM     16  C   UNL     1       1.944  -2.679  -1.253  0.00  0.00    +0.098 C 
ATOM     17  C   UNL     1       1.227  -2.186  -0.021  0.00  0.00    +0.101 C 
BRANCH  15  18
ATOM     18  N   UNL     1       3.751  -3.647  -2.377  0.00  0.00    -0.328 N 
ATOM     19  H   UNL     1       4.634  -4.047  -2.371  0.00  0.00    +0.145 HD
ATOM     20  H   UNL     1       3.272  -3.539  -3.213  0.00  0.00    +0.145 HD
ENDBRANCH  15  18
BRANCH  16  21
ATOM     21  C   UNL     1       1.296  -2.557  -2.524  0.00  0.00    +0.101 C 
ATOM     22  N   UNL     1       0.782  -2.461  -3.532  0.00  0.00    -0.191 NA
ENDBRANCH  16  21
ENDBRANCH   1  17
BRANCH   5  23
ATOM     23  O   UNL     1      -1.203   2.047   0.019  0.00  0.00    -0.491 OA
ATOM     24  C   UNL     1      -2.392   1.254   0.020  0.00  0.00    +0.277 C 
ENDBRANCH   5  23
BRANCH   4  25
ATOM     25  O   UNL     1       1.167   3.450   0.009  0.00  0.00    -0.484 OA
BRANCH  25  26
ATOM     26  C   UNL     1       2.434   4.112   0.001  0.00  0.00    +0.267 C 
BRANCH  26  27
ATOM     27  C   UNL     1       2.222   5.604   0.010  0.00  0.00    +0.025 A 
ATOM     28  C   UNL     1       0.940   6.120   0.019  0.00  0.00    +0.010 A 
ATOM     29  C   UNL     1       0.745   7.488   0.033  0.00  0.00    +0.001 A 
ATOM     30  C   UNL     1       1.833   8.342   0.028  0.00  0.00    +0.003 A 
ATOM     31  C   UNL     1       3.115   7.829   0.013  0.00  0.00    +0.039 A 
ATOM     32  C   UNL     1       3.312   6.458   0.004  0.00  0.00    +0.130 A 
ATOM     33  F   UNL     1       4.565   5.955  -0.011  0.00  0.00    -0.205 F 
ENDBRANCH  26  27
ENDBRANCH  25  26
ENDBRANCH   4  25
TORSDOF 7
