REMARK  Name = ZINC11736800
REMARK  8 active torsions:
REMARK  status: ('A' for Active; 'I' for Inactive)
REMARK    1  A    between atoms: C_1  and  C_2
REMARK    2  A    between atoms: C_2  and  N_3
REMARK    3  A    between atoms: N_3  and  C_4
REMARK    4  A    between atoms: N_3  and  S_6
REMARK    5  A    between atoms: C_4  and  C_5
REMARK    6  A    between atoms: S_6  and  C_9
REMARK    7  A    between atoms: C_11  and  N_20
REMARK    8  A    between atoms: N_18  and  C_19
REMARK                            x       y       z     vdW  Elec       q    Type
REMARK                         _______ _______ _______ _____ _____    ______ ____
ROOT
ATOM      1  C   UNL     1       1.177   1.783   0.000  0.00  0.00    +0.111 A 
ATOM      2  C   UNL     1      -0.013   1.076   0.008  0.00  0.00    +0.053 A 
ATOM      3  C   UNL     1      -1.224   1.752   0.017  0.00  0.00    +0.054 A 
ATOM      4  C   UNL     1      -1.236   3.144   0.030  0.00  0.00    +0.111 A 
ATOM      5  C   UNL     1      -0.037   3.851   0.023  0.00  0.00    +0.161 A 
ATOM      6  C   UNL     1       1.168   3.164   0.008  0.00  0.00    +0.077 A 
ATOM      7  O   UNL     1      -0.348   5.171   0.034  0.00  0.00    -0.407 OA
ATOM      8  C   UNL     1      -1.682   5.311   0.048  0.00  0.00    +0.421 A 
ATOM      9  O   UNL     1      -2.277   6.372   0.060  0.00  0.00    -0.223 OA
ATOM     10  N   UNL     1      -2.261   4.094   0.046  0.00  0.00    -0.276 N 
ATOM     11  C   UNL     1      -3.699   3.817   0.058  0.00  0.00    +0.156 C 
ENDROOT
BRANCH   1  12
ATOM     12  S   UNL     1       2.711   0.916  -0.018  0.00  0.00    +0.061 S 
ATOM     13  O   UNL     1       3.682   1.798   0.528  0.00  0.00    -0.153 OA
ATOM     14  O   UNL     1       2.457  -0.370   0.528  0.00  0.00    -0.153 OA
BRANCH  12  15
ATOM     15  N   UNL     1       3.123   0.684  -1.605  0.00  0.00    -0.177 NA
BRANCH  15  17
ATOM     16  C   UNL     1       5.404   1.287  -2.246  0.00  0.00    +0.022 C 
ATOM     17  C   UNL     1       3.928   1.685  -2.308  0.00  0.00    +0.106 C 
ENDBRANCH  15  17
BRANCH  15  18
ATOM     18  C   UNL     1       2.681  -0.524  -2.307  0.00  0.00    +0.106 C 
ATOM     19  C   UNL     1       1.385  -0.228  -3.066  0.00  0.00    +0.022 C 
ENDBRANCH  15  18
ENDBRANCH  12  15
ENDBRANCH   1  12
BRANCH   3  20
ATOM     20  N   UNL     1      -2.427   1.038   0.020  0.00  0.00    -0.356 N 
ATOM     21  H   UNL     1      -2.416   0.068   0.015  0.00  0.00    +0.142 HD
ATOM     22  H   UNL     1      -3.273   1.513   0.026  0.00  0.00    +0.142 HD
ENDBRANCH   3  20
TORSDOF 5
