REMARK  Name = ZINC28930305
REMARK  5 active torsions:
REMARK  status: ('A' for Active; 'I' for Inactive)
REMARK    1  A    between atoms: N_9  and  C_14
REMARK    2  A    between atoms: C_14  and  C_15
REMARK    3  A    between atoms: N_17  and  C_18
REMARK    4  A    between atoms: C_18  and  C_19
REMARK    5  A    between atoms: C_22  and  C_24
REMARK                            x       y       z     vdW  Elec       q    Type
REMARK                         _______ _______ _______ _____ _____    ______ ____
ROOT
ATOM      1  C   UNL     1       2.649  -4.678  -1.467  0.00  0.00    +0.233 C 
ATOM      2  O   UNL     1       2.584  -3.887  -2.385  0.00  0.00    -0.274 OA
ATOM      3  N   UNL     1       2.741  -5.998  -1.720  0.00  0.00    -0.307 N 
ATOM      4  H   UNL     1       2.794  -6.630  -0.987  0.00  0.00    +0.149 HD
ENDROOT
BRANCH   1   5
ATOM      5  C   UNL     1       2.627  -4.183  -0.044  0.00  0.00    +0.225 C 
BRANCH   5  14
ATOM      6  C   UNL     1      -0.017   1.375   0.010  0.00  0.00    +0.001 A 
ATOM      7  C   UNL     1       1.169   2.093   0.002  0.00  0.00    +0.002 A 
ATOM      8  C   UNL     1       2.386   1.442  -0.013  0.00  0.00    +0.026 A 
ATOM      9  C   UNL     1       2.425   0.056  -0.021  0.00  0.00    +0.056 A 
ATOM     10  C   UNL     1       1.223  -0.673  -0.013  0.00  0.00    +0.063 A 
ATOM     11  C   UNL     1       0.002  -0.004   0.002  0.00  0.00    +0.015 A 
ATOM     12  C   UNL     1       1.301  -2.145  -0.021  0.00  0.00    +0.265 A 
ATOM     13  O   UNL     1       0.291  -2.823  -0.016  0.00  0.00    -0.267 OA
ATOM     14  N   UNL     1       2.522  -2.722  -0.036  0.00  0.00    -0.252 N 
ATOM     15  C   UNL     1       3.642  -1.982  -0.043  0.00  0.00    +0.330 A 
ATOM     16  O   UNL     1       4.716  -2.551  -0.056  0.00  0.00    -0.246 OA
ATOM     17  N   UNL     1       3.627  -0.638  -0.036  0.00  0.00    -0.307 N 
ATOM     18  H   UNL     1       4.464  -0.148  -0.041  0.00  0.00    +0.170 HD
ENDBRANCH   5  14
ENDBRANCH   1   5
BRANCH   3  19
ATOM     19  C   UNL     1       2.763  -6.479  -3.104  0.00  0.00    +0.178 C 
BRANCH  19  20
ATOM     20  C   UNL     1       2.871  -7.982  -3.112  0.00  0.00    +0.123 A 
ATOM     21  C   UNL     1       1.835  -8.843  -3.112  0.00  0.00    +0.047 A 
ATOM     22  C   UNL     1       2.380 -10.143  -3.121  0.00  0.00    +0.050 A 
ATOM     23  C   UNL     1       3.732 -10.002  -3.126  0.00  0.00    +0.135 A 
ATOM     24  O   UNL     1       4.015  -8.685  -3.127  0.00  0.00    -0.458 OA
BRANCH  23  25
ATOM     25  C   UNL     1       4.719 -11.101  -3.136  0.00  0.00    +0.017 A 
ATOM     26  C   UNL     1       4.289 -12.429  -3.147  0.00  0.00    +0.013 A 
ATOM     27  C   UNL     1       5.215 -13.451  -3.157  0.00  0.00    +0.021 A 
ATOM     28  C   UNL     1       6.569 -13.162  -3.156  0.00  0.00    +0.041 A 
ATOM     29  C   UNL     1       7.002 -11.847  -3.146  0.00  0.00    +0.021 A 
ATOM     30  C   UNL     1       6.086 -10.816  -3.141  0.00  0.00    +0.013 A 
ATOM     31 CL   UNL     1       7.729 -14.454  -3.167  0.00  0.00    -0.084 Cl
ENDBRANCH  23  25
ENDBRANCH  19  20
ENDBRANCH   3  19
TORSDOF 5
