REMARK  Name = ZINC31846508
REMARK  5 active torsions:
REMARK  status: ('A' for Active; 'I' for Inactive)
REMARK    1  A    between atoms: C_1  and  C_2
REMARK    2  A    between atoms: N_12  and  C_13
REMARK    3  A    between atoms: C_13  and  C_14
REMARK    4  A    between atoms: C_18  and  C_25
REMARK    5  A    between atoms: C_21  and  C_24
REMARK                            x       y       z     vdW  Elec       q    Type
REMARK                         _______ _______ _______ _____ _____    ______ ____
ROOT
ATOM      1  C   UNL     1       0.250   0.265  -3.352  0.00  0.00    +0.044 C 
ATOM      2  C   UNL     1      -0.185   0.928  -2.070  0.00  0.00    -0.047 A 
ATOM      3  C   UNL     1      -0.568   2.257  -2.075  0.00  0.00    +0.005 A 
ATOM      4  C   UNL     1      -0.963   2.868  -0.902  0.00  0.00    +0.027 A 
ATOM      5  C   UNL     1      -0.978   2.153   0.293  0.00  0.00    +0.074 A 
ATOM      6  C   UNL     1      -0.600   0.816   0.292  0.00  0.00    +0.153 A 
ATOM      7  C   UNL     1      -0.202   0.209  -0.891  0.00  0.00    +0.051 A 
ATOM      8  O   UNL     1      -0.610   0.070   1.434  0.00  0.00    -0.423 OA
ATOM      9  C   UNL     1      -0.819   0.758   2.577  0.00  0.00    +0.330 C 
ATOM     10  O   UNL     1      -0.240   0.482   3.601  0.00  0.00    -0.249 OA
ATOM     11  C   UNL     1      -1.825   1.889   2.506  0.00  0.00    +0.226 C 
ATOM     12  N   UNL     1      -1.373   2.820   1.456  0.00  0.00    -0.308 N 
ENDROOT
BRANCH  12  13
ATOM     13  C   UNL     1      -2.406   3.822   1.164  0.00  0.00    +0.201 C 
BRANCH  13  14
ATOM     14  C   UNL     1      -3.642   3.133   0.646  0.00  0.00    +0.233 C 
ATOM     15  O   UNL     1      -3.624   1.941   0.424  0.00  0.00    -0.274 OA
ATOM     16  N   UNL     1      -4.767   3.842   0.429  0.00  0.00    -0.300 N 
ATOM     17  C   UNL     1      -4.806   5.286   0.698  0.00  0.00    +0.111 C 
ATOM     18  C   UNL     1      -5.297   6.006  -0.567  0.00  0.00    +0.004 C 
ATOM     19  C   UNL     1      -6.639   5.411  -0.998  0.00  0.00    +0.009 C 
ATOM     20  C   UNL     1      -6.459   3.928  -1.328  0.00  0.00    +0.004 C 
ATOM     21  C   UNL     1      -5.980   3.185  -0.076  0.00  0.00    +0.111 C 
ATOM     22  C   UNL     1      -5.421   3.774  -2.441  0.00  0.00    +0.009 C 
ATOM     23  C   UNL     1      -5.471   7.497  -0.269  0.00  0.00    +0.009 C 
ENDBRANCH  13  14
ENDBRANCH  12  13
TORSDOF 2
