REMARK  Name = ZINC13120404
REMARK  1 active torsions:
REMARK  status: ('A' for Active; 'I' for Inactive)
REMARK    1  A    between atoms: N_14  and  C_15
REMARK                            x       y       z     vdW  Elec       q    Type
REMARK                         _______ _______ _______ _____ _____    ______ ____
ROOT
ATOM      1  C   UNL     1      -0.017   1.374  -0.071  0.00  0.00    +0.001 A 
ATOM      2  C   UNL     1       1.172   2.092  -0.066  0.00  0.00    +0.002 A 
ATOM      3  C   UNL     1       2.379   1.455  -0.049  0.00  0.00    +0.028 A 
ATOM      4  C   UNL     1       2.431   0.055  -0.036  0.00  0.00    +0.072 A 
ATOM      5  C   UNL     1       1.221  -0.673  -0.041  0.00  0.00    +0.010 A 
ATOM      6  C   UNL     1       0.002  -0.004  -0.059  0.00  0.00    +0.011 A 
ATOM      7  C   UNL     1       1.623  -2.091  -0.025  0.00  0.00    +0.021 C 
ATOM      8  C   UNL     1       0.794  -3.206  -0.024  0.00  0.00    +0.045 C 
ATOM      9  C   UNL     1       1.417  -4.573  -0.146  0.00  0.00    +0.130 C 
ATOM     10  S   UNL     1       0.405  -5.750   0.803  0.00  0.00    -0.083 S 
ATOM     11  C   UNL     1      -1.240  -5.268   0.379  0.00  0.00    +0.172 C 
ATOM     12  N   UNL     1      -1.481  -4.023   0.083  0.00  0.00    -0.160 NA
ATOM     13  N   UNL     1      -0.517  -3.028   0.090  0.00  0.00    -0.238 N 
ATOM     14  N   UNL     1      -2.260  -6.201   0.360  0.00  0.00    -0.320 N 
ATOM     15  C   UNL     1       3.037  -2.069  -0.012  0.00  0.00    +0.121 C 
ATOM     16  N   UNL     1       3.454  -0.829  -0.019  0.00  0.00    -0.254 NA
ATOM     17  H   UNL     1      -0.829  -2.114   0.184  0.00  0.00    +0.174 HD
ATOM     18  H   UNL     1      -2.074  -7.127   0.582  0.00  0.00    +0.148 HD
ENDROOT
BRANCH  14  19
ATOM     19  C   UNL     1      -3.622  -5.791   0.007  0.00  0.00    +0.072 C 
ATOM     20  C   UNL     1      -4.332  -5.255   1.252  0.00  0.00    +0.022 C 
ATOM     21  C   UNL     1      -5.754  -4.828   0.883  0.00  0.00    +0.002 C 
ATOM     22  C   UNL     1      -6.523  -6.032   0.336  0.00  0.00    +0.000 C 
ATOM     23  C   UNL     1      -5.812  -6.567  -0.909  0.00  0.00    +0.002 C 
ATOM     24  C   UNL     1      -4.390  -6.995  -0.540  0.00  0.00    +0.022 C 
ENDBRANCH  14  19
TORSDOF 1
