REMARK  Name = ZINC55402711
REMARK  10 active torsions:
REMARK  status: ('A' for Active; 'I' for Inactive)
REMARK    1  A    between atoms: C_1  and  C_2
REMARK    2  A    between atoms: N_6  and  C_8
REMARK    3  A    between atoms: C_8  and  C_9
REMARK    4  A    between atoms: C_9  and  C_10
REMARK    5  A    between atoms: C_9  and  N_11
REMARK    6  A    between atoms: C_12  and  C_14
REMARK    7  A    between atoms: C_14  and  C_15
REMARK    8  A    between atoms: C_14  and  S_16
REMARK    9  A    between atoms: S_16  and  C_17
REMARK   10  A    between atoms: C_20  and  N_23
REMARK                            x       y       z     vdW  Elec       q    Type
REMARK                         _______ _______ _______ _____ _____    ______ ____
ROOT
ATOM      1  N   UNL     1       0.278  -4.536   2.252  0.00  0.00    -0.314 N 
ATOM      2  C   UNL     1       0.058  -5.792   1.815  0.00  0.00    +0.226 C 
ATOM      3  O   UNL     1       0.995  -6.524   1.576  0.00  0.00    -0.275 OA
ATOM      4  H   UNL     1      -0.471  -3.951   2.444  0.00  0.00    +0.149 HD
ENDROOT
BRANCH   1   5
ATOM      5  C   UNL     1       1.650  -4.055   2.438  0.00  0.00    +0.053 C 
ATOM      6  C   UNL     1       2.174  -4.521   3.798  0.00  0.00    +0.026 C 
BRANCH   5   7
ATOM      7  C   UNL     1       1.666  -2.526   2.382  0.00  0.00    -0.057 C 
BRANCH   7  13
ATOM      8  C   UNL     1       2.158  -2.548  -2.489  0.00  0.00    +0.005 C 
ATOM      9  C   UNL     1       1.267  -2.106  -1.326  0.00  0.00    -0.031 C 
ATOM     10  C   UNL     1       1.088  -0.586  -1.367  0.00  0.00    -0.001 C 
ATOM     11  C   UNL     1       0.261  -0.145  -0.156  0.00  0.00    -0.018 C 
ATOM     12  C   UNL     1       0.954  -0.613   1.125  0.00  0.00    -0.079 C 
ATOM     13  N   UNL     1       1.071  -2.076   1.116  0.00  0.00    +0.381 N 
ATOM     14  C   UNL     1       1.923  -2.501  -0.001  0.00  0.00    -0.076 C 
ATOM     15  H   UNL     1       0.154  -2.485   1.014  0.00  0.00    -0.082 HD
ENDBRANCH   7  13
ENDBRANCH   5   7
ENDBRANCH   1   5
BRANCH   2  16
ATOM     16  C   UNL     1      -1.353  -6.287   1.624  0.00  0.00    +0.134 C 
ATOM     17  C   UNL     1      -1.855  -5.873   0.239  0.00  0.00    +0.029 C 
BRANCH  16  18
ATOM     18  S   UNL     1      -1.383  -8.095   1.764  0.00  0.00    -0.113 S 
BRANCH  18  19
ATOM     19  C   UNL     1      -1.024  -8.397   3.462  0.00  0.00    +0.009 A 
ATOM     20  C   UNL     1      -0.940  -7.337   4.356  0.00  0.00    +0.017 A 
ATOM     21  C   UNL     1      -0.659  -7.577   5.686  0.00  0.00    +0.034 A 
ATOM     22  C   UNL     1      -0.461  -8.873   6.129  0.00  0.00    +0.126 A 
ATOM     23  C   UNL     1      -0.543  -9.931   5.242  0.00  0.00    +0.034 A 
ATOM     24  C   UNL     1      -0.830  -9.698   3.912  0.00  0.00    +0.017 A 
BRANCH  22  25
ATOM     25  N   UNL     1      -0.159  -9.127   7.556  0.00  0.00    +0.056 N 
ATOM     26  O   UNL     1      -0.086  -8.203   8.332  0.00  0.00    -0.126 OA
ATOM     27  O   UNL     1       0.015 -10.258   7.945  0.00  0.00    -0.126 OA
ENDBRANCH  22  25
ENDBRANCH  18  19
ENDBRANCH  16  18
ENDBRANCH   2  16
TORSDOF 7
