REMARK  Name = ZINC41105612
REMARK  4 active torsions:
REMARK  status: ('A' for Active; 'I' for Inactive)
REMARK    1  A    between atoms: C_1  and  C_2
REMARK    2  A    between atoms: C_4  and  S_10
REMARK    3  A    between atoms: S_10  and  N_13
REMARK    4  A    between atoms: N_13  and  C_14
REMARK                            x       y       z     vdW  Elec       q    Type
REMARK                         _______ _______ _______ _____ _____    ______ ____
ROOT
ATOM      1  C   UNL     1      -0.258   1.792  -0.631  0.00  0.00    +0.045 C 
ATOM      2  C   UNL     1      -0.150   0.299  -0.454  0.00  0.00    -0.030 A 
ATOM      3  C   UNL     1      -0.113  -0.527  -1.561  0.00  0.00    +0.034 A 
ATOM      4  C   UNL     1      -0.014  -1.896  -1.400  0.00  0.00    +0.124 A 
ATOM      5  C   UNL     1       0.050  -2.440  -0.129  0.00  0.00    +0.069 A 
ATOM      6  C   UNL     1       0.013  -1.614   0.979  0.00  0.00    +0.042 A 
ATOM      7  C   UNL     1      -0.082  -0.243   0.817  0.00  0.00    +0.045 A 
ATOM      8 CL   UNL     1      -0.121   0.795   2.208  0.00  0.00    -0.083 Cl
ATOM      9 CL   UNL     1       0.174  -4.160   0.073  0.00  0.00    -0.081 Cl
ENDROOT
BRANCH   4  10
ATOM     10  S   UNL     1       0.032  -2.949  -2.812  0.00  0.00    +0.060 S 
ATOM     11  O   UNL     1      -0.095  -2.107  -3.950  0.00  0.00    -0.153 OA
ATOM     12  O   UNL     1       1.137  -3.823  -2.631  0.00  0.00    -0.153 OA
BRANCH  10  13
ATOM     13  N   UNL     1      -1.329  -3.890  -2.766  0.00  0.00    -0.193 NA
ATOM     14  C   UNL     1      -2.652  -3.273  -2.892  0.00  0.00    +0.127 C 
ATOM     15  H   UNL     1      -1.251  -4.851  -2.654  0.00  0.00    +0.148 HD
ENDBRANCH  10  13
ENDBRANCH   4  10
TORSDOF 2
