REMARK  Name = ZINC38573928
REMARK  6 active torsions:
REMARK  status: ('A' for Active; 'I' for Inactive)
REMARK    1  A    between atoms: C_4  and  C_7
REMARK    2  A    between atoms: C_7  and  N_8
REMARK    3  A    between atoms: N_8  and  C_9
REMARK    4  A    between atoms: N_15  and  C_17
REMARK    5  A    between atoms: C_17  and  C_18
REMARK    6  A    between atoms: C_25  and  N_30
REMARK                            x       y       z     vdW  Elec       q    Type
REMARK                         _______ _______ _______ _____ _____    ______ ____
ROOT
ATOM      1  C   UNL     1       5.435  -1.670   1.364  0.00  0.00    +0.203 C 
ATOM      2  C   UNL     1       6.357  -0.914   2.295  0.00  0.00    -0.013 C 
ATOM      3  C   UNL     1       6.890  -1.550   3.337  0.00  0.00    -0.028 C 
ATOM      4  C   UNL     1       7.810  -0.861   4.310  0.00  0.00    +0.051 C 
ATOM      5  C   UNL     1       8.339   0.440   3.706  0.00  0.00    +0.090 C 
ATOM      6  N   UNL     1       7.194   1.205   3.183  0.00  0.00    -0.294 NA
ATOM      7  C   UNL     1       6.643   0.534   2.001  0.00  0.00    +0.119 C 
ATOM      8  C   UNL     1       6.571  -2.965   3.549  0.00  0.00    +0.063 C 
ATOM      9  C   UNL     1       6.933  -3.904   4.488  0.00  0.00    +0.121 C 
ATOM     10  N   UNL     1       6.320  -5.064   4.174  0.00  0.00    -0.262 N 
ATOM     11  N   UNL     1       5.593  -4.968   3.119  0.00  0.00    -0.152 NA
ATOM     12  C   UNL     1       5.663  -3.690   2.622  0.00  0.00    +0.181 C 
ATOM     13  N   UNL     1       5.139  -3.083   1.610  0.00  0.00    -0.240 NA
ATOM     14  H   UNL     1       6.417  -5.880   4.688  0.00  0.00    +0.190 HD
ENDROOT
BRANCH   9  15
ATOM     15  N   UNL     1       7.782  -3.694   5.571  0.00  0.00    -0.343 N 
ATOM     16  H   UNL     1       8.177  -2.820   5.714  0.00  0.00    +0.144 HD
ATOM     17  H   UNL     1       7.978  -4.422   6.181  0.00  0.00    +0.144 HD
ENDBRANCH   9  15
BRANCH   1  18
ATOM     18  N   UNL     1       4.153  -0.953   1.342  0.00  0.00    -0.288 NA
ATOM     19  H   UNL     1       4.212  -0.090   1.862  0.00  0.00    +0.125 HD
BRANCH  18  20
ATOM     20  C   UNL     1       3.711  -0.707  -0.038  0.00  0.00    +0.118 C 
BRANCH  20  24
ATOM     21  C   UNL     1      -0.017   1.378   0.010  0.00  0.00    +0.000 A 
ATOM     22  C   UNL     1       1.171   2.086   0.002  0.00  0.00    +0.000 A 
ATOM     23  C   UNL     1       2.377   1.411  -0.013  0.00  0.00    +0.005 A 
ATOM     24  C   UNL     1       2.396   0.029  -0.020  0.00  0.00    -0.034 A 
ATOM     25  C   UNL     1       1.208  -0.679  -0.012  0.00  0.00    +0.005 A 
ATOM     26  C   UNL     1       0.002  -0.004   0.002  0.00  0.00    +0.000 A 
ENDBRANCH  20  24
ENDBRANCH  18  20
ENDBRANCH   1  18
BRANCH   6  27
ATOM     27  C   UNL     1       7.583   2.587   2.871  0.00  0.00    +0.120 C 
BRANCH  27  28
ATOM     28  C   UNL     1       7.943   3.307   4.144  0.00  0.00    -0.033 A 
ATOM     29  C   UNL     1       6.968   3.981   4.856  0.00  0.00    +0.005 A 
ATOM     30  C   UNL     1       7.299   4.642   6.025  0.00  0.00    +0.000 A 
ATOM     31  C   UNL     1       8.603   4.629   6.481  0.00  0.00    +0.000 A 
ATOM     32  C   UNL     1       9.578   3.954   5.770  0.00  0.00    +0.000 A 
ATOM     33  C   UNL     1       9.246   3.289   4.604  0.00  0.00    +0.005 A 
ENDBRANCH  27  28
ENDBRANCH   6  27
TORSDOF 6
