REMARK  Name = ZINC64349137
REMARK  6 active torsions:
REMARK  status: ('A' for Active; 'I' for Inactive)
REMARK    1  A    between atoms: C_1  and  O_2
REMARK    2  A    between atoms: O_2  and  C_3
REMARK    3  A    between atoms: C_6  and  C_9
REMARK    4  A    between atoms: N_28  and  C_31
REMARK    5  A    between atoms: C_31  and  C_32
REMARK    6  A    between atoms: C_32  and  C_33
REMARK                            x       y       z     vdW  Elec       q    Type
REMARK                         _______ _______ _______ _____ _____    ______ ____
ROOT
ATOM      1  C   UNL     1       2.587  -2.550   4.310  0.00  0.00    +0.133 C 
ATOM      2  C   UNL     1       3.936  -3.110   3.849  0.00  0.00    +0.131 C 
ATOM      3  C   UNL     1       4.445  -4.006   4.971  0.00  0.00    -0.034 C 
ATOM      4  C   UNL     1       5.650  -3.552   5.296  0.00  0.00    -0.001 A 
ATOM      5  C   UNL     1       6.657  -4.043   6.249  0.00  0.00    +0.010 A 
ATOM      6  C   UNL     1       7.801  -3.315   6.341  0.00  0.00    +0.001 A 
ATOM      7  C   UNL     1       8.040  -2.160   5.589  0.00  0.00    +0.002 A 
ATOM      8  C   UNL     1       7.172  -1.640   4.686  0.00  0.00    +0.026 A 
ATOM      9  C   UNL     1       5.935  -2.321   4.496  0.00  0.00    +0.043 A 
ATOM     10  N   UNL     1       4.935  -2.054   3.676  0.00  0.00    -0.375 N 
ATOM     11  C   UNL     1       3.607  -5.111   5.566  0.00  0.00    +0.065 C 
ATOM     12  C   UNL     1       2.241  -4.490   5.909  0.00  0.00    +0.167 C 
ATOM     13  N   UNL     1       1.766  -3.686   4.787  0.00  0.00    -0.279 N 
ATOM     14  C   UNL     1       0.611  -3.932   4.159  0.00  0.00    +0.234 C 
ATOM     15  O   UNL     1       0.315  -3.219   3.223  0.00  0.00    -0.274 OA
ATOM     16  C   UNL     1      -0.341  -5.021   4.529  0.00  0.00    +0.203 C 
ATOM     17  N   UNL     1       0.125  -5.795   5.667  0.00  0.00    -0.291 N 
ATOM     18  C   UNL     1       1.280  -5.568   6.289  0.00  0.00    +0.237 C 
ATOM     19  O   UNL     1       1.569  -6.280   7.228  0.00  0.00    -0.274 OA
ATOM     20  H   UNL     1       4.864  -1.299   3.072  0.00  0.00    +0.160 HD
ENDROOT
BRANCH   1  24
ATOM     21  C   UNL     1       0.625  -0.619   1.042  0.00  0.00    +0.120 A 
ATOM     22  C   UNL     1       1.442  -1.716   0.811  0.00  0.00    +0.046 A 
ATOM     23  C   UNL     1       2.075  -2.339   1.870  0.00  0.00    +0.009 A 
ATOM     24  C   UNL     1       1.895  -1.869   3.158  0.00  0.00    -0.025 A 
ATOM     25  C   UNL     1       1.081  -0.775   3.390  0.00  0.00    +0.009 A 
ATOM     26  C   UNL     1       0.451  -0.146   2.334  0.00  0.00    +0.046 A 
BRANCH  21  28
ATOM     27  C   UNL     1       0.227  -0.546  -1.301  0.00  0.00    +0.277 C 
ATOM     28  O   UNL     1       0.001  -0.004   0.002  0.00  0.00    -0.495 OA
ENDBRANCH  21  28
ENDBRANCH   1  24
BRANCH  17  29
ATOM     29  C   UNL     1      -0.721  -6.888   6.154  0.00  0.00    +0.113 C 
BRANCH  29  30
ATOM     30  C   UNL     1      -0.349  -8.183   5.428  0.00  0.00    +0.054 C 
BRANCH  30  31
ATOM     31  C   UNL     1      -1.219  -9.307   5.929  0.00  0.00    -0.046 A 
ATOM     32  C   UNL     1      -0.814 -10.064   7.013  0.00  0.00    +0.004 A 
ATOM     33  C   UNL     1      -1.612 -11.095   7.472  0.00  0.00    +0.000 A 
ATOM     34  C   UNL     1      -2.815 -11.369   6.848  0.00  0.00    +0.000 A 
ATOM     35  C   UNL     1      -3.220 -10.611   5.765  0.00  0.00    +0.000 A 
ATOM     36  C   UNL     1      -2.424  -9.577   5.308  0.00  0.00    +0.004 A 
ENDBRANCH  30  31
ENDBRANCH  29  30
ENDBRANCH  17  29
TORSDOF 5
