REMARK  Name = ZINC12643958
REMARK  6 active torsions:
REMARK  status: ('A' for Active; 'I' for Inactive)
REMARK    1  A    between atoms: C_3  and  C_6
REMARK    2  A    between atoms: N_8  and  C_9
REMARK    3  A    between atoms: C_19  and  C_20
REMARK    4  A    between atoms: C_19  and  N_55
REMARK    5  A    between atoms: N_22  and  C_23
REMARK    6  A    between atoms: C_23  and  C_24
REMARK                            x       y       z     vdW  Elec       q    Type
REMARK                         _______ _______ _______ _____ _____    ______ ____
ROOT
ATOM      1  C   UNL     1      -0.699   1.578   1.278  0.00  0.00    +0.070 C 
ATOM      2  C   UNL     1      -0.013   1.091   0.008  0.00  0.00    +0.007 C 
ATOM      3  C   UNL     1      -0.716   1.587  -1.252  0.00  0.00    -0.066 C 
ATOM      4  C   UNL     1      -0.541   3.087  -1.429  0.00  0.00    -0.015 C 
ATOM      5  C   UNL     1      -1.324   3.897  -0.408  0.00  0.00    -0.003 C 
ATOM      6  C   UNL     1      -2.742   3.382  -0.209  0.00  0.00    -0.015 C 
ATOM      7  C   UNL     1      -2.808   1.867  -0.091  0.00  0.00    -0.066 C 
ATOM      8  C   UNL     1      -2.210   1.388   1.228  0.00  0.00    +0.007 C 
ATOM      9  N   UNL     1      -2.126   1.163  -1.192  0.00  0.00    +0.389 N 
ATOM     10  H   UNL     1      -2.157   0.154  -1.003  0.00  0.00    -0.080 HD
ENDROOT
BRANCH   1  13
ATOM     11  C   UNL     1      -0.201   1.333   3.661  0.00  0.00    +0.280 C 
ATOM     12  O   UNL     1      -0.666   2.443   3.840  0.00  0.00    -0.267 OA
ATOM     13  N   UNL     1      -0.169   0.807   2.420  0.00  0.00    -0.306 N 
ATOM     14  H   UNL     1       0.202  -0.077   2.278  0.00  0.00    +0.149 HD
BRANCH  11  17
ATOM     15  C   UNL     1       0.939  -0.062   6.836  0.00  0.00    +0.042 A 
ATOM     16  C   UNL     1       0.360   0.981   6.096  0.00  0.00    +0.054 A 
ATOM     17  C   UNL     1       0.326   0.567   4.795  0.00  0.00    +0.189 A 
ATOM     18  O   UNL     1       0.867  -0.667   4.736  0.00  0.00    -0.458 OA
ATOM     19  C   UNL     1       1.238  -1.050   5.964  0.00  0.00    +0.196 A 
ENDBRANCH  11  17
ENDBRANCH   1  13
BRANCH   9  20
ATOM     20  C   UNL     1      -2.811   1.416  -2.486  0.00  0.00    +0.019 C 
BRANCH  20  21
ATOM     21  C   UNL     1      -4.179   0.788  -2.427  0.00  0.00    +0.197 C 
ATOM     22  O   UNL     1      -4.548   0.230  -1.415  0.00  0.00    -0.278 OA
ATOM     23  N   UNL     1      -4.995   0.848  -3.499  0.00  0.00    -0.313 N 
ATOM     24  H   UNL     1      -4.700   1.295  -4.308  0.00  0.00    +0.149 HD
BRANCH  23  25
ATOM     25  C   UNL     1      -6.325   0.238  -3.442  0.00  0.00    +0.139 C 
BRANCH  25  26
ATOM     26  C   UNL     1      -7.029   0.443  -4.758  0.00  0.00    -0.030 A 
ATOM     27  C   UNL     1      -7.811   1.566  -4.956  0.00  0.00    +0.008 A 
ATOM     28  C   UNL     1      -8.453   1.757  -6.165  0.00  0.00    +0.038 A 
ATOM     29  C   UNL     1      -8.320   0.819  -7.175  0.00  0.00    +0.123 A 
ATOM     30  C   UNL     1      -7.541  -0.307  -6.974  0.00  0.00    +0.038 A 
ATOM     31  C   UNL     1      -6.896  -0.494  -5.766  0.00  0.00    +0.008 A 
ATOM     32  F   UNL     1      -8.951   1.003  -8.355  0.00  0.00    -0.205 F 
ENDBRANCH  25  26
ENDBRANCH  23  25
ENDBRANCH  20  21
ENDBRANCH   9  20
TORSDOF 6
