REMARK  Name = ZINC56720958
REMARK  5 active torsions:
REMARK  status: ('A' for Active; 'I' for Inactive)
REMARK    1  A    between atoms: C_1  and  C_2
REMARK    2  A    between atoms: C_2  and  C_4
REMARK    3  A    between atoms: C_2  and  N_11
REMARK    4  A    between atoms: N_11  and  C_12
REMARK    5  A    between atoms: N_15  and  C_16
REMARK                            x       y       z     vdW  Elec       q    Type
REMARK                         _______ _______ _______ _____ _____    ______ ____
ROOT
ATOM      1  N   UNL     1       0.833  -0.557  -1.302  0.00  0.00    -0.282 N 
ATOM      2  C   UNL     1       0.470  -0.118  -2.652  0.00  0.00    +0.134 C 
ATOM      3  C   UNL     1       1.878  -1.389  -1.123  0.00  0.00    +0.307 C 
ATOM      4  O   UNL     1       2.180  -1.754  -0.003  0.00  0.00    -0.252 OA
ATOM      5  N   UNL     1       2.589  -1.817  -2.185  0.00  0.00    -0.266 N 
ATOM      6  H   UNL     1       2.310  -1.578  -3.083  0.00  0.00    +0.156 HD
ENDROOT
BRANCH   5   7
ATOM      7  C   UNL     1       3.731  -2.607  -1.992  0.00  0.00    +0.080 A 
ATOM      8  C   UNL     1       3.775  -3.521  -0.949  0.00  0.00    +0.027 A 
ATOM      9  C   UNL     1       4.900  -4.299  -0.758  0.00  0.00    +0.006 A 
ATOM     10  C   UNL     1       5.986  -4.169  -1.604  0.00  0.00    +0.049 A 
ATOM     11  C   UNL     1       5.951  -3.257  -2.650  0.00  0.00    +0.164 A 
ATOM     12  C   UNL     1       4.819  -2.478  -2.850  0.00  0.00    +0.183 A 
ATOM     13  O   UNL     1       4.760  -1.587  -3.878  0.00  0.00    -0.483 OA
ATOM     14  C   UNL     1       6.003  -1.221  -4.486  0.00  0.00    +0.270 C 
ATOM     15  C   UNL     1       6.810  -2.502  -4.736  0.00  0.00    +0.270 C 
ATOM     16  O   UNL     1       7.031  -3.140  -3.470  0.00  0.00    -0.485 OA
ENDBRANCH   5   7
BRANCH   1  18
ATOM     17  C   UNL     1       0.023   1.438  -0.142  0.00  0.00    +0.033 C 
ATOM     18  C   UNL     1       0.060  -0.092  -0.148  0.00  0.00    +0.104 C 
BRANCH  18  19
ATOM     19  C   UNL     1      -1.345  -0.628  -0.235  0.00  0.00    -0.027 A 
ATOM     20  C   UNL     1      -1.584  -1.844  -0.848  0.00  0.00    +0.008 A 
ATOM     21  C   UNL     1      -2.872  -2.338  -0.928  0.00  0.00    +0.038 A 
ATOM     22  C   UNL     1      -3.925  -1.614  -0.394  0.00  0.00    +0.123 A 
ATOM     23  C   UNL     1      -3.684  -0.396   0.220  0.00  0.00    +0.038 A 
ATOM     24  C   UNL     1      -2.394   0.093   0.303  0.00  0.00    +0.008 A 
ATOM     25  F   UNL     1      -5.184  -2.095  -0.472  0.00  0.00    -0.205 F 
ENDBRANCH  18  19
ENDBRANCH   1  18
TORSDOF 3
