REMARK  Name = ZINC06343610
REMARK  6 active torsions:
REMARK  status: ('A' for Active; 'I' for Inactive)
REMARK    1  A    between atoms: C_1  and  N_2
REMARK    2  A    between atoms: N_2  and  C_3
REMARK    3  A    between atoms: N_2  and  S_4
REMARK    4  A    between atoms: S_4  and  C_7
REMARK    5  A    between atoms: C_10  and  C_13
REMARK    6  A    between atoms: C_13  and  N_15
REMARK                            x       y       z     vdW  Elec       q    Type
REMARK                         _______ _______ _______ _____ _____    ______ ____
ROOT
ATOM      1  C   UNL     1       5.735  -1.633  -3.046  0.00  0.00    +0.270 C 
ATOM      2  O   UNL     1       6.297  -0.799  -3.733  0.00  0.00    -0.268 OA
ENDROOT
BRANCH   1   3
ATOM      3  N   UNL     1       6.396  -2.724  -2.643  0.00  0.00    -0.143 NA
ATOM      4  C   UNL     1       7.630  -2.950  -3.077  0.00  0.00    +0.199 A 
ATOM      5  N   UNL     1       8.368  -2.095  -3.836  0.00  0.00    -0.326 N 
ATOM      6  H   UNL     1       8.082  -1.223  -4.149  0.00  0.00    +0.169 HD
ATOM      7  C   UNL     1       9.602  -2.687  -4.085  0.00  0.00    +0.065 A 
ATOM      8  C   UNL     1      10.724  -2.276  -4.790  0.00  0.00    +0.028 A 
ATOM      9  C   UNL     1      11.829  -3.100  -4.865  0.00  0.00    +0.002 A 
ATOM     10  C   UNL     1      11.823  -4.336  -4.239  0.00  0.00    +0.002 A 
ATOM     11  C   UNL     1      10.712  -4.754  -3.535  0.00  0.00    +0.028 A 
ATOM     12  C   UNL     1       9.596  -3.933  -3.453  0.00  0.00    +0.065 A 
ATOM     13  N   UNL     1       8.360  -4.070  -2.829  0.00  0.00    -0.326 N 
ATOM     14  H   UNL     1       8.069  -4.835  -2.308  0.00  0.00    +0.169 HD
ENDBRANCH   1   3
BRANCH   1  18
ATOM     15  C   UNL     1       1.672  -1.078  -1.927  0.00  0.00    +0.105 A 
ATOM     16  C   UNL     1       2.308  -0.128  -2.708  0.00  0.00    +0.029 A 
ATOM     17  C   UNL     1       3.627  -0.303  -3.074  0.00  0.00    +0.015 A 
ATOM     18  C   UNL     1       4.319  -1.439  -2.655  0.00  0.00    +0.039 A 
ATOM     19  C   UNL     1       3.672  -2.393  -1.869  0.00  0.00    +0.015 A 
ATOM     20  C   UNL     1       2.355  -2.204  -1.505  0.00  0.00    +0.029 A 
BRANCH  15  21
ATOM     21  S   UNL     1      -0.012  -0.847  -1.463  0.00  0.00    +0.060 S 
ATOM     22  O   UNL     1      -0.536  -2.138  -1.183  0.00  0.00    -0.153 OA
ATOM     23  O   UNL     1      -0.587   0.014  -2.436  0.00  0.00    -0.153 OA
BRANCH  21  25
ATOM     24  C   UNL     1      -0.044   1.451  -0.038  0.00  0.00    +0.131 C 
ATOM     25  N   UNL     1      -0.016  -0.013  -0.032  0.00  0.00    -0.183 NA
ATOM     26  C   UNL     1       0.008  -0.741   1.239  0.00  0.00    +0.131 C 
ENDBRANCH  21  25
ENDBRANCH  15  21
ENDBRANCH   1  18
TORSDOF 4
