REMARK  Name = ZINC63633777
REMARK  5 active torsions:
REMARK  status: ('A' for Active; 'I' for Inactive)
REMARK    1  A    between atoms: C_1  and  C_2
REMARK    2  A    between atoms: C_5  and  N_9
REMARK    3  A    between atoms: C_10  and  C_12
REMARK    4  A    between atoms: C_12  and  N_13
REMARK    5  A    between atoms: N_13  and  C_14
REMARK                            x       y       z     vdW  Elec       q    Type
REMARK                         _______ _______ _______ _____ _____    ______ ____
ROOT
ATOM      1  N   UNL     1      -0.226  -6.826  -2.570  0.00  0.00    -0.341 N 
ATOM      2  H   UNL     1      -0.218  -6.194  -3.306  0.00  0.00    +0.146 HD
ENDROOT
BRANCH   1   3
ATOM      3  C   UNL     1      -0.329  -8.158  -2.820  0.00  0.00    +0.081 C 
ATOM      4  C   UNL     1      -0.318  -8.618  -4.118  0.00  0.00    +0.058 C 
ATOM      5  C   UNL     1      -0.316 -10.066  -4.411  0.00  0.00    +0.000 A 
ATOM      6  C   UNL     1      -0.326 -11.018  -3.398  0.00  0.00    +0.009 A 
ATOM      7  C   UNL     1      -0.325 -12.359  -3.724  0.00  0.00    +0.001 A 
ATOM      8  C   UNL     1      -0.313 -12.762  -5.051  0.00  0.00    +0.001 A 
ATOM      9  C   UNL     1      -0.302 -11.833  -6.069  0.00  0.00    +0.013 A 
ATOM     10  C   UNL     1      -0.304 -10.472  -5.761  0.00  0.00    +0.045 A 
ATOM     11  C   UNL     1      -0.294  -9.450  -6.816  0.00  0.00    +0.251 C 
ATOM     12  O   UNL     1      -0.284  -9.794  -7.982  0.00  0.00    -0.270 OA
ATOM     13  N   UNL     1      -0.296  -8.141  -6.513  0.00  0.00    -0.248 N 
ATOM     14  C   UNL     1      -0.312  -7.685  -5.250  0.00  0.00    +0.252 C 
ATOM     15  O   UNL     1      -0.318  -6.486  -5.043  0.00  0.00    -0.270 OA
ATOM     16  H   UNL     1      -0.289  -7.498  -7.239  0.00  0.00    +0.158 HD
ENDBRANCH   1   3
BRANCH   1  17
ATOM     17  C   UNL     1      -0.128  -6.345  -1.190  0.00  0.00    +0.197 C 
BRANCH  17  19
ATOM     18  N   UNL     1       0.076  -4.174  -0.022  0.00  0.00    -0.283 N 
ATOM     19  C   UNL     1      -0.025  -4.841  -1.189  0.00  0.00    +0.234 C 
ATOM     20  O   UNL     1      -0.033  -4.232  -2.237  0.00  0.00    -0.274 OA
ATOM     21  H   UNL     1       0.165  -4.663   0.810  0.00  0.00    +0.155 HD
BRANCH  18  26
ATOM     22  C   UNL     1      -0.020   1.500   0.018  0.00  0.00    +0.044 C 
ATOM     23  C   UNL     1       0.006  -0.007   0.008  0.00  0.00    -0.049 A 
ATOM     24  C   UNL     1      -0.586  -0.700  -1.032  0.00  0.00    +0.005 A 
ATOM     25  C   UNL     1      -0.564  -2.081  -1.045  0.00  0.00    +0.025 A 
ATOM     26  C   UNL     1       0.053  -2.774  -0.012  0.00  0.00    +0.052 A 
ATOM     27  C   UNL     1       0.648  -2.075   1.031  0.00  0.00    +0.062 A 
ATOM     28  C   UNL     1       0.627  -0.693   1.035  0.00  0.00    +0.025 A 
ATOM     29 CL   UNL     1       1.421  -2.937   2.325  0.00  0.00    -0.082 Cl
ENDBRANCH  18  26
ENDBRANCH  17  19
ENDBRANCH   1  17
TORSDOF 4
