REMARK  Name = ZINC09389204
REMARK  5 active torsions:
REMARK  status: ('A' for Active; 'I' for Inactive)
REMARK    1  A    between atoms: C_1  and  C_2
REMARK    2  A    between atoms: C_2  and  C_4
REMARK    3  A    between atoms: C_2  and  N_53
REMARK    4  A    between atoms: N_15  and  C_18
REMARK    5  A    between atoms: N_21  and  C_26
REMARK                            x       y       z     vdW  Elec       q    Type
REMARK                         _______ _______ _______ _____ _____    ______ ____
ROOT
ATOM      1  C   UNL     1       4.069  -0.141   1.292  0.00  0.00    -0.059 C 
ATOM      2  C   UNL     1       2.690   0.523   1.318  0.00  0.00    +0.086 C 
ATOM      3  N   UNL     1       2.413   1.121   0.004  0.00  0.00    -0.331 N 
ATOM      4  C   UNL     1       2.443   0.101  -1.053  0.00  0.00    +0.086 C 
ATOM      5  C   UNL     1       3.821  -0.563  -1.078  0.00  0.00    -0.059 C 
ATOM      6  N   UNL     1       4.078  -1.180   0.240  0.00  0.00    +0.387 N 
ATOM      7  H   UNL     1       3.337  -1.863   0.439  0.00  0.00    -0.081 HD
ENDROOT
BRANCH   3   8
ATOM      8  C   UNL     1       1.203   1.795   0.011  0.00  0.00    +0.074 A 
ATOM      9  C   UNL     1       0.006   1.105   0.299  0.00  0.00    +0.158 A 
ATOM     10  N   UNL     1      -1.135   1.736   0.301  0.00  0.00    -0.170 NA
ATOM     11  N   UNL     1      -1.202   3.106   0.029  0.00  0.00    -0.195 N 
ATOM     12  C   UNL     1      -0.084   3.804  -0.252  0.00  0.00    +0.292 A 
ATOM     13  O   UNL     1      -0.150   5.000  -0.493  0.00  0.00    -0.264 OA
ATOM     14  C   UNL     1       1.156   3.150  -0.266  0.00  0.00    +0.129 A 
ATOM     15 CL   UNL     1       2.611   4.026  -0.625  0.00  0.00    -0.076 Cl
BRANCH  11  16
ATOM     16  C   UNL     1      -2.440   3.757   0.044  0.00  0.00    +0.069 A 
ATOM     17  C   UNL     1      -2.594   4.946   0.746  0.00  0.00    +0.028 A 
ATOM     18  C   UNL     1      -3.816   5.588   0.754  0.00  0.00    +0.002 A 
ATOM     19  C   UNL     1      -4.890   5.044   0.074  0.00  0.00    +0.000 A 
ATOM     20  C   UNL     1      -4.742   3.857  -0.621  0.00  0.00    +0.002 A 
ATOM     21  C   UNL     1      -3.521   3.213  -0.638  0.00  0.00    +0.028 A 
ENDBRANCH  11  16
ENDBRANCH   3   8
BRANCH   6  23
ATOM     22  C   UNL     1       5.591  -2.563   1.579  0.00  0.00    -0.006 C 
ATOM     23  C   UNL     1       5.382  -1.876   0.228  0.00  0.00    -0.015 C 
BRANCH  23  24
ATOM     24  C   UNL     1       5.375  -2.911  -0.866  0.00  0.00    +0.066 A 
ATOM     25  N   UNL     1       6.311  -3.177  -1.734  0.00  0.00    -0.246 NA
ATOM     26  C   UNL     1       6.178  -4.139  -2.671  0.00  0.00    +0.078 A 
ATOM     27  C   UNL     1       7.093  -4.541  -3.669  0.00  0.00    +0.029 A 
ATOM     28  C   UNL     1       6.779  -5.542  -4.535  0.00  0.00    +0.002 A 
ATOM     29  C   UNL     1       5.561  -6.203  -4.474  0.00  0.00    +0.001 A 
ATOM     30  C   UNL     1       4.638  -5.839  -3.511  0.00  0.00    +0.017 A 
ATOM     31  C   UNL     1       4.946  -4.829  -2.632  0.00  0.00    +0.039 A 
ATOM     32  S   UNL     1       4.122  -4.043  -1.270  0.00  0.00    -0.074 S 
ENDBRANCH  23  24
ENDBRANCH   6  23
TORSDOF 4
