REMARK  Name = ZINC05883372
REMARK  7 active torsions:
REMARK  status: ('A' for Active; 'I' for Inactive)
REMARK    1  A    between atoms: C_1  and  C_2
REMARK    2  A    between atoms: C_2  and  C_3
REMARK    3  A    between atoms: C_3  and  C_4
REMARK    4  A    between atoms: C_4  and  N_5
REMARK    5  A    between atoms: C_16  and  C_27
REMARK    6  A    between atoms: C_22  and  N_26
REMARK    7  A    between atoms: C_23  and  C_24
REMARK                            x       y       z     vdW  Elec       q    Type
REMARK                         _______ _______ _______ _____ _____    ______ ____
ROOT
ATOM      1  N   UNL     1       0.212  -2.228   2.819  0.00  0.00    -0.270 N 
ATOM      2  C   UNL     1       1.404  -2.808   2.421  0.00  0.00    +0.041 A 
ATOM      3  C   UNL     1       1.991  -2.846   1.155  0.00  0.00    +0.024 A 
ATOM      4  C   UNL     1       3.206  -3.503   1.039  0.00  0.00    +0.002 A 
ATOM      5  C   UNL     1       3.820  -4.099   2.122  0.00  0.00    +0.000 A 
ATOM      6  C   UNL     1       3.246  -4.069   3.388  0.00  0.00    +0.007 A 
ATOM      7  C   UNL     1       2.038  -3.417   3.511  0.00  0.00    -0.001 A 
ATOM      8  C   UNL     1       1.147  -3.191   4.691  0.00  0.00    +0.145 C 
ATOM      9  C   UNL     1      -0.017  -2.398   4.139  0.00  0.00    +0.240 C 
ATOM     10  O   UNL     1      -0.976  -1.994   4.763  0.00  0.00    -0.274 OA
ATOM     11  C   UNL     1       1.846  -2.406   5.764  0.00  0.00    +0.066 A 
ATOM     12  C   UNL     1       2.263  -1.071   5.767  0.00  0.00    +0.101 A 
ATOM     13  N   UNL     1       2.833  -0.825   6.931  0.00  0.00    -0.171 NA
ATOM     14  N   UNL     1       2.794  -1.999   7.699  0.00  0.00    -0.246 N 
ATOM     15  H   UNL     1       3.142  -2.104   8.598  0.00  0.00    +0.192 HD
ATOM     16  C   UNL     1       2.186  -2.956   6.968  0.00  0.00    +0.224 A 
ATOM     17  O   UNL     1       1.918  -4.248   7.282  0.00  0.00    -0.423 OA
ATOM     18  C   UNL     1       1.067  -4.928   6.488  0.00  0.00    +0.201 C 
ATOM     19  C   UNL     1       0.667  -4.493   5.270  0.00  0.00    +0.110 C 
ENDROOT
BRANCH  12  20
ATOM     20  C   UNL     1       2.094  -0.102   4.656  0.00  0.00    +0.003 A 
ATOM     21  C   UNL     1       1.455   1.115   4.881  0.00  0.00    +0.010 A 
ATOM     22  C   UNL     1       1.300   2.013   3.844  0.00  0.00    +0.001 A 
ATOM     23  C   UNL     1       1.778   1.706   2.583  0.00  0.00    +0.000 A 
ATOM     24  C   UNL     1       2.413   0.498   2.354  0.00  0.00    +0.001 A 
ATOM     25  C   UNL     1       2.578  -0.404   3.385  0.00  0.00    +0.010 A 
ENDBRANCH  12  20
BRANCH  18  26
ATOM     26  N   UNL     1       0.580  -6.130   6.939  0.00  0.00    -0.328 N 
ATOM     27  H   UNL     1       0.850  -6.467   7.807  0.00  0.00    +0.145 HD
ATOM     28  H   UNL     1      -0.034  -6.641   6.389  0.00  0.00    +0.145 HD
ENDBRANCH  18  26
BRANCH  19  29
ATOM     29  C   UNL     1      -0.242  -5.297   4.510  0.00  0.00    +0.102 C 
ATOM     30  N   UNL     1      -0.964  -5.935   3.908  0.00  0.00    -0.191 NA
ENDBRANCH  19  29
BRANCH   1  31
ATOM     31  C   UNL     1      -0.692  -1.511   1.917  0.00  0.00    +0.114 C 
BRANCH  31  32
ATOM     32  C   UNL     1      -0.227  -0.060   1.778  0.00  0.00    +0.019 C 
BRANCH  32  34
ATOM     33  C   UNL     1      -0.785   2.178   0.818  0.00  0.00    +0.004 C 
ATOM     34  C   UNL     1      -1.250   0.728   0.957  0.00  0.00    -0.002 C 
ENDBRANCH  32  34
ENDBRANCH  31  32
ENDBRANCH   1  31
TORSDOF 6
