REMARK  Name = ZINC46078213
REMARK  4 active torsions:
REMARK  status: ('A' for Active; 'I' for Inactive)
REMARK    1  A    between atoms: C_4  and  N_7
REMARK    2  A    between atoms: N_7  and  C_8
REMARK    3  A    between atoms: C_8  and  C_14
REMARK    4  A    between atoms: N_18  and  C_19
REMARK                            x       y       z     vdW  Elec       q    Type
REMARK                         _______ _______ _______ _____ _____    ______ ____
ROOT
ATOM      1  C   UNL     1       3.663  -2.446  -0.285  0.00  0.00    +0.094 C 
ATOM      2  C   UNL     1       2.897  -3.034  -1.472  0.00  0.00    +0.034 C 
ATOM      3  C   UNL     1       3.573  -2.607  -2.776  0.00  0.00    +0.003 C 
ATOM      4  C   UNL     1       5.014  -3.120  -2.795  0.00  0.00    +0.000 C 
ATOM      5  C   UNL     1       5.780  -2.532  -1.608  0.00  0.00    +0.003 C 
ATOM      6  C   UNL     1       5.104  -2.959  -0.304  0.00  0.00    +0.034 C 
ENDROOT
BRANCH   1   7
ATOM      7  C   UNL     1       2.997  -2.866   1.000  0.00  0.00    +0.180 A 
ATOM      8  N   UNL     1       3.567  -3.482   2.003  0.00  0.00    -0.111 NA
ATOM      9  N   UNL     1       2.720  -3.694   2.945  0.00  0.00    -0.023 NA
ATOM     10  N   UNL     1       1.562  -3.234   2.613  0.00  0.00    -0.039 NA
ATOM     11  N   UNL     1       1.703  -2.672   1.332  0.00  0.00    -0.195 N 
BRANCH  11  12
ATOM     12  C   UNL     1       0.711  -2.045   0.563  0.00  0.00    +0.069 A 
ATOM     13  C   UNL     1       0.963  -0.814  -0.026  0.00  0.00    +0.029 A 
ATOM     14  C   UNL     1      -0.015  -0.199  -0.784  0.00  0.00    +0.022 A 
ATOM     15  C   UNL     1      -1.245  -0.809  -0.955  0.00  0.00    +0.041 A 
ATOM     16  C   UNL     1      -1.499  -2.037  -0.368  0.00  0.00    +0.022 A 
ATOM     17  C   UNL     1      -0.522  -2.658   0.386  0.00  0.00    +0.029 A 
ATOM     18 CL   UNL     1      -2.473  -0.034  -1.906  0.00  0.00    -0.084 Cl
ENDBRANCH  11  12
ENDBRANCH   1   7
BRANCH   1  19
ATOM     19  N   UNL     1       3.663  -0.984  -0.379  0.00  0.00    -0.332 N 
ATOM     20  H   UNL     1       3.203  -0.546  -1.112  0.00  0.00    +0.147 HD
BRANCH  19  24
ATOM     21  C   UNL     1       5.638   1.288   2.497  0.00  0.00    +0.000 A 
ATOM     22  C   UNL     1       5.101   1.903   1.381  0.00  0.00    +0.002 A 
ATOM     23  C   UNL     1       4.446   1.153   0.425  0.00  0.00    +0.023 A 
ATOM     24  C   UNL     1       4.326  -0.222   0.585  0.00  0.00    +0.028 A 
ATOM     25  C   UNL     1       4.866  -0.837   1.708  0.00  0.00    +0.023 A 
ATOM     26  C   UNL     1       5.521  -0.080   2.660  0.00  0.00    +0.002 A 
ENDBRANCH  19  24
ENDBRANCH   1  19
TORSDOF 4
