REMARK  Name = ZINC64946005
REMARK  7 active torsions:
REMARK  status: ('A' for Active; 'I' for Inactive)
REMARK    1  A    between atoms: C_1  and  C_2
REMARK    2  A    between atoms: C_2  and  C_3
REMARK    3  A    between atoms: C_2  and  C_4
REMARK    4  A    between atoms: C_2  and  C_5
REMARK    5  A    between atoms: N_16  and  C_22
REMARK    6  A    between atoms: C_22  and  C_23
REMARK    7  A    between atoms: N_25  and  C_26
REMARK                            x       y       z     vdW  Elec       q    Type
REMARK                         _______ _______ _______ _____ _____    ______ ____
ROOT
ATOM      1  C   UNL     1       0.741  -0.532  -1.248  0.00  0.00    -0.000 C 
ATOM      2  C   UNL     1      -0.000  -0.017  -2.485  0.00  0.00    +0.009 C 
ATOM      3  C   UNL     1       0.549  -0.693  -3.741  0.00  0.00    +0.037 C 
ATOM      4  C   UNL     1       2.066  -0.520  -3.770  0.00  0.00    -0.024 A 
ATOM      5  C   UNL     1       2.741  -0.205  -2.639  0.00  0.00    -0.004 A 
ATOM      6  S   UNL     1       4.438  -0.112  -3.146  0.00  0.00    -0.073 S 
ATOM      7  C   UNL     1       4.202  -0.494  -4.865  0.00  0.00    +0.114 A 
ATOM      8  C   UNL     1       2.817  -0.677  -4.961  0.00  0.00    +0.056 A 
ATOM      9  C   UNL     1       2.325  -1.014  -6.322  0.00  0.00    +0.173 A 
ATOM     10  N   UNL     1       1.133  -1.252  -6.794  0.00  0.00    -0.148 NA
ATOM     11  N   UNL     1       1.262  -1.517  -8.166  0.00  0.00    -0.203 N 
ATOM     12  C   UNL     1       2.572  -1.425  -8.477  0.00  0.00    +0.353 A 
ATOM     13  O   UNL     1       3.060  -1.591  -9.581  0.00  0.00    -0.244 OA
ATOM     14  N   UNL     1       3.244  -1.116  -7.349  0.00  0.00    -0.233 N 
ATOM     15  C   UNL     1       4.577  -0.909  -7.103  0.00  0.00    +0.211 A 
ATOM     16  N   UNL     1       5.013  -0.615  -5.915  0.00  0.00    -0.229 NA
ATOM     17  C   UNL     1       2.177   0.010  -1.269  0.00  0.00    +0.046 C 
ENDROOT
BRANCH   1  19
ATOM     18  C   UNL     1       0.001   1.482   0.032  0.00  0.00    +0.011 C 
ATOM     19  C   UNL     1       0.028  -0.048   0.016  0.00  0.00    -0.035 C 
ATOM     20  C   UNL     1       0.775  -0.558   1.250  0.00  0.00    +0.011 C 
ATOM     21  C   UNL     1      -1.406  -0.583   0.030  0.00  0.00    +0.011 C 
ENDBRANCH   1  19
BRANCH  11  22
ATOM     22  C   UNL     1       0.172  -1.835  -9.091  0.00  0.00    +0.244 C 
BRANCH  22  23
ATOM     23  C   UNL     1      -0.038  -3.327  -9.126  0.00  0.00    +0.239 C 
ATOM     24  O   UNL     1       0.655  -4.053  -8.445  0.00  0.00    -0.273 OA
ATOM     25  N   UNL     1      -0.995  -3.855  -9.914  0.00  0.00    -0.284 N 
ATOM     26  H   UNL     1      -1.593  -3.272 -10.408  0.00  0.00    +0.155 HD
BRANCH  25  27
ATOM     27  C   UNL     1      -1.127  -5.245 -10.021  0.00  0.00    +0.036 A 
ATOM     28  C   UNL     1      -1.500  -5.817 -11.230  0.00  0.00    +0.026 A 
ATOM     29  C   UNL     1      -1.630  -7.188 -11.335  0.00  0.00    +0.043 A 
ATOM     30  C   UNL     1      -1.387  -7.994 -10.235  0.00  0.00    +0.159 A 
ATOM     31  C   UNL     1      -1.014  -7.426  -9.027  0.00  0.00    +0.160 A 
ATOM     32  C   UNL     1      -0.878  -6.053  -8.920  0.00  0.00    +0.064 A 
ATOM     33  F   UNL     1      -0.778  -8.213  -7.955  0.00  0.00    -0.202 F 
ATOM     34  F   UNL     1      -1.515  -9.335 -10.340  0.00  0.00    -0.202 F 
ENDBRANCH  25  27
ENDBRANCH  22  23
ENDBRANCH  11  22
TORSDOF 4
