REMARK  Name = ZINC21808736
REMARK  9 active torsions:
REMARK  status: ('A' for Active; 'I' for Inactive)
REMARK    1  A    between atoms: C_1  and  C_2
REMARK    2  A    between atoms: C_5  and  N_8
REMARK    3  A    between atoms: C_9  and  C_11
REMARK    4  A    between atoms: C_11  and  C_34
REMARK    5  A    between atoms: N_23  and  C_24
REMARK    6  A    between atoms: C_24  and  C_25
REMARK    7  A    between atoms: C_25  and  N_26
REMARK    8  A    between atoms: N_26  and  C_27
REMARK    9  A    between atoms: N_26  and  C_28
REMARK                            x       y       z     vdW  Elec       q    Type
REMARK                         _______ _______ _______ _____ _____    ______ ____
ROOT
ATOM      1  C   UNL     1      -0.153   6.148  -3.050  0.00  0.00    +0.128 C 
ATOM      2  C   UNL     1      -0.510   7.344  -3.933  0.00  0.00    +0.157 C 
ATOM      3  N   UNL     1      -1.594   8.099  -3.299  0.00  0.00    -0.333 N 
ATOM      4  C   UNL     1      -1.879   9.449  -3.389  0.00  0.00    +0.057 A 
ATOM      5  C   UNL     1      -1.366  10.599  -4.006  0.00  0.00    +0.034 A 
ATOM      6  C   UNL     1      -1.975  11.791  -3.835  0.00  0.00    +0.048 A 
ATOM      7  S   UNL     1      -3.347  11.380  -2.770  0.00  0.00    -0.095 S 
ATOM      8  C   UNL     1      -3.031   9.641  -2.611  0.00  0.00    +0.038 A 
ATOM      9  C   UNL     1      -3.426   8.429  -2.058  0.00  0.00    +0.048 A 
ATOM     10  C   UNL     1      -2.535   7.486  -2.479  0.00  0.00    +0.106 A 
ATOM     11  C   UNL     1      -2.457   6.050  -2.191  0.00  0.00    +0.264 C 
ATOM     12  O   UNL     1      -3.356   5.460  -1.622  0.00  0.00    -0.268 OA
ATOM     13  N   UNL     1      -1.328   5.417  -2.590  0.00  0.00    -0.282 N 
ATOM     14  C   UNL     1       0.739   5.196  -3.850  0.00  0.00    +0.043 C 
ENDROOT
BRANCH   1  16
ATOM     15  N   UNL     1      -0.045   7.028  -0.741  0.00  0.00    -0.311 N 
ATOM     16  C   UNL     1       0.615   6.640  -1.851  0.00  0.00    +0.238 C 
ATOM     17  O   UNL     1       1.826   6.686  -1.883  0.00  0.00    -0.273 OA
ATOM     18  H   UNL     1      -1.144   6.986  -0.712  0.00  0.00    +0.149 HD
BRANCH  15  23
ATOM     19  C   UNL     1       1.802   8.236   4.546  0.00  0.00    +0.007 C 
ATOM     20  C   UNL     1       1.022   7.737   3.328  0.00  0.00    -0.014 C 
ATOM     21  C   UNL     1       0.589   8.931   2.475  0.00  0.00    +0.005 C 
ATOM     22  C   UNL     1      -0.190   8.431   1.257  0.00  0.00    +0.022 C 
ATOM     23  C   UNL     1       0.701   7.506   0.425  0.00  0.00    +0.073 C 
ATOM     24  C   UNL     1       1.135   6.313   1.278  0.00  0.00    +0.022 C 
ATOM     25  C   UNL     1       1.914   6.812   2.496  0.00  0.00    +0.005 C 
ENDBRANCH  15  23
ENDBRANCH   1  16
BRANCH  13  26
ATOM     26  C   UNL     1      -1.288   3.953  -2.565  0.00  0.00    +0.091 C 
BRANCH  26  27
ATOM     27  C   UNL     1      -0.769   3.481  -1.205  0.00  0.00    -0.060 C 
BRANCH  27  28
ATOM     28  N   UNL     1      -0.729   2.012  -1.180  0.00  0.00    +0.381 N 
ATOM     29  C   UNL     1      -2.083   1.448  -1.252  0.00  0.00    -0.096 C 
ATOM     30  H   UNL     1      -0.174   1.674  -2.067  0.00  0.00    -0.082 HD
BRANCH  28  31
ATOM     31  C   UNL     1      -0.019   1.526   0.010  0.00  0.00    -0.069 C 
ATOM     32  C   UNL     1       1.417   2.055  -0.000  0.00  0.00    -0.015 C 
ATOM     33  C   UNL     1       2.157   1.548   1.239  0.00  0.00    -0.002 C 
ATOM     34  C   UNL     1       2.178   0.019   1.231  0.00  0.00    -0.000 C 
ATOM     35  C   UNL     1       0.742  -0.511   1.242  0.00  0.00    -0.002 C 
ATOM     36  C   UNL     1       0.002  -0.004   0.002  0.00  0.00    -0.015 C 
ENDBRANCH  28  31
ENDBRANCH  27  28
ENDBRANCH  26  27
ENDBRANCH  13  26
TORSDOF 6
