REMARK  Name = ZINC09453102
REMARK  10 active torsions:
REMARK  status: ('A' for Active; 'I' for Inactive)
REMARK    1  A    between atoms: C_1  and  N_50
REMARK    2  A    between atoms: C_2  and  N_50
REMARK    3  A    between atoms: C_3  and  C_4
REMARK    4  A    between atoms: C_3  and  N_50
REMARK    5  A    between atoms: C_4  and  C_5
REMARK    6  A    between atoms: C_5  and  N_6
REMARK    7  A    between atoms: C_10  and  O_17
REMARK    8  A    between atoms: O_17  and  C_18
REMARK    9  A    between atoms: C_19  and  C_21
REMARK   10  A    between atoms: C_24  and  C_27
REMARK                            x       y       z     vdW  Elec       q    Type
REMARK                         _______ _______ _______ _____ _____    ______ ____
ROOT
ATOM      1  N   UNL     1      -0.164   0.186  -0.546  0.00  0.00    -0.246 N 
ATOM      2  C   UNL     1      -1.213  -0.650  -0.201  0.00  0.00    +0.169 A 
ATOM      3  N   UNL     1      -2.276  -0.382   0.521  0.00  0.00    -0.221 NA
ATOM      4  C   UNL     1      -3.231  -1.303   0.776  0.00  0.00    +0.123 A 
ATOM      5  C   UNL     1      -4.420  -1.144   1.532  0.00  0.00    +0.147 A 
ATOM      6  C   UNL     1      -5.290  -2.196   1.701  0.00  0.00    +0.049 A 
ATOM      7  C   UNL     1      -5.036  -3.441   1.143  0.00  0.00    +0.025 A 
ATOM      8  C   UNL     1      -3.884  -3.630   0.401  0.00  0.00    +0.057 A 
ATOM      9  C   UNL     1      -3.009  -2.584   0.226  0.00  0.00    +0.063 A 
ATOM     10  S   UNL     1      -1.460  -2.370  -0.618  0.00  0.00    -0.050 S 
ATOM     11 CL   UNL     1      -3.546  -5.179  -0.306  0.00  0.00    -0.082 Cl
ATOM     12  C   UNL     1      -0.158   1.467  -0.129  0.00  0.00    +0.252 C 
ATOM     13  O   UNL     1      -1.100   1.906   0.501  0.00  0.00    -0.270 OA
ENDROOT
BRANCH  12  14
ATOM     14  C   UNL     1       0.993   2.342  -0.443  0.00  0.00    +0.037 A 
ATOM     15  C   UNL     1       2.264   1.789  -0.612  0.00  0.00    +0.014 A 
ATOM     16  C   UNL     1       3.334   2.603  -0.910  0.00  0.00    +0.019 A 
ATOM     17  C   UNL     1       3.150   3.982  -1.033  0.00  0.00    +0.052 A 
ATOM     18  C   UNL     1       1.879   4.535  -0.859  0.00  0.00    +0.019 A 
ATOM     19  C   UNL     1       0.808   3.721  -0.566  0.00  0.00    +0.014 A 
BRANCH  17  20
ATOM     20  C   UNL     1       4.264   4.829  -1.338  0.00  0.00    +0.099 C 
ATOM     21  N   UNL     1       5.147   5.501  -1.579  0.00  0.00    -0.191 NA
ENDBRANCH  17  20
ENDBRANCH  12  14
BRANCH   5  22
ATOM     22  O   UNL     1      -4.704   0.060   2.095  0.00  0.00    -0.493 OA
ATOM     23  C   UNL     1      -5.917   0.157   2.844  0.00  0.00    +0.277 C 
ENDBRANCH   5  22
BRANCH   1  24
ATOM     24  C   UNL     1       0.940  -0.324  -1.364  0.00  0.00    +0.114 C 
BRANCH  24  25
ATOM     25  C   UNL     1       1.808  -1.261  -0.523  0.00  0.00    +0.001 C 
BRANCH  25  26
ATOM     26  C   UNL     1       2.961  -1.793  -1.377  0.00  0.00    -0.078 C 
BRANCH  26  29
ATOM     27  C   UNL     1       4.766  -3.406  -1.410  0.00  0.00    -0.097 C 
ATOM     28  C   UNL     1       4.469  -1.960   0.509  0.00  0.00    -0.097 C 
ATOM     29  N   UNL     1       3.777  -2.713  -0.558  0.00  0.00    +0.376 N 
ATOM     30  H   UNL     1       3.160  -3.412  -0.127  0.00  0.00    -0.083 HD
ENDBRANCH  26  29
ENDBRANCH  25  26
ENDBRANCH  24  25
ENDBRANCH   1  24
TORSDOF 7
