REMARK  Name = ZINC64080851
REMARK  8 active torsions:
REMARK  status: ('A' for Active; 'I' for Inactive)
REMARK    1  A    between atoms: C_1  and  C_2
REMARK    2  A    between atoms: N_10  and  C_14
REMARK    3  A    between atoms: C_14  and  C_15
REMARK    4  A    between atoms: N_17  and  N_18
REMARK    5  A    between atoms: N_18  and  C_19
REMARK    6  A    between atoms: C_19  and  N_21
REMARK    7  A    between atoms: N_21  and  C_22
REMARK    8  A    between atoms: C_22  and  C_23
REMARK                            x       y       z     vdW  Elec       q    Type
REMARK                         _______ _______ _______ _____ _____    ______ ____
ROOT
ATOM      1  C   UNL     1       3.325  -5.738  -0.062  0.00  0.00    +0.215 C 
ENDROOT
BRANCH   1  11
ATOM      2  C   UNL     1      -0.019   1.526   0.010  0.00  0.00    +0.007 C 
ATOM      3  C   UNL     1       0.002  -0.004   0.002  0.00  0.00    -0.014 C 
ATOM      4  C   UNL     1       0.716  -0.497  -1.258  0.00  0.00    +0.006 C 
ATOM      5  C   UNL     1       0.727  -2.028  -1.271  0.00  0.00    +0.035 C 
ATOM      6  C   UNL     1       1.442  -2.543  -0.027  0.00  0.00    +0.113 C 
ATOM      7  C   UNL     1       0.753  -2.041   1.238  0.00  0.00    +0.035 C 
ATOM      8  C   UNL     1       0.742  -0.510   1.242  0.00  0.00    +0.006 C 
ATOM      9  C   UNL     1       1.495  -4.053  -0.035  0.00  0.00    +0.247 C 
ATOM     10  O   UNL     1       0.556  -4.821  -0.030  0.00  0.00    -0.273 OA
ATOM     11  N   UNL     1       2.807  -4.367  -0.051  0.00  0.00    -0.215 N 
ATOM     12  C   UNL     1       3.576  -3.272  -0.053  0.00  0.00    +0.310 C 
ATOM     13  O   UNL     1       4.791  -3.300  -0.065  0.00  0.00    -0.252 OA
ATOM     14  N   UNL     1       2.853  -2.136  -0.039  0.00  0.00    -0.285 N 
ATOM     15  H   UNL     1       3.196  -1.229  -0.038  0.00  0.00    +0.151 HD
ENDBRANCH   1  11
BRANCH   1  16
ATOM     16  C   UNL     1       3.488  -6.201  -1.487  0.00  0.00    +0.247 C 
ATOM     17  O   UNL     1       3.200  -5.459  -2.403  0.00  0.00    -0.273 OA
ATOM     18  N   UNL     1       3.954  -7.439  -1.744  0.00  0.00    -0.234 N 
ATOM     19  H   UNL     1       4.185  -8.032  -1.012  0.00  0.00    +0.173 HD
BRANCH  18  20
ATOM     20  N   UNL     1       4.106  -7.870  -3.069  0.00  0.00    -0.246 N 
ATOM     21  H   UNL     1       3.875  -7.277  -3.801  0.00  0.00    +0.172 HD
BRANCH  20  22
ATOM     22  C   UNL     1       4.572  -9.108  -3.326  0.00  0.00    +0.147 C 
ATOM     23  S   UNL     1       4.757  -9.634  -4.944  0.00  0.00    -0.017 S 
BRANCH  22  24
ATOM     24  N   UNL     1       4.893  -9.932  -2.309  0.00  0.00    -0.317 N 
ATOM     25  H   UNL     1       4.788  -9.633  -1.392  0.00  0.00    +0.148 HD
BRANCH  24  26
ATOM     26  C   UNL     1       5.399 -11.277  -2.588  0.00  0.00    +0.216 C 
BRANCH  26  27
ATOM     27  C   UNL     1       5.684 -11.999  -1.269  0.00  0.00    +0.405 C 
ATOM     28  F   UNL     1       4.504 -12.091  -0.524  0.00  0.00    -0.169 F 
ATOM     29  F   UNL     1       6.168 -13.284  -1.536  0.00  0.00    -0.169 F 
ATOM     30  F   UNL     1       6.640 -11.282  -0.542  0.00  0.00    -0.169 F 
ENDBRANCH  26  27
ENDBRANCH  24  26
ENDBRANCH  22  24
ENDBRANCH  20  22
ENDBRANCH  18  20
ENDBRANCH   1  16
TORSDOF 7
