REMARK  Name = ZINC19520172
REMARK  5 active torsions:
REMARK  status: ('A' for Active; 'I' for Inactive)
REMARK    1  A    between atoms: C_1  and  C_2
REMARK    2  A    between atoms: C_2  and  O_3
REMARK    3  A    between atoms: O_3  and  C_4
REMARK    4  A    between atoms: C_9  and  C_10
REMARK    5  A    between atoms: C_10  and  N_11
REMARK                            x       y       z     vdW  Elec       q    Type
REMARK                         _______ _______ _______ _____ _____    ______ ____
ROOT
ATOM      1  N   UNL     1      -3.156   1.611   3.271  0.00  0.00    +0.383 N 
ATOM      2  C   UNL     1      -3.131   0.412   4.120  0.00  0.00    -0.076 C 
ATOM      3  C   UNL     1      -4.282  -0.517   3.725  0.00  0.00    +0.016 C 
ATOM      4  C   UNL     1      -5.608   0.226   3.883  0.00  0.00    +0.070 C 
ATOM      5  C   UNL     1      -5.593   1.503   3.043  0.00  0.00    +0.016 C 
ATOM      6  C   UNL     1      -4.400   2.368   3.458  0.00  0.00    -0.076 C 
ATOM      7  C   UNL     1      -6.764  -0.682   3.413  0.00  0.00    +0.082 C 
ATOM      8  C   UNL     1      -7.310  -1.233   4.750  0.00  0.00    +0.125 C 
ATOM      9  C   UNL     1      -7.064  -0.050   5.707  0.00  0.00    +0.206 C 
ATOM     10  O   UNL     1      -5.832   0.545   5.260  0.00  0.00    -0.370 OA
ATOM     11  N   UNL     1      -8.739  -1.512   4.636  0.00  0.00    -0.321 N 
ATOM     12  C   UNL     1      -9.340  -2.271   5.637  0.00  0.00    +0.041 A 
ATOM     13  C   UNL     1     -10.674  -2.117   5.970  0.00  0.00    +0.024 A 
ATOM     14  C   UNL     1     -11.220  -2.889   6.979  0.00  0.00    +0.002 A 
ATOM     15  C   UNL     1     -10.441  -3.813   7.657  0.00  0.00    +0.001 A 
ATOM     16  C   UNL     1      -9.110  -3.981   7.335  0.00  0.00    +0.015 A 
ATOM     17  C   UNL     1      -8.548  -3.212   6.318  0.00  0.00    +0.058 A 
ATOM     18  C   UNL     1      -7.137  -3.370   5.919  0.00  0.00    +0.247 C 
ATOM     19  O   UNL     1      -6.504  -4.350   6.261  0.00  0.00    -0.270 OA
ATOM     20  N   UNL     1      -6.558  -2.406   5.167  0.00  0.00    -0.288 N 
ATOM     21  H   UNL     1      -9.307  -1.127   3.777  0.00  0.00    +0.148 HD
ATOM     22  H   UNL     1      -5.505  -2.518   4.870  0.00  0.00    +0.151 HD
ATOM     23  H   UNL     1      -3.120   1.280   2.223  0.00  0.00    -0.081 HD
ENDROOT
BRANCH   1  24
ATOM     24  C   UNL     1      -1.982   2.457   3.520  0.00  0.00    -0.039 C 
BRANCH  24  30
ATOM     25  C   UNL     1      -0.149   1.182   2.380  0.00  0.00    +0.122 A 
ATOM     26  C   UNL     1       0.994   0.397   2.421  0.00  0.00    +0.046 A 
ATOM     27  C   UNL     1       1.534   0.028   3.637  0.00  0.00    +0.004 A 
ATOM     28  C   UNL     1       0.935   0.440   4.814  0.00  0.00    +0.000 A 
ATOM     29  C   UNL     1      -0.203   1.222   4.776  0.00  0.00    +0.005 A 
ATOM     30  C   UNL     1      -0.744   1.599   3.561  0.00  0.00    -0.022 A 
BRANCH  25  31
ATOM     31  O   UNL     1      -0.682   1.547   1.184  0.00  0.00    -0.492 OA
BRANCH  31  33
ATOM     32  C   UNL     1      -0.753   1.593  -1.232  0.00  0.00    +0.048 C 
ATOM     33  C   UNL     1      -0.013   1.086   0.008  0.00  0.00    +0.225 C 
ENDBRANCH  31  33
ENDBRANCH  25  31
ENDBRANCH  24  30
ENDBRANCH   1  24
TORSDOF 4
