REMARK  Name = ZINC41384402
REMARK  4 active torsions:
REMARK  status: ('A' for Active; 'I' for Inactive)
REMARK    1  A    between atoms: C_1  and  C_2
REMARK    2  A    between atoms: C_5  and  C_15
REMARK    3  A    between atoms: C_6  and  C_8
REMARK    4  A    between atoms: C_8  and  N_9
REMARK                            x       y       z     vdW  Elec       q    Type
REMARK                         _______ _______ _______ _____ _____    ______ ____
ROOT
ATOM      1  C   UNL     1      -0.585   1.268  -0.235  0.00  0.00    +0.044 C 
ATOM      2  C   UNL     1      -0.267  -0.203  -0.152  0.00  0.00    -0.050 A 
ATOM      3  C   UNL     1      -0.199  -0.961  -1.305  0.00  0.00    +0.003 A 
ATOM      4  C   UNL     1       0.093  -2.310  -1.229  0.00  0.00    +0.004 A 
ATOM      5  C   UNL     1       0.317  -2.901   0.001  0.00  0.00    -0.046 A 
ATOM      6  C   UNL     1       0.249  -2.142   1.154  0.00  0.00    -0.023 A 
ATOM      7  C   UNL     1      -0.038  -0.792   1.077  0.00  0.00    +0.009 A 
ATOM      8  C   UNL     1       0.634  -4.372   0.084  0.00  0.00    +0.044 C 
ENDROOT
BRANCH   6   9
ATOM      9  C   UNL     1       0.493  -2.786   2.495  0.00  0.00    +0.183 C 
BRANCH   9  10
ATOM     10  N   UNL     1      -0.759  -3.360   2.995  0.00  0.00    -0.215 N 
ATOM     11  C   UNL     1      -1.704  -2.744   3.735  0.00  0.00    +0.218 A 
ATOM     12  N   UNL     1      -2.651  -3.617   3.962  0.00  0.00    -0.101 NA
ATOM     13  N   UNL     1      -2.367  -4.744   3.415  0.00  0.00    -0.022 NA
ATOM     14  N   UNL     1      -1.235  -4.668   2.802  0.00  0.00    -0.043 NA
ATOM     15 BR   UNL     1      -1.665  -0.951   4.335  0.00  0.00    -0.005 Br
ENDBRANCH   9  10
ENDBRANCH   6   9
TORSDOF 2
