REMARK  Name = ZINC44849617
REMARK  4 active torsions:
REMARK  status: ('A' for Active; 'I' for Inactive)
REMARK    1  A    between atoms: C_1  and  N_2
REMARK    2  A    between atoms: N_2  and  C_3
REMARK    3  A    between atoms: C_9  and  C_11
REMARK    4  A    between atoms: C_11  and  N_12
REMARK                            x       y       z     vdW  Elec       q    Type
REMARK                         _______ _______ _______ _____ _____    ______ ____
ROOT
ATOM      1  N   UNL     1       0.163  -0.924  -3.568  0.00  0.00    -0.194 N 
ATOM      2  C   UNL     1       1.365  -1.516  -3.977  0.00  0.00    +0.060 A 
ATOM      3  C   UNL     1       2.538  -0.780  -3.851  0.00  0.00    +0.028 A 
ATOM      4  C   UNL     1       3.746  -1.321  -4.243  0.00  0.00    +0.040 A 
ATOM      5  C   UNL     1       3.795  -2.605  -4.763  0.00  0.00    +0.124 A 
ATOM      6  C   UNL     1       2.638  -3.346  -4.893  0.00  0.00    +0.048 A 
ATOM      7  C   UNL     1       1.407  -2.809  -4.499  0.00  0.00    +0.009 A 
ATOM      8  C   UNL     1       0.198  -3.652  -4.655  0.00  0.00    +0.011 A 
ATOM      9  C   UNL     1       0.333  -5.029  -4.842  0.00  0.00    +0.010 A 
ATOM     10  C   UNL     1      -0.790  -5.816  -4.992  0.00  0.00    +0.001 A 
ATOM     11  C   UNL     1      -2.052  -5.250  -4.957  0.00  0.00    +0.002 A 
ATOM     12  C   UNL     1      -2.196  -3.885  -4.771  0.00  0.00    +0.029 A 
ATOM     13  C   UNL     1      -1.079  -3.096  -4.620  0.00  0.00    +0.116 A 
ATOM     14  S   UNL     1      -1.231  -1.358  -4.369  0.00  0.00    +0.076 S 
ATOM     15  O   UNL     1      -2.309  -1.161  -3.465  0.00  0.00    -0.150 OA
ATOM     16  O   UNL     1      -1.179  -0.750  -5.653  0.00  0.00    -0.150 OA
ATOM     17  F   UNL     1       4.978  -3.131  -5.146  0.00  0.00    -0.205 F 
ENDROOT
BRANCH   1  18
ATOM     18  C   UNL     1       0.132   0.043  -2.468  0.00  0.00    +0.227 C 
BRANCH  18  21
ATOM     19  C   UNL     1      -0.074   1.459  -0.019  0.00  0.00    +0.138 C 
ATOM     20  N   UNL     1       0.002  -0.004   0.002  0.00  0.00    -0.273 N 
ATOM     21  C   UNL     1       0.043  -0.693  -1.155  0.00  0.00    +0.239 C 
ATOM     22  O   UNL     1       0.009  -1.905  -1.141  0.00  0.00    -0.273 OA
BRANCH  20  23
ATOM     23  C   UNL     1       0.031  -0.686   1.224  0.00  0.00    +0.036 A 
ATOM     24  C   UNL     1       1.127  -0.557   2.067  0.00  0.00    +0.023 A 
ATOM     25  C   UNL     1       1.153  -1.231   3.272  0.00  0.00    +0.002 A 
ATOM     26  C   UNL     1       0.089  -2.033   3.639  0.00  0.00    +0.000 A 
ATOM     27  C   UNL     1      -1.004  -2.164   2.802  0.00  0.00    +0.002 A 
ATOM     28  C   UNL     1      -1.038  -1.489   1.598  0.00  0.00    +0.023 A 
ENDBRANCH  20  23
ENDBRANCH  18  21
ENDBRANCH   1  18
TORSDOF 3
