REMARK  Name = ZINC37103801
REMARK  3 active torsions:
REMARK  status: ('A' for Active; 'I' for Inactive)
REMARK    1  A    between atoms: C_1  and  N_2
REMARK    2  A    between atoms: C_10  and  N_12
REMARK    3  A    between atoms: N_12  and  C_13
REMARK                            x       y       z     vdW  Elec       q    Type
REMARK                         _______ _______ _______ _____ _____    ______ ____
ROOT
ATOM      1  N   UNL     1      -0.214  -4.144   0.521  0.00  0.00    -0.341 N 
ATOM      2  H   UNL     1       0.578  -4.410   0.028  0.00  0.00    +0.146 HD
ENDROOT
BRANCH   1  10
ATOM      3  C   UNL     1      -0.018   1.465   0.010  0.00  0.00    +0.105 C 
ATOM      4  N   UNL     1       0.002  -0.004   0.002  0.00  0.00    -0.299 NA
ATOM      5  C   UNL     1      -1.371  -0.556   0.146  0.00  0.00    +0.058 C 
ATOM      6  C   UNL     1      -1.687  -0.403   1.652  0.00  0.00    +0.020 C 
ATOM      7  C   UNL     1      -0.308  -0.388   2.345  0.00  0.00    +0.020 C 
ATOM      8  C   UNL     1       0.715  -0.534   1.195  0.00  0.00    +0.058 C 
ATOM      9  C   UNL     1       0.945  -2.035   0.958  0.00  0.00    +0.041 C 
ATOM     10  C   UNL     1      -0.413  -2.740   0.886  0.00  0.00    +0.073 C 
ATOM     11  C   UNL     1      -1.296  -2.056  -0.182  0.00  0.00    +0.041 C 
ENDBRANCH   1  10
BRANCH   1  12
ATOM     12  C   UNL     1      -1.167  -5.103   0.884  0.00  0.00    +0.028 A 
ATOM     13  C   UNL     1      -2.305  -4.726   1.585  0.00  0.00    +0.026 A 
ATOM     14  C   UNL     1      -3.247  -5.668   1.940  0.00  0.00    +0.048 A 
ATOM     15  C   UNL     1      -3.066  -7.007   1.600  0.00  0.00    +0.124 A 
ATOM     16  C   UNL     1      -1.922  -7.376   0.905  0.00  0.00    -0.001 A 
ATOM     17  C   UNL     1      -0.983  -6.436   0.540  0.00  0.00    +0.030 A 
ATOM     18  C   UNL     1      -1.990  -8.877   0.701  0.00  0.00    +0.080 C 
ATOM     19  C   UNL     1      -3.091  -9.287   1.707  0.00  0.00    +0.234 C 
ATOM     20  O   UNL     1      -3.866  -8.083   1.838  0.00  0.00    -0.491 OA
ENDBRANCH   1  12
TORSDOF 2
