REMARK  Name = ZINC60241521
REMARK  8 active torsions:
REMARK  status: ('A' for Active; 'I' for Inactive)
REMARK    1  A    between atoms: C_1  and  C_2
REMARK    2  A    between atoms: C_3  and  S_27
REMARK    3  A    between atoms: C_8  and  C_10
REMARK    4  A    between atoms: C_10  and  N_11
REMARK    5  A    between atoms: C_16  and  C_23
REMARK    6  A    between atoms: C_19  and  C_21
REMARK    7  A    between atoms: C_19  and  C_22
REMARK    8  A    between atoms: S_27  and  C_28
REMARK                            x       y       z     vdW  Elec       q    Type
REMARK                         _______ _______ _______ _____ _____    ______ ____
ROOT
ATOM      1  N   UNL     1       0.106  -6.515   2.750  0.00  0.00    -0.215 N 
ATOM      2  C   UNL     1      -1.001  -7.260   2.532  0.00  0.00    +0.247 C 
ATOM      3  O   UNL     1      -2.133  -6.975   2.855  0.00  0.00    -0.273 OA
ATOM      4  C   UNL     1      -0.517  -8.498   1.817  0.00  0.00    +0.113 C 
ATOM      5  C   UNL     1      -1.049  -9.756   2.487  0.00  0.00    +0.038 C 
ATOM      6  C   UNL     1      -2.540  -9.918   2.187  0.00  0.00    -0.011 C 
ATOM      7  C   UNL     1      -2.719 -10.077   0.678  0.00  0.00    +0.009 C 
ATOM      8  C   UNL     1      -2.225  -8.842  -0.065  0.00  0.00    -0.032 C 
ATOM      9  C   UNL     1      -0.812  -8.447   0.332  0.00  0.00    +0.041 C 
ATOM     10  C   UNL     1      -2.223  -9.169  -1.574  0.00  0.00    +0.011 C 
ATOM     11  C   UNL     1      -3.194  -7.676   0.150  0.00  0.00    +0.011 C 
ATOM     12  C   UNL     1      -3.066 -11.170   2.895  0.00  0.00    +0.007 C 
ATOM     13  N   UNL     1       0.950  -8.439   2.010  0.00  0.00    -0.285 N 
ATOM     14  C   UNL     1       1.218  -7.215   2.497  0.00  0.00    +0.310 C 
ATOM     15  O   UNL     1       2.341  -6.791   2.687  0.00  0.00    -0.252 OA
ATOM     16  H   UNL     1       1.578  -9.150   1.819  0.00  0.00    +0.151 HD
ENDROOT
BRANCH   1  17
ATOM     17  C   UNL     1       0.089  -5.131   3.227  0.00  0.00    +0.214 C 
BRANCH  17  25
ATOM     18  C   UNL     1      -0.018   1.503   0.010  0.00  0.00    +0.067 C 
ATOM     19  C   UNL     1       0.002  -0.004   0.002  0.00  0.00    +0.061 A 
ATOM     20  C   UNL     1       0.005  -0.683  -1.179  0.00  0.00    +0.069 A 
ATOM     21  S   UNL     1       0.032  -2.371  -0.590  0.00  0.00    -0.046 S 
ATOM     22  C   UNL     1       0.036  -1.994   1.158  0.00  0.00    +0.166 A 
ATOM     23  N   UNL     1       0.022  -0.674   1.139  0.00  0.00    -0.229 NA
ATOM     24  N   UNL     1       0.053  -2.861   2.247  0.00  0.00    -0.263 N 
ATOM     25  C   UNL     1       0.070  -4.193   2.048  0.00  0.00    +0.237 C 
ATOM     26  O   UNL     1       0.071  -4.638   0.919  0.00  0.00    -0.274 OA
ATOM     27  H   UNL     1       0.053  -2.505   3.150  0.00  0.00    +0.157 HD
BRANCH  20  28
ATOM     28  S   UNL     1      -0.013  -0.068  -2.830  0.00  0.00    -0.120 S 
ATOM     29  C   UNL     1       0.003  -1.564  -3.856  0.00  0.00    +0.090 C 
ENDBRANCH  20  28
ENDBRANCH  17  25
ENDBRANCH   1  17
TORSDOF 3
