REMARK  Name = ZINC32124544
REMARK  4 active torsions:
REMARK  status: ('A' for Active; 'I' for Inactive)
REMARK    1  A    between atoms: C_4  and  C_7
REMARK    2  A    between atoms: C_8  and  C_9
REMARK    3  A    between atoms: C_11  and  C_30
REMARK    4  A    between atoms: C_12  and  N_14
REMARK                            x       y       z     vdW  Elec       q    Type
REMARK                         _______ _______ _______ _____ _____    ______ ____
ROOT
ATOM      1  C   UNL     1      -2.010   5.635  -5.534  0.00  0.00    +0.224 A 
ATOM      2  N   UNL     1      -2.130   4.332  -5.637  0.00  0.00    -0.197 NA
ATOM      3  C   UNL     1      -2.050   3.791  -4.401  0.00  0.00    +0.201 A 
ATOM      4  C   UNL     1      -1.871   4.840  -3.508  0.00  0.00    +0.227 A 
ATOM      5  O   UNL     1      -1.855   5.971  -4.238  0.00  0.00    -0.421 OA
ENDROOT
BRANCH   4   6
ATOM      6  N   UNL     1      -1.740   4.742  -2.141  0.00  0.00    -0.298 N 
ATOM      7  C   UNL     1      -1.567   6.066  -1.534  0.00  0.00    +0.113 C 
ATOM      8  C   UNL     1      -1.362   5.955  -0.030  0.00  0.00    +0.027 C 
ATOM      9  C   UNL     1      -2.514   5.183   0.619  0.00  0.00    +0.018 C 
ATOM     10  C   UNL     1      -2.591   3.810  -0.059  0.00  0.00    +0.054 C 
ATOM     11  C   UNL     1      -2.886   4.034  -1.552  0.00  0.00    +0.117 C 
ATOM     12  C   UNL     1      -1.244   3.130   0.041  0.00  0.00    +0.027 A 
ATOM     13  C   UNL     1      -1.227   1.771   0.017  0.00  0.00    +0.022 A 
ATOM     14  C   UNL     1      -0.013   1.076   0.008  0.00  0.00    +0.007 A 
ATOM     15  C   UNL     1       1.153   1.786   0.001  0.00  0.00    +0.070 A 
ATOM     16  C   UNL     1       1.099   3.186   0.035  0.00  0.00    +0.251 A 
ATOM     17  O   UNL     1       2.135   3.830  -0.007  0.00  0.00    -0.268 OA
ATOM     18  N   UNL     1      -0.090   3.832   0.113  0.00  0.00    -0.312 N 
ATOM     19  C   UNL     1      -0.044   5.281   0.313  0.00  0.00    +0.130 C 
ENDBRANCH   4   6
BRANCH   1  21
ATOM     20  C   UNL     1      -2.212   6.125  -7.912  0.00  0.00    +0.013 C 
ATOM     21  C   UNL     1      -2.045   6.578  -6.654  0.00  0.00    +0.068 C 
BRANCH  20  25
ATOM     22  C   UNL     1      -2.313   8.857 -11.156  0.00  0.00    +0.000 A 
ATOM     23  C   UNL     1      -2.451   7.501 -11.394  0.00  0.00    +0.001 A 
ATOM     24  C   UNL     1      -2.420   6.607 -10.345  0.00  0.00    +0.008 A 
ATOM     25  C   UNL     1      -2.247   7.073  -9.038  0.00  0.00    -0.025 A 
ATOM     26  C   UNL     1      -2.113   8.445  -8.805  0.00  0.00    +0.008 A 
ATOM     27  C   UNL     1      -2.141   9.327  -9.865  0.00  0.00    +0.001 A 
ENDBRANCH  20  25
ENDBRANCH   1  21
BRANCH   3  28
ATOM     28  C   UNL     1      -2.134   2.400  -4.073  0.00  0.00    +0.124 C 
ATOM     29  N   UNL     1      -2.201   1.296  -3.814  0.00  0.00    -0.189 NA
ENDBRANCH   3  28
TORSDOF 4
