REMARK  Name = ZINC11965438
REMARK  8 active torsions:
REMARK  status: ('A' for Active; 'I' for Inactive)
REMARK    1  A    between atoms: C_1  and  C_2
REMARK    2  A    between atoms: C_5  and  C_8
REMARK    3  A    between atoms: C_8  and  C_9
REMARK    4  A    between atoms: C_9  and  N_63
REMARK    5  A    between atoms: C_10  and  N_63
REMARK    6  A    between atoms: C_20  and  C_32
REMARK    7  A    between atoms: C_24  and  S_28
REMARK    8  A    between atoms: S_28  and  C_31
REMARK                            x       y       z     vdW  Elec       q    Type
REMARK                         _______ _______ _______ _____ _____    ______ ____
ROOT
ATOM      1  C   UNL     1       0.266  -0.544  -1.327  0.00  0.00    -0.070 C 
ATOM      2  C   UNL     1       0.002  -0.004   0.002  0.00  0.00    -0.014 C 
ATOM      3  C   UNL     1      -0.019   1.539   0.011  0.00  0.00    +0.017 C 
ATOM      4  C   UNL     1       1.401   2.036  -0.000  0.00  0.00    +0.108 C 
ATOM      5  N   UNL     1       1.901   2.316  -1.365  0.00  0.00    -0.300 N 
ATOM      6  C   UNL     1       1.522   1.308  -2.380  0.00  0.00    +0.106 C 
ATOM      7  C   UNL     1       1.640  -0.103  -1.873  0.00  0.00    +0.003 C 
ATOM      8  C   UNL     1       1.543   3.589  -1.772  0.00  0.00    +0.219 A 
ATOM      9  N   UNL     1       0.941   3.737  -2.951  0.00  0.00    -0.219 NA
ATOM     10  C   UNL     1       0.576   4.922  -3.394  0.00  0.00    +0.051 A 
ATOM     11  C   UNL     1       0.835   6.048  -2.590  0.00  0.00    +0.022 A 
ATOM     12  C   UNL     1       0.478   7.344  -2.989  0.00  0.00    +0.013 A 
ATOM     13  C   UNL     1       0.754   8.398  -2.170  0.00  0.00    +0.028 A 
ATOM     14  C   UNL     1       1.385   8.206  -0.943  0.00  0.00    +0.090 A 
ATOM     15  C   UNL     1       1.745   6.960  -0.525  0.00  0.00    +0.055 A 
ATOM     16  C   UNL     1       1.478   5.851  -1.341  0.00  0.00    +0.078 A 
ATOM     17  N   UNL     1       1.807   4.606  -0.975  0.00  0.00    -0.214 NA
ATOM     18  C   UNL     1      -0.105   5.069  -4.730  0.00  0.00    +0.066 C 
ENDROOT
BRANCH  14  19
ATOM     19  S   UNL     1       1.723   9.596   0.086  0.00  0.00    -0.006 S 
ATOM     20  O   UNL     1       2.838   9.202   0.873  0.00  0.00    -0.170 OA
ATOM     21  O   UNL     1       1.820  10.694  -0.810  0.00  0.00    -0.170 OA
ATOM     22  C   UNL     1       0.250   9.771   1.131  0.00  0.00    +0.200 C 
ENDBRANCH  14  19
BRANCH   1  23
ATOM     23  N   UNL     1       0.229  -2.017  -1.254  0.00  0.00    +0.381 N 
ATOM     24  H   UNL     1       1.148  -2.364  -0.958  0.00  0.00    -0.086 HD
ATOM     25  H   UNL     1      -0.482  -2.304  -0.570  0.00  0.00    -0.086 HD
BRANCH  23  26
ATOM     26  C   UNL     1      -0.106  -2.587  -2.572  0.00  0.00    -0.078 C 
BRANCH  26  27
ATOM     27  C   UNL     1      -0.137  -4.113  -2.465  0.00  0.00    +0.016 C 
BRANCH  27  32
ATOM     28  C   UNL     1      -1.446  -6.381  -7.616  0.00  0.00    +0.044 C 
ATOM     29  C   UNL     1      -1.105  -5.790  -6.273  0.00  0.00    -0.050 A 
ATOM     30  C   UNL     1       0.215  -5.561  -5.934  0.00  0.00    +0.003 A 
ATOM     31  C   UNL     1       0.528  -5.019  -4.701  0.00  0.00    +0.004 A 
ATOM     32  C   UNL     1      -0.479  -4.704  -3.808  0.00  0.00    -0.049 A 
ATOM     33  C   UNL     1      -1.799  -4.937  -4.146  0.00  0.00    +0.004 A 
ATOM     34  C   UNL     1      -2.112  -5.475  -5.380  0.00  0.00    +0.003 A 
ENDBRANCH  27  32
ENDBRANCH  26  27
ENDBRANCH  23  26
ENDBRANCH   1  23
TORSDOF 5
