REMARK  Name = ZINC15987488
REMARK  6 active torsions:
REMARK  status: ('A' for Active; 'I' for Inactive)
REMARK    1  A    between atoms: C_1  and  O_2
REMARK    2  A    between atoms: O_2  and  C_3
REMARK    3  A    between atoms: C_3  and  N_16
REMARK    4  A    between atoms: C_4  and  C_5
REMARK    5  A    between atoms: C_4  and  N_7
REMARK    6  A    between atoms: C_8  and  C_9
REMARK                            x       y       z     vdW  Elec       q    Type
REMARK                         _______ _______ _______ _____ _____    ______ ____
ROOT
ATOM      1  C   UNL     1       0.602  -0.603  -1.048  0.00  0.00    +0.214 C 
ATOM      2  C   UNL     1       0.656  -1.987  -1.119  0.00  0.00    +0.197 C 
ENDROOT
BRANCH   1   3
ATOM      3  N   UNL     1       1.155   0.155  -2.043  0.00  0.00    -0.327 N 
ATOM      4  H   UNL     1       1.117   1.123  -1.993  0.00  0.00    +0.145 HD
ATOM      5  H   UNL     1       1.586  -0.275  -2.798  0.00  0.00    +0.145 HD
ENDBRANCH   1   3
BRANCH   1   7
ATOM      6  C   UNL     1      -0.017   1.425   0.010  0.00  0.00    +0.278 C 
ATOM      7  O   UNL     1       0.002  -0.004   0.002  0.00  0.00    -0.481 OA
ENDBRANCH   1   7
BRANCH   2   8
ATOM      8  C   UNL     1       0.076  -2.781  -0.078  0.00  0.00    +0.124 C 
ATOM      9  N   UNL     1      -0.384  -3.410   0.749  0.00  0.00    -0.189 NA
ENDBRANCH   2   8
BRANCH   2  10
ATOM     10  N   UNL     1       1.262  -2.593  -2.181  0.00  0.00    -0.239 NA
ATOM     11  C   UNL     1       1.313  -3.893  -2.248  0.00  0.00    +0.121 C 
BRANCH  11  12
ATOM     12  C   UNL     1       1.967  -4.546  -3.393  0.00  0.00    +0.011 A 
ATOM     13  C   UNL     1       2.019  -5.942  -3.471  0.00  0.00    +0.011 A 
ATOM     14  C   UNL     1       2.634  -6.546  -4.548  0.00  0.00    +0.001 A 
ATOM     15  C   UNL     1       3.199  -5.776  -5.550  0.00  0.00    +0.001 A 
ATOM     16  C   UNL     1       3.152  -4.395  -5.481  0.00  0.00    +0.020 A 
ATOM     17  C   UNL     1       2.535  -3.775  -4.413  0.00  0.00    +0.050 A 
ATOM     18 CL   UNL     1       2.470  -2.042  -4.332  0.00  0.00    -0.083 Cl
ENDBRANCH  11  12
ENDBRANCH   2  10
TORSDOF 5
