REMARK  Name = ZINC08918383
REMARK  6 active torsions:
REMARK  status: ('A' for Active; 'I' for Inactive)
REMARK    1  A    between atoms: C_1  and  C_2
REMARK    2  A    between atoms: C_2  and  C_4
REMARK    3  A    between atoms: C_2  and  N_15
REMARK    4  A    between atoms: N_6  and  C_7
REMARK    5  A    between atoms: C_7  and  C_8
REMARK    6  A    between atoms: C_18  and  C_34
REMARK                            x       y       z     vdW  Elec       q    Type
REMARK                         _______ _______ _______ _____ _____    ______ ____
ROOT
ATOM      1  N   UNL     1       1.087   1.979   0.002  0.00  0.00    -0.212 N 
ATOM      2  C   UNL     1       0.778   3.291  -0.096  0.00  0.00    +0.253 C 
ATOM      3  O   UNL     1       1.545   4.230  -0.063  0.00  0.00    -0.272 OA
ATOM      4  C   UNL     1      -0.722   3.342  -0.255  0.00  0.00    +0.153 C 
ATOM      5  C   UNL     1      -1.367   4.182   0.822  0.00  0.00    +0.053 A 
ATOM      6  C   UNL     1      -2.345   3.691   1.633  0.00  0.00    -0.015 A 
ATOM      7  C   UNL     1      -2.722   4.781   2.515  0.00  0.00    +0.003 A 
ATOM      8  C   UNL     1      -3.669   4.880   3.539  0.00  0.00    +0.010 A 
ATOM      9  C   UNL     1      -3.762   6.089   4.183  0.00  0.00    +0.001 A 
ATOM     10  C   UNL     1      -2.960   7.166   3.844  0.00  0.00    +0.002 A 
ATOM     11  C   UNL     1      -2.015   7.096   2.835  0.00  0.00    +0.026 A 
ATOM     12  C   UNL     1      -1.900   5.880   2.163  0.00  0.00    +0.047 A 
ATOM     13  N   UNL     1      -1.094   5.473   1.140  0.00  0.00    -0.356 N 
ATOM     14  H   UNL     1      -0.425   6.023   0.703  0.00  0.00    +0.166 HD
ATOM     15  C   UNL     1      -2.916   2.296   1.614  0.00  0.00    +0.056 C 
ATOM     16  C   UNL     1      -2.511   1.571   0.322  0.00  0.00    +0.115 C 
ATOM     17  N   UNL     1      -1.128   1.944   0.018  0.00  0.00    -0.266 N 
ATOM     18  C   UNL     1      -0.014   1.211   0.009  0.00  0.00    +0.313 C 
ATOM     19  O   UNL     1       0.002  -0.004   0.002  0.00  0.00    -0.252 OA
ATOM     20  C   UNL     1      -1.135   3.796  -1.656  0.00  0.00    +0.048 C 
ENDROOT
BRANCH   1  22
ATOM     21  C   UNL     1       2.622   0.687   1.401  0.00  0.00    +0.038 C 
ATOM     22  C   UNL     1       2.454   1.460   0.091  0.00  0.00    +0.168 C 
BRANCH  22  23
ATOM     23  C   UNL     1       2.717   0.539  -1.073  0.00  0.00    +0.234 C 
ATOM     24  O   UNL     1       1.849   0.337  -1.895  0.00  0.00    -0.274 OA
ATOM     25  N   UNL     1       3.918  -0.060  -1.200  0.00  0.00    -0.310 N 
ATOM     26  H   UNL     1       4.613   0.102  -0.542  0.00  0.00    +0.149 HD
BRANCH  25  27
ATOM     27  C   UNL     1       4.174  -0.955  -2.331  0.00  0.00    +0.139 C 
BRANCH  27  28
ATOM     28  C   UNL     1       5.580  -1.490  -2.240  0.00  0.00    -0.030 A 
ATOM     29  C   UNL     1       6.619  -0.809  -2.848  0.00  0.00    +0.008 A 
ATOM     30  C   UNL     1       7.909  -1.296  -2.762  0.00  0.00    +0.038 A 
ATOM     31  C   UNL     1       8.160  -2.471  -2.074  0.00  0.00    +0.123 A 
ATOM     32  C   UNL     1       7.119  -3.155  -1.470  0.00  0.00    +0.038 A 
ATOM     33  C   UNL     1       5.830  -2.663  -1.553  0.00  0.00    +0.008 A 
ATOM     34  F   UNL     1       9.421  -2.951  -1.992  0.00  0.00    -0.205 F 
ENDBRANCH  27  28
ENDBRANCH  25  27
ENDBRANCH  22  23
ENDBRANCH   1  22
TORSDOF 4
