REMARK  Name = ZINC57931321
REMARK  6 active torsions:
REMARK  status: ('A' for Active; 'I' for Inactive)
REMARK    1  A    between atoms: C_1  and  C_2
REMARK    2  A    between atoms: C_7  and  C_8
REMARK    3  A    between atoms: N_9  and  C_16
REMARK    4  A    between atoms: C_12  and  C_14
REMARK    5  A    between atoms: C_12  and  C_15
REMARK    6  A    between atoms: C_16  and  C_17
REMARK                            x       y       z     vdW  Elec       q    Type
REMARK                         _______ _______ _______ _____ _____    ______ ____
ROOT
ATOM      1  C   UNL     1      -0.018   1.503   0.010  0.00  0.00    +0.044 C 
ATOM      2  C   UNL     1       0.002  -0.004   0.002  0.00  0.00    -0.046 A 
ATOM      3  C   UNL     1       0.006  -0.688  -1.201  0.00  0.00    +0.028 A 
ATOM      4  C   UNL     1       0.028  -2.071  -1.205  0.00  0.00    +0.050 A 
ATOM      5  C   UNL     1       0.051  -2.776  -0.000  0.00  0.00    +0.058 A 
ATOM      6  C   UNL     1       0.041  -2.083   1.199  0.00  0.00    +0.029 A 
ATOM      7  C   UNL     1       0.023  -0.700   1.196  0.00  0.00    -0.046 A 
ATOM      8  C   UNL     1       0.019   0.052   2.502  0.00  0.00    +0.044 C 
ATOM      9  N   UNL     1       0.098  -4.175  -0.015  0.00  0.00    -0.259 N 
ATOM     10  C   UNL     1       0.313  -4.846  -1.161  0.00  0.00    +0.243 C 
ATOM     11  O   UNL     1       0.226  -6.056  -1.172  0.00  0.00    -0.273 OA
ATOM     12  C   UNL     1       0.659  -4.112  -2.431  0.00  0.00    +0.103 C 
ATOM     13  N   UNL     1       0.019  -2.788  -2.410  0.00  0.00    -0.329 N 
ATOM     14  C   UNL     1       2.177  -3.945  -2.528  0.00  0.00    +0.041 C 
ATOM     15  C   UNL     1       0.152  -4.906  -3.636  0.00  0.00    +0.041 C 
ATOM     16  H   UNL     1      -0.396  -2.422  -3.206  0.00  0.00    +0.147 HD
ENDROOT
BRANCH   9  17
ATOM     17  C   UNL     1      -0.090  -4.917   1.234  0.00  0.00    +0.209 C 
BRANCH  17  18
ATOM     18  C   UNL     1      -1.554  -5.216   1.425  0.00  0.00    +0.233 C 
ATOM     19  O   UNL     1      -2.362  -4.845   0.600  0.00  0.00    -0.274 OA
ATOM     20  N   UNL     1      -1.967  -5.895   2.514  0.00  0.00    -0.300 N 
ATOM     21  C   UNL     1      -1.100  -6.396   3.591  0.00  0.00    +0.108 C 
ATOM     22  C   UNL     1      -2.004  -7.129   4.604  0.00  0.00    +0.020 C 
ATOM     23  C   UNL     1      -3.253  -7.490   3.757  0.00  0.00    +0.020 C 
ATOM     24  C   UNL     1      -3.362  -6.254   2.825  0.00  0.00    +0.108 C 
ENDBRANCH  17  18
ENDBRANCH   9  17
TORSDOF 2
