REMARK  Name = ZINC16493917
REMARK  7 active torsions:
REMARK  status: ('A' for Active; 'I' for Inactive)
REMARK    1  A    between atoms: C_1  and  C_2
REMARK    2  A    between atoms: C_2  and  O_3
REMARK    3  A    between atoms: O_3  and  C_4
REMARK    4  A    between atoms: C_7  and  N_10
REMARK    5  A    between atoms: C_18  and  C_20
REMARK    6  A    between atoms: C_23  and  C_26
REMARK    7  A    between atoms: C_26  and  C_27
REMARK                            x       y       z     vdW  Elec       q    Type
REMARK                         _______ _______ _______ _____ _____    ______ ____
ROOT
ATOM      1  N   UNL     1      -1.331   2.684  -0.950  0.00  0.00    -0.269 N 
ATOM      2  C   UNL     1      -0.477   2.007  -0.157  0.00  0.00    +0.307 C 
ATOM      3  O   UNL     1      -0.820   0.955   0.347  0.00  0.00    -0.252 OA
ATOM      4  N   UNL     1       0.759   2.493   0.073  0.00  0.00    -0.280 N 
ATOM      5  C   UNL     1       1.238   3.697  -0.622  0.00  0.00    +0.128 C 
ATOM      6  C   UNL     1       2.601   3.387  -1.250  0.00  0.00    +0.126 C 
ATOM      7  N   UNL     1       3.505   2.865  -0.216  0.00  0.00    -0.305 N 
ATOM      8  C   UNL     1       3.011   1.596   0.333  0.00  0.00    +0.129 C 
ATOM      9  C   UNL     1       1.662   1.836   1.030  0.00  0.00    +0.092 C 
ATOM     10  C   UNL     1       1.063   0.498   1.468  0.00  0.00    +0.030 C 
ATOM     11  C   UNL     1       4.791   2.726  -0.707  0.00  0.00    +0.181 A 
ATOM     12  N   UNL     1       5.219   2.037  -1.756  0.00  0.00    -0.208 NA
ATOM     13  C   UNL     1       6.500   2.053  -2.039  0.00  0.00    +0.145 A 
ATOM     14  N   UNL     1       7.327   2.733  -1.281  0.00  0.00    -0.192 NA
ATOM     15  S   UNL     1       6.274   3.400  -0.108  0.00  0.00    +0.049 S 
ATOM     16  H   UNL     1      -1.034   3.486  -1.409  0.00  0.00    +0.156 HD
ENDROOT
BRANCH   1  20
ATOM     17  C   UNL     1      -5.247   1.335  -1.431  0.00  0.00    +0.121 A 
ATOM     18  C   UNL     1      -4.982   2.696  -1.399  0.00  0.00    +0.047 A 
ATOM     19  C   UNL     1      -3.685   3.143  -1.239  0.00  0.00    +0.027 A 
ATOM     20  C   UNL     1      -2.647   2.231  -1.111  0.00  0.00    +0.035 A 
ATOM     21  C   UNL     1      -2.913   0.869  -1.149  0.00  0.00    +0.027 A 
ATOM     22  C   UNL     1      -4.210   0.422  -1.303  0.00  0.00    +0.047 A 
BRANCH  17  23
ATOM     23  O   UNL     1      -6.524   0.895  -1.589  0.00  0.00    -0.492 OA
BRANCH  23  25
ATOM     24  C   UNL     1      -8.213  -0.821  -1.797  0.00  0.00    +0.048 C 
ATOM     25  C   UNL     1      -6.724  -0.520  -1.613  0.00  0.00    +0.225 C 
ENDBRANCH  23  25
ENDBRANCH  17  23
ENDBRANCH   1  20
BRANCH  13  26
ATOM     26  C   UNL     1       7.021   1.287  -3.228  0.00  0.00    +0.112 C 
BRANCH  26  27
ATOM     27  C   UNL     1       7.385  -0.112  -2.803  0.00  0.00    -0.040 A 
ATOM     28  C   UNL     1       8.665  -0.390  -2.362  0.00  0.00    +0.007 A 
ATOM     29  C   UNL     1       8.998  -1.672  -1.968  0.00  0.00    +0.038 A 
ATOM     30  C   UNL     1       8.052  -2.681  -2.025  0.00  0.00    +0.123 A 
ATOM     31  C   UNL     1       6.771  -2.403  -2.473  0.00  0.00    +0.038 A 
ATOM     32  C   UNL     1       6.439  -1.119  -2.861  0.00  0.00    +0.007 A 
ATOM     33  F   UNL     1       8.377  -3.936  -1.645  0.00  0.00    -0.205 F 
ENDBRANCH  26  27
ENDBRANCH  13  26
TORSDOF 5
