REMARK  Name = ZINC38108574
REMARK  3 active torsions:
REMARK  status: ('A' for Active; 'I' for Inactive)
REMARK    1  A    between atoms: C_1  and  C_2
REMARK    2  A    between atoms: N_12  and  S_13
REMARK    3  A    between atoms: S_13  and  C_16
REMARK                            x       y       z     vdW  Elec       q    Type
REMARK                         _______ _______ _______ _____ _____    ______ ____
ROOT
ATOM      1  C   UNL     1       0.544   1.483  -0.026  0.00  0.00    +0.046 C 
ATOM      2  C   UNL     1       0.414  -0.018  -0.025  0.00  0.00    -0.024 A 
ATOM      3  C   UNL     1       0.439  -0.704  -1.201  0.00  0.00    +0.007 A 
ATOM      4  C   UNL     1       0.322  -2.090  -1.230  0.00  0.00    +0.028 A 
ATOM      5  C   UNL     1       0.176  -2.807  -0.060  0.00  0.00    +0.066 A 
ATOM      6  C   UNL     1       0.147  -2.121   1.173  0.00  0.00    +0.025 A 
ATOM      7  C   UNL     1       0.273  -0.709   1.190  0.00  0.00    +0.076 A 
ATOM      8  N   UNL     1       0.251  -0.055   2.356  0.00  0.00    -0.255 NA
ATOM      9  C   UNL     1       0.119  -0.693   3.494  0.00  0.00    +0.111 A 
ATOM     10  C   UNL     1      -0.004  -2.079   3.546  0.00  0.00    +0.020 A 
ATOM     11  C   UNL     1       0.001  -2.808   2.389  0.00  0.00    +0.013 A 
ATOM     12  N   UNL     1       0.059  -4.193  -0.095  0.00  0.00    -0.255 N 
ATOM     13  H   UNL     1       0.048  -4.700   0.732  0.00  0.00    +0.188 HD
ENDROOT
BRANCH  12  14
ATOM     14  S   UNL     1      -0.064  -4.977  -1.549  0.00  0.00    +0.086 S 
ATOM     15  O   UNL     1      -0.342  -6.339  -1.254  0.00  0.00    -0.148 OA
ATOM     16  O   UNL     1      -0.914  -4.185  -2.367  0.00  0.00    -0.148 OA
BRANCH  14  17
ATOM     17  C   UNL     1       1.531  -4.939  -2.297  0.00  0.00    +0.168 A 
ATOM     18  C   UNL     1       2.554  -5.827  -2.202  0.00  0.00    +0.149 A 
ATOM     19  N   UNL     1       3.652  -5.548  -2.877  0.00  0.00    -0.234 NA
ATOM     20  C   UNL     1       3.747  -4.462  -3.605  0.00  0.00    +0.169 A 
ATOM     21  S   UNL     1       2.247  -3.727  -3.395  0.00  0.00    -0.036 S 
ATOM     22 CL   UNL     1       5.091  -3.917  -4.559  0.00  0.00    -0.054 Cl
ENDBRANCH  14  17
ENDBRANCH  12  14
TORSDOF 2
