REMARK  Name = ZINC45886403
REMARK  5 active torsions:
REMARK  status: ('A' for Active; 'I' for Inactive)
REMARK    1  A    between atoms: C_1  and  C_2
REMARK    2  A    between atoms: N_8  and  C_9
REMARK    3  A    between atoms: C_10  and  O_19
REMARK    4  A    between atoms: C_12  and  N_16
REMARK    5  A    between atoms: O_19  and  C_20
REMARK                            x       y       z     vdW  Elec       q    Type
REMARK                         _______ _______ _______ _____ _____    ______ ____
ROOT
ATOM      1  C   UNL     1       1.137   0.395   2.186  0.00  0.00    +0.086 A 
ATOM      2  C   UNL     1       2.394   0.991   2.107  0.00  0.00    +0.144 A 
ATOM      3  C   UNL     1       2.803   1.870   3.096  0.00  0.00    +0.080 A 
ATOM      4  C   UNL     1       1.965   2.154   4.159  0.00  0.00    +0.131 A 
ATOM      5  C   UNL     1       0.718   1.564   4.239  0.00  0.00    +0.050 A 
ATOM      6  C   UNL     1       0.299   0.689   3.252  0.00  0.00    +0.045 A 
ATOM      7 BR   UNL     1      -1.411  -0.110   3.360  0.00  0.00    -0.048 Br
ENDROOT
BRANCH   1  14
ATOM      8  C   UNL     1      -0.019   1.526   0.010  0.00  0.00    +0.028 C 
ATOM      9  C   UNL     1       0.002  -0.004   0.002  0.00  0.00    +0.071 C 
ATOM     10  C   UNL     1       0.725  -0.501  -1.254  0.00  0.00    +0.022 C 
ATOM     11  C   UNL     1       0.865  -2.023  -1.188  0.00  0.00    +0.003 C 
ATOM     12  C   UNL     1       1.701  -2.408   0.034  0.00  0.00    +0.019 C 
ATOM     13  C   UNL     1       0.989  -1.933   1.305  0.00  0.00    +0.105 C 
ATOM     14  N   UNL     1       0.718  -0.493   1.188  0.00  0.00    -0.323 N 
ENDBRANCH   1  14
BRANCH   4  15
ATOM     15  N   UNL     1       2.406   3.094   5.215  0.00  0.00    +0.057 N 
ATOM     16  O   UNL     1       3.496   3.611   5.148  0.00  0.00    -0.126 OA
ATOM     17  O   UNL     1       1.675   3.344   6.145  0.00  0.00    -0.126 OA
ENDBRANCH   4  15
BRANCH   2  18
ATOM     18  O   UNL     1       3.218   0.710   1.062  0.00  0.00    -0.493 OA
ATOM     19  C   UNL     1       4.491   1.358   1.047  0.00  0.00    +0.277 C 
ENDBRANCH   2  18
TORSDOF 3
