REMARK  Name = ZINC39779290
REMARK  6 active torsions:
REMARK  status: ('A' for Active; 'I' for Inactive)
REMARK    1  A    between atoms: C_1  and  C_2
REMARK    2  A    between atoms: N_10  and  C_13
REMARK    3  A    between atoms: C_13  and  C_14
REMARK    4  A    between atoms: C_14  and  C_15
REMARK    5  A    between atoms: C_15  and  C_16
REMARK    6  A    between atoms: C_21  and  C_24
REMARK                            x       y       z     vdW  Elec       q    Type
REMARK                         _______ _______ _______ _____ _____    ______ ____
ROOT
ATOM      1  C   UNL     1      -2.947  -7.832   3.628  0.00  0.00    +0.216 C 
ATOM      2  O   UNL     1      -3.955  -7.184   3.443  0.00  0.00    -0.276 OA
ATOM      3  N   UNL     1      -3.012  -9.008   4.283  0.00  0.00    -0.297 N 
ATOM      4  C   UNL     1      -4.293  -9.537   4.781  0.00  0.00    +0.113 C 
ATOM      5  C   UNL     1      -4.574 -10.857   4.059  0.00  0.00    +0.054 C 
ATOM      6  C   UNL     1      -3.344 -11.715   4.042  0.00  0.00    -0.043 C 
ATOM      7  C   UNL     1      -2.113 -11.258   4.241  0.00  0.00    -0.004 C 
ATOM      8  C   UNL     1      -1.808  -9.817   4.523  0.00  0.00    +0.135 C 
ENDROOT
BRANCH   6   9
ATOM      9  C   UNL     1      -3.504 -13.094   3.798  0.00  0.00    -0.016 C 
ATOM     10  C   UNL     1      -4.676 -13.755   3.452  0.00  0.00    +0.003 A 
ATOM     11  C   UNL     1      -6.001 -13.305   3.244  0.00  0.00    +0.010 A 
ATOM     12  C   UNL     1      -6.968 -14.194   2.907  0.00  0.00    +0.001 A 
ATOM     13  C   UNL     1      -6.691 -15.557   2.757  0.00  0.00    +0.002 A 
ATOM     14  C   UNL     1      -5.447 -16.059   2.941  0.00  0.00    +0.026 A 
ATOM     15  C   UNL     1      -4.380 -15.190   3.296  0.00  0.00    +0.043 A 
ATOM     16  N   UNL     1      -3.106 -15.425   3.526  0.00  0.00    -0.380 N 
ATOM     17  C   UNL     1      -2.435 -14.163   3.852  0.00  0.00    +0.149 C 
ATOM     18  H   UNL     1      -2.678 -16.294   3.483  0.00  0.00    +0.160 HD
ENDBRANCH   6   9
BRANCH   1  19
ATOM     19  C   UNL     1      -1.621  -7.322   3.126  0.00  0.00    +0.097 C 
BRANCH  19  20
ATOM     20  C   UNL     1      -1.824  -5.978   2.424  0.00  0.00    +0.029 C 
BRANCH  20  21
ATOM     21  C   UNL     1      -0.478  -5.460   1.914  0.00  0.00    +0.117 C 
BRANCH  21  31
ATOM     22  C   UNL     1      -1.245   1.684  -0.209  0.00  0.00    +0.044 C 
ATOM     23  C   UNL     1      -1.179   0.179  -0.259  0.00  0.00    -0.050 A 
ATOM     24  C   UNL     1      -1.381  -0.477  -1.458  0.00  0.00    +0.004 A 
ATOM     25  C   UNL     1      -1.324  -1.861  -1.520  0.00  0.00    +0.014 A 
ATOM     26  C   UNL     1      -1.064  -2.590  -0.371  0.00  0.00    +0.049 A 
ATOM     27  C   UNL     1      -0.858  -1.920   0.852  0.00  0.00    +0.050 A 
ATOM     28  C   UNL     1      -0.912  -0.536   0.898  0.00  0.00    +0.017 A 
ATOM     29  C   UNL     1      -0.611  -2.977   1.855  0.00  0.00    +0.254 C 
ATOM     30  O   UNL     1      -0.391  -2.796   3.036  0.00  0.00    -0.270 OA
ATOM     31  N   UNL     1      -0.672  -4.173   1.242  0.00  0.00    -0.234 N 
ATOM     32  C   UNL     1      -0.935  -4.031  -0.070  0.00  0.00    +0.254 C 
ATOM     33  O   UNL     1      -1.047  -4.936  -0.872  0.00  0.00    -0.270 OA
ENDBRANCH  21  31
ENDBRANCH  20  21
ENDBRANCH  19  20
ENDBRANCH   1  19
TORSDOF 5
