REMARK  Name = ZINC00375053
REMARK  7 active torsions:
REMARK  status: ('A' for Active; 'I' for Inactive)
REMARK    1  A    between atoms: C_1  and  C_2
REMARK    2  A    between atoms: C_2  and  C_3
REMARK    3  A    between atoms: C_2  and  C_4
REMARK    4  A    between atoms: C_2  and  C_5
REMARK    5  A    between atoms: C_10  and  C_15
REMARK    6  A    between atoms: N_17  and  N_18
REMARK    7  A    between atoms: C_19  and  C_20
REMARK                            x       y       z     vdW  Elec       q    Type
REMARK                         _______ _______ _______ _____ _____    ______ ____
ROOT
ATOM      1  C   UNL     1      -0.013   1.086   0.008  0.00  0.00    -0.000 C 
ATOM      2  C   UNL     1      -0.759   1.596  -1.228  0.00  0.00    +0.009 C 
ATOM      3  C   UNL     1      -2.105   0.875  -1.356  0.00  0.00    +0.037 C 
ATOM      4  C   UNL     1      -2.852   0.990  -0.033  0.00  0.00    -0.025 A 
ATOM      5  C   UNL     1      -4.279   0.776   0.112  0.00  0.00    +0.049 A 
ATOM      6  C   UNL     1      -4.826   0.915   1.369  0.00  0.00    +0.058 A 
ATOM      7  S   UNL     1      -3.460   1.325   2.353  0.00  0.00    -0.101 S 
ATOM      8  C   UNL     1      -2.200   1.309   1.109  0.00  0.00    -0.006 A 
ATOM      9  C   UNL     1      -0.737   1.584   1.267  0.00  0.00    +0.046 C 
ENDROOT
BRANCH   1  11
ATOM     10  C   UNL     1       2.163   1.113   1.237  0.00  0.00    +0.011 C 
ATOM     11  C   UNL     1       1.422   1.618  -0.003  0.00  0.00    -0.035 C 
ATOM     12  C   UNL     1       2.139   1.126  -1.262  0.00  0.00    +0.011 C 
ATOM     13  C   UNL     1       1.398   3.148   0.006  0.00  0.00    +0.011 C 
ENDBRANCH   1  11
BRANCH   5  14
ATOM     14  C   UNL     1      -5.116   0.423  -1.046  0.00  0.00    +0.264 C 
ATOM     15  O   UNL     1      -4.613   0.306  -2.147  0.00  0.00    -0.268 OA
ATOM     16  N   UNL     1      -6.440   0.229  -0.886  0.00  0.00    -0.203 N 
ATOM     17  H   UNL     1      -6.841   0.322  -0.008  0.00  0.00    +0.178 HD
BRANCH  16  18
ATOM     18  N   UNL     1      -7.237  -0.108  -1.988  0.00  0.00    -0.184 NA
ATOM     19  C   UNL     1      -8.515  -0.295  -1.834  0.00  0.00    +0.176 C 
BRANCH  19  20
ATOM     20  C   UNL     1      -9.349  -0.647  -2.987  0.00  0.00    +0.147 A 
ATOM     21  C   UNL     1     -10.695  -0.870  -2.965  0.00  0.00    +0.051 A 
ATOM     22  C   UNL     1     -11.076  -1.175  -4.285  0.00  0.00    +0.042 A 
ATOM     23  C   UNL     1      -9.961  -1.125  -5.042  0.00  0.00    +0.196 A 
ATOM     24  O   UNL     1      -8.921  -0.801  -4.256  0.00  0.00    -0.462 OA
ENDBRANCH  19  20
ENDBRANCH  16  18
ENDBRANCH   5  14
TORSDOF 4
