REMARK  Name = ZINC06615056
REMARK  5 active torsions:
REMARK  status: ('A' for Active; 'I' for Inactive)
REMARK    1  A    between atoms: C_3  and  N_24
REMARK    2  A    between atoms: C_4  and  N_21
REMARK    3  A    between atoms: C_6  and  C_7
REMARK    4  A    between atoms: N_9  and  C_10
REMARK    5  A    between atoms: C_15  and  C_16
REMARK                            x       y       z     vdW  Elec       q    Type
REMARK                         _______ _______ _______ _____ _____    ______ ____
ROOT
ATOM      1  C   UNL     1      -1.264  -0.761   0.015  0.00  0.00    +0.248 C 
ATOM      2  O   UNL     1      -1.247  -1.977   0.005  0.00  0.00    -0.270 OA
ATOM      3  N   UNL     1      -2.441  -0.104   0.025  0.00  0.00    -0.281 N 
ATOM      4  H   UNL     1      -2.456   0.863   0.100  0.00  0.00    +0.155 HD
ENDROOT
BRANCH   3   5
ATOM      5  C   UNL     1      -3.641  -0.817  -0.073  0.00  0.00    +0.045 A 
ATOM      6  C   UNL     1      -3.755  -2.071   0.513  0.00  0.00    +0.025 A 
ATOM      7  C   UNL     1      -4.940  -2.772   0.415  0.00  0.00    +0.022 A 
ATOM      8  C   UNL     1      -6.014  -2.226  -0.267  0.00  0.00    +0.042 A 
ATOM      9  C   UNL     1      -5.904  -0.977  -0.851  0.00  0.00    +0.034 A 
ATOM     10  C   UNL     1      -4.722  -0.269  -0.751  0.00  0.00    +0.077 A 
ATOM     11 CL   UNL     1      -7.503  -3.111  -0.389  0.00  0.00    -0.084 Cl
BRANCH  10  12
ATOM     12  C   UNL     1      -4.604   1.094  -1.383  0.00  0.00    +0.419 C 
ATOM     13  F   UNL     1      -5.813   1.427  -2.003  0.00  0.00    -0.166 F 
ATOM     14  F   UNL     1      -4.309   2.041  -0.396  0.00  0.00    -0.166 F 
ATOM     15  F   UNL     1      -3.580   1.079  -2.336  0.00  0.00    -0.166 F 
ENDBRANCH  10  12
ENDBRANCH   3   5
BRANCH   1  21
ATOM     16  C   UNL     1      -0.016   1.393   0.030  0.00  0.00    +0.015 A 
ATOM     17  C   UNL     1       1.167   2.095   0.032  0.00  0.00    +0.026 A 
ATOM     18  C   UNL     1       2.382   1.415   0.022  0.00  0.00    +0.060 A 
ATOM     19  C   UNL     1       2.404   0.023   0.010  0.00  0.00    +0.148 A 
ATOM     20  C   UNL     1       1.224  -0.685   0.008  0.00  0.00    +0.047 A 
ATOM     21  C   UNL     1       0.002  -0.005   0.018  0.00  0.00    +0.039 A 
BRANCH  18  22
ATOM     22  N   UNL     1       3.576   2.128   0.024  0.00  0.00    -0.328 N 
ATOM     23  C   UNL     1       4.304   2.582  -1.170  0.00  0.00    +0.105 C 
ATOM     24  C   UNL     1       5.578   3.304  -0.683  0.00  0.00    +0.020 C 
ATOM     25  C   UNL     1       5.784   2.722   0.741  0.00  0.00    +0.020 C 
ATOM     26  C   UNL     1       4.318   2.558   1.222  0.00  0.00    +0.105 C 
ENDBRANCH  18  22
BRANCH  19  27
ATOM     27  N   UNL     1       3.697  -0.696  -0.001  0.00  0.00    +0.058 N 
ATOM     28  O   UNL     1       3.717  -1.905  -0.012  0.00  0.00    -0.126 OA
ATOM     29  O   UNL     1       4.734  -0.075  -0.000  0.00  0.00    -0.126 OA
ENDBRANCH  19  27
ENDBRANCH   1  21
TORSDOF 5
