REMARK  Name = ZINC01763404
REMARK  4 active torsions:
REMARK  status: ('A' for Active; 'I' for Inactive)
REMARK    1  A    between atoms: C_1  and  C_2
REMARK    2  A    between atoms: C_10  and  S_11
REMARK    3  A    between atoms: S_11  and  C_12
REMARK    4  A    between atoms: C_17  and  N_18
REMARK                            x       y       z     vdW  Elec       q    Type
REMARK                         _______ _______ _______ _____ _____    ______ ____
ROOT
ATOM      1  C   UNL     1      -5.769   3.483  -1.521  0.00  0.00    +0.035 C 
ATOM      2  C   UNL     1      -5.393   2.735  -0.240  0.00  0.00    +0.098 C 
ATOM      3  C   UNL     1      -5.819   1.288  -0.325  0.00  0.00    +0.001 A 
ATOM      4  C   UNL     1      -7.034   0.663  -0.463  0.00  0.00    +0.007 A 
ATOM      5  C   UNL     1      -7.098  -0.721  -0.504  0.00  0.00    +0.000 A 
ATOM      6  C   UNL     1      -5.938  -1.469  -0.406  0.00  0.00    +0.002 A 
ATOM      7  C   UNL     1      -4.715  -0.850  -0.268  0.00  0.00    +0.028 A 
ATOM      8  C   UNL     1      -4.638   0.548  -0.225  0.00  0.00    +0.070 A 
ATOM      9  N   UNL     1      -3.569   1.387  -0.097  0.00  0.00    -0.243 NA
ATOM     10  C   UNL     1      -3.887   2.645  -0.097  0.00  0.00    +0.100 C 
ATOM     11 BR   UNL     1      -6.189   3.605   1.333  0.00  0.00    -0.072 Br
ENDROOT
BRANCH  10  12
ATOM     12  S   UNL     1      -2.772   4.002   0.051  0.00  0.00    -0.070 S 
BRANCH  12  13
ATOM     13  C   UNL     1      -1.236   3.139   0.031  0.00  0.00    +0.044 A 
ATOM     14  C   UNL     1      -0.460   3.123  -1.122  0.00  0.00    +0.017 A 
ATOM     15  C   UNL     1       0.740   2.441  -1.136  0.00  0.00    +0.001 A 
ATOM     16  C   UNL     1       1.177   1.783  -0.000  0.00  0.00    +0.002 A 
ATOM     17  C   UNL     1       0.410   1.802   1.151  0.00  0.00    +0.034 A 
ATOM     18  C   UNL     1      -0.794   2.477   1.170  0.00  0.00    +0.140 A 
BRANCH  18  19
ATOM     19  N   UNL     1      -1.614   2.495   2.402  0.00  0.00    +0.058 N 
ATOM     20  O   UNL     1      -1.226   1.915   3.400  0.00  0.00    -0.126 OA
ATOM     21  O   UNL     1      -2.676   3.091   2.418  0.00  0.00    -0.126 OA
ENDBRANCH  18  19
ENDBRANCH  12  13
ENDBRANCH  10  12
TORSDOF 3
