REMARK  Name = ZINC46777944
REMARK  7 active torsions:
REMARK  status: ('A' for Active; 'I' for Inactive)
REMARK    1  A    between atoms: C_1  and  C_2
REMARK    2  A    between atoms: C_4  and  C_26
REMARK    3  A    between atoms: C_7  and  N_8
REMARK    4  A    between atoms: C_9  and  C_11
REMARK    5  A    between atoms: N_16  and  S_18
REMARK    6  A    between atoms: S_18  and  C_21
REMARK    7  A    between atoms: N_28  and  C_29
REMARK                            x       y       z     vdW  Elec       q    Type
REMARK                         _______ _______ _______ _____ _____    ______ ____
ROOT
ATOM      1  N   UNL     1       0.025  -0.012   2.413  0.00  0.00    -0.285 N 
ATOM      2  C   UNL     1      -0.057  -0.688   3.577  0.00  0.00    +0.222 C 
ATOM      3  O   UNL     1      -0.040  -1.900   3.576  0.00  0.00    -0.275 OA
ATOM      4  H   UNL     1       0.079   0.956   2.417  0.00  0.00    +0.155 HD
ENDROOT
BRANCH   1  11
ATOM      5  C   UNL     1      -1.270   1.182   0.184  0.00  0.00    +0.045 C 
ATOM      6  C   UNL     1      -0.589  -0.159   0.086  0.00  0.00    -0.029 A 
ATOM      7  C   UNL     1      -0.579  -0.838  -1.111  0.00  0.00    +0.018 A 
ATOM      8  C   UNL     1       0.052  -2.082  -1.202  0.00  0.00    +0.037 A 
ATOM      9  C   UNL     1       0.671  -2.631  -0.075  0.00  0.00    +0.015 A 
ATOM     10  C   UNL     1       0.657  -1.946   1.119  0.00  0.00    +0.024 A 
ATOM     11  C   UNL     1       0.033  -0.706   1.204  0.00  0.00    +0.036 A 
BRANCH   8  12
ATOM     12  C   UNL     1       0.065  -2.813  -2.484  0.00  0.00    +0.244 C 
ATOM     13  O   UNL     1      -0.474  -2.334  -3.462  0.00  0.00    -0.270 OA
ATOM     14  N   UNL     1       0.674  -4.012  -2.569  0.00  0.00    -0.314 N 
ATOM     15  C   UNL     1       0.687  -4.738  -3.841  0.00  0.00    +0.128 C 
ATOM     16  H   UNL     1       1.105  -4.394  -1.788  0.00  0.00    +0.149 HD
ENDBRANCH   8  12
ENDBRANCH   1  11
BRANCH   2  17
ATOM     17  C   UNL     1      -0.168   0.064   4.878  0.00  0.00    +0.091 C 
ATOM     18  C   UNL     1      -1.433   0.926   4.864  0.00  0.00    +0.015 C 
ATOM     19  C   UNL     1      -1.529   1.715   6.171  0.00  0.00    +0.018 C 
ATOM     20  C   UNL     1      -1.624   0.737   7.347  0.00  0.00    +0.109 C 
ATOM     21  N   UNL     1      -0.486  -0.190   7.284  0.00  0.00    -0.175 NA
ATOM     22  C   UNL     1      -0.247  -0.932   6.039  0.00  0.00    +0.122 C 
BRANCH  21  23
ATOM     23  S   UNL     1       0.509  -0.394   8.592  0.00  0.00    +0.067 S 
ATOM     24  O   UNL     1       1.754  -0.858   8.087  0.00  0.00    -0.152 OA
ATOM     25  O   UNL     1       0.398   0.787   9.375  0.00  0.00    -0.152 OA
BRANCH  23  26
ATOM     26  C   UNL     1      -0.163  -1.705   9.559  0.00  0.00    +0.143 A 
ATOM     27  C   UNL     1       0.090  -3.034   9.486  0.00  0.00    +0.036 A 
ATOM     28  C   UNL     1      -0.561  -3.889  10.357  0.00  0.00    +0.010 A 
ATOM     29  C   UNL     1      -1.431  -3.371  11.258  0.00  0.00    +0.047 A 
ATOM     30  S   UNL     1      -1.346  -1.626  10.893  0.00  0.00    -0.077 S 
ENDBRANCH  23  26
ENDBRANCH  21  23
ENDBRANCH   2  17
TORSDOF 5
