REMARK  Name = ZINC44019780
REMARK  3 active torsions:
REMARK  status: ('A' for Active; 'I' for Inactive)
REMARK    1  A    between atoms: C_1  and  C_2
REMARK    2  A    between atoms: C_6  and  N_8
REMARK    3  A    between atoms: C_12  and  N_17
REMARK                            x       y       z     vdW  Elec       q    Type
REMARK                         _______ _______ _______ _____ _____    ______ ____
ROOT
ATOM      1  N   UNL     1       0.052  -2.798   2.394  0.00  0.00    -0.229 N 
ATOM      2  C   UNL     1       0.084  -2.127   3.562  0.00  0.00    +0.263 A 
ATOM      3  O   UNL     1       0.100  -0.908   3.569  0.00  0.00    -0.267 OA
ATOM      4  C   UNL     1       0.096  -2.840   4.772  0.00  0.00    +0.112 A 
ATOM      5  C   UNL     1       0.076  -4.206   4.737  0.00  0.00    +0.112 A 
ATOM      6  N   UNL     1       0.045  -4.850   3.523  0.00  0.00    -0.295 N 
ATOM      7  H   UNL     1       0.030  -5.819   3.492  0.00  0.00    +0.172 HD
ATOM      8  C   UNL     1       0.028  -4.143   2.378  0.00  0.00    +0.335 A 
ATOM      9  O   UNL     1      -0.005  -4.729   1.314  0.00  0.00    -0.246 OA
ENDROOT
BRANCH   5  10
ATOM     10  N   UNL     1       0.088  -4.929   5.904  0.00  0.00    -0.286 N 
ATOM     11  C   UNL     1      -1.170  -5.347   6.537  0.00  0.00    +0.113 C 
ATOM     12  C   UNL     1      -1.053  -5.068   8.041  0.00  0.00    +0.024 C 
ATOM     13  C   UNL     1       0.070  -5.930   8.617  0.00  0.00    +0.038 C 
ATOM     14  C   UNL     1       1.331  -5.761   7.812  0.00  0.00    -0.026 A 
ATOM     15  C   UNL     1       1.301  -5.285   6.509  0.00  0.00    +0.038 A 
ATOM     16  C   UNL     1       2.482  -5.149   5.788  0.00  0.00    +0.024 A 
ATOM     17  C   UNL     1       3.688  -5.492   6.367  0.00  0.00    +0.002 A 
ATOM     18  C   UNL     1       3.719  -5.969   7.665  0.00  0.00    +0.000 A 
ATOM     19  C   UNL     1       2.544  -6.095   8.389  0.00  0.00    +0.005 A 
ENDBRANCH   5  10
BRANCH   1  25
ATOM     20  C   UNL     1       2.514  -0.690  -1.304  0.00  0.00    +0.044 C 
ATOM     21  C   UNL     1       1.218  -1.054  -0.628  0.00  0.00    -0.048 A 
ATOM     22  C   UNL     1       0.013  -0.688  -1.200  0.00  0.00    +0.003 A 
ATOM     23  C   UNL     1      -1.178  -1.020  -0.582  0.00  0.00    +0.002 A 
ATOM     24  C   UNL     1      -1.169  -1.719   0.610  0.00  0.00    +0.026 A 
ATOM     25  C   UNL     1       0.039  -2.089   1.186  0.00  0.00    +0.055 A 
ATOM     26  C   UNL     1       1.234  -1.759   0.560  0.00  0.00    +0.029 A 
ENDBRANCH   1  25
TORSDOF 2
