REMARK  Name = ZINC06060083
REMARK  8 active torsions:
REMARK  status: ('A' for Active; 'I' for Inactive)
REMARK    1  A    between atoms: C_1  and  C_2
REMARK    2  A    between atoms: C_2  and  C_4
REMARK    3  A    between atoms: C_2  and  O_15
REMARK    4  A    between atoms: N_6  and  C_7
REMARK    5  A    between atoms: C_7  and  C_13
REMARK    6  A    between atoms: O_15  and  C_16
REMARK    7  A    between atoms: C_16  and  C_18
REMARK    8  A    between atoms: C_23  and  N_24
REMARK                            x       y       z     vdW  Elec       q    Type
REMARK                         _______ _______ _______ _____ _____    ______ ____
ROOT
ATOM      1  C   UNL     1       0.011   1.469  -0.023  0.00  0.00    +0.062 C 
ATOM      2  C   UNL     1       0.022  -0.061  -0.002  0.00  0.00    +0.259 C 
ENDROOT
BRANCH   2   3
ATOM      3  C   UNL     1       0.732  -0.575  -1.227  0.00  0.00    +0.255 C 
ATOM      4  O   UNL     1       0.121  -1.212  -2.059  0.00  0.00    -0.272 OA
ATOM      5  N   UNL     1       2.045  -0.328  -1.399  0.00  0.00    -0.294 N 
ATOM      6  H   UNL     1       2.534   0.182  -0.733  0.00  0.00    +0.150 HD
BRANCH   5   7
ATOM      7  C   UNL     1       2.735  -0.828  -2.590  0.00  0.00    +0.121 C 
ATOM      8  C   UNL     1       2.638  -2.354  -2.633  0.00  0.00    +0.041 C 
ATOM      9  C   UNL     1       3.359  -2.876  -3.877  0.00  0.00    +0.003 C 
ATOM     10  C   UNL     1       4.830  -2.460  -3.827  0.00  0.00    +0.000 C 
ATOM     11  C   UNL     1       4.928  -0.934  -3.784  0.00  0.00    +0.003 C 
ATOM     12  C   UNL     1       4.207  -0.412  -2.540  0.00  0.00    +0.041 C 
BRANCH   7  13
ATOM     13  C   UNL     1       2.107  -0.262  -3.795  0.00  0.00    +0.088 C 
ATOM     14  N   UNL     1       1.622   0.174  -4.725  0.00  0.00    -0.194 NA
ENDBRANCH   7  13
ENDBRANCH   5   7
ENDBRANCH   2   3
BRANCH   2  15
ATOM     15  O   UNL     1      -1.344  -0.554   0.010  0.00  0.00    -0.449 OA
BRANCH  15  16
ATOM     16  C   UNL     1      -1.915  -0.745   1.215  0.00  0.00    +0.342 C 
ATOM     17  O   UNL     1      -1.290  -0.506   2.229  0.00  0.00    -0.245 OA
BRANCH  16  18
ATOM     18  C   UNL     1      -3.298  -1.244   1.304  0.00  0.00    +0.080 A 
ATOM     19  C   UNL     1      -4.064  -1.404   0.145  0.00  0.00    +0.018 A 
ATOM     20  C   UNL     1      -5.356  -1.871   0.234  0.00  0.00    +0.021 A 
ATOM     21  C   UNL     1      -5.904  -2.185   1.470  0.00  0.00    +0.043 A 
ATOM     22  C   UNL     1      -5.160  -2.032   2.623  0.00  0.00    +0.043 A 
ATOM     23  C   UNL     1      -3.853  -1.568   2.553  0.00  0.00    +0.040 A 
ATOM     24 CL   UNL     1      -7.535  -2.772   1.565  0.00  0.00    -0.083 Cl
BRANCH  23  25
ATOM     25  N   UNL     1      -3.102  -1.419   3.710  0.00  0.00    -0.357 N 
ATOM     26  H   UNL     1      -2.220  -1.017   3.668  0.00  0.00    +0.142 HD
ATOM     27  H   UNL     1      -3.458  -1.718   4.562  0.00  0.00    +0.142 HD
ENDBRANCH  23  25
ENDBRANCH  16  18
ENDBRANCH  15  16
ENDBRANCH   2  15
TORSDOF 7
