REMARK  Name = ZINC63608211
REMARK  9 active torsions:
REMARK  status: ('A' for Active; 'I' for Inactive)
REMARK    1  A    between atoms: C_1  and  C_2
REMARK    2  A    between atoms: C_2  and  C_3
REMARK    3  A    between atoms: C_2  and  C_4
REMARK    4  A    between atoms: C_4  and  N_5
REMARK    5  A    between atoms: N_5  and  C_6
REMARK    6  A    between atoms: N_5  and  C_22
REMARK    7  A    between atoms: C_6  and  C_7
REMARK    8  A    between atoms: C_16  and  S_18
REMARK    9  A    between atoms: S_18  and  N_21
REMARK                            x       y       z     vdW  Elec       q    Type
REMARK                         _______ _______ _______ _____ _____    ______ ____
ROOT
ATOM      1  C   UNL     1      -0.277  -0.639  -2.566  0.00  0.00    +0.203 C 
ATOM      2  O   UNL     1       0.267   0.242  -1.934  0.00  0.00    -0.277 OA
ATOM      3  N   UNL     1       0.355  -1.205  -3.613  0.00  0.00    -0.272 N 
ATOM      4  C   UNL     1      -0.200  -2.269  -4.454  0.00  0.00    +0.118 C 
ATOM      5  C   UNL     1       0.889  -2.569  -5.496  0.00  0.00    +0.056 C 
ATOM      6  C   UNL     1       2.015  -1.620  -5.154  0.00  0.00    -0.023 A 
ATOM      7  C   UNL     1       1.634  -0.859  -4.060  0.00  0.00    +0.040 A 
ATOM      8  C   UNL     1       2.517   0.100  -3.561  0.00  0.00    +0.026 A 
ATOM      9  C   UNL     1       3.748   0.287  -4.153  0.00  0.00    +0.030 A 
ATOM     10  C   UNL     1       4.117  -0.474  -5.246  0.00  0.00    +0.105 A 
ATOM     11  C   UNL     1       3.251  -1.432  -5.742  0.00  0.00    +0.034 A 
ENDROOT
BRANCH  10  12
ATOM     12  S   UNL     1       5.691  -0.230  -6.001  0.00  0.00    +0.056 S 
ATOM     13  O   UNL     1       5.574  -0.689  -7.341  0.00  0.00    -0.153 OA
ATOM     14  O   UNL     1       6.094   1.094  -5.681  0.00  0.00    -0.153 OA
BRANCH  12  15
ATOM     15  N   UNL     1       6.758  -1.245  -5.244  0.00  0.00    -0.204 NA
ATOM     16  H   UNL     1       6.453  -1.823  -4.528  0.00  0.00    +0.144 HD
ATOM     17  H   UNL     1       7.689  -1.262  -5.518  0.00  0.00    +0.144 HD
ENDBRANCH  12  15
ENDBRANCH  10  12
BRANCH   1  18
ATOM     18  C   UNL     1      -1.659  -1.100  -2.181  0.00  0.00    +0.019 C 
BRANCH  18  19
ATOM     19  N   UNL     1      -2.043  -0.484  -0.903  0.00  0.00    +0.387 N 
ATOM     20  H   UNL     1      -1.723   0.472  -0.882  0.00  0.00    -0.081 HD
BRANCH  19  21
ATOM     21  C   UNL     1      -3.505  -0.516  -0.764  0.00  0.00    -0.068 C 
ATOM     22  C   UNL     1      -3.904   0.125   0.567  0.00  0.00    -0.015 C 
ATOM     23  C   UNL     1      -5.426   0.092   0.712  0.00  0.00    -0.002 C 
ATOM     24  C   UNL     1      -6.066   0.869  -0.441  0.00  0.00    -0.000 C 
ATOM     25  C   UNL     1      -5.667   0.227  -1.771  0.00  0.00    -0.002 C 
ATOM     26  C   UNL     1      -4.144   0.261  -1.917  0.00  0.00    -0.015 C 
ENDBRANCH  19  21
BRANCH  19  27
ATOM     27  C   UNL     1      -1.429  -1.230   0.203  0.00  0.00    -0.075 C 
BRANCH  27  29
ATOM     28  C   UNL     1       0.331   0.503   0.580  0.00  0.00    +0.005 C 
ATOM     29  C   UNL     1       0.078  -0.963   0.224  0.00  0.00    -0.034 C 
ATOM     30  C   UNL     1       0.741  -1.863   1.270  0.00  0.00    +0.005 C 
ENDBRANCH  27  29
ENDBRANCH  19  27
ENDBRANCH  18  19
ENDBRANCH   1  18
TORSDOF 7
