REMARK  Name = ZINC43746331
REMARK  5 active torsions:
REMARK  status: ('A' for Active; 'I' for Inactive)
REMARK    1  A    between atoms: C_1  and  C_2
REMARK    2  A    between atoms: C_19  and  C_21
REMARK    3  A    between atoms: C_21  and  N_22
REMARK    4  A    between atoms: N_25  and  C_28
REMARK    5  A    between atoms: C_28  and  C_29
REMARK                            x       y       z     vdW  Elec       q    Type
REMARK                         _______ _______ _______ _____ _____    ______ ____
ROOT
ATOM      1  C   UNL     1      -1.810  -2.068   4.257  0.00  0.00    -0.064 C 
ENDROOT
BRANCH   1  17
ATOM      2  C   UNL     1      -0.019   1.526   0.010  0.00  0.00    +0.012 C 
ATOM      3  C   UNL     1       0.002  -0.004   0.002  0.00  0.00    -0.022 C 
ATOM      4  C   UNL     1       0.719  -0.500  -1.252  0.00  0.00    +0.007 C 
ATOM      5  C   UNL     1       2.124   0.103  -1.315  0.00  0.00    +0.005 C 
ATOM      6  C   UNL     1       2.947  -0.385  -0.119  0.00  0.00    +0.030 C 
ATOM      7  C   UNL     1       2.187  -0.074   1.153  0.00  0.00    -0.073 C 
ATOM      8  C   UNL     1       2.762   0.560   2.144  0.00  0.00    +0.008 C 
ATOM      9  C   UNL     1       0.744  -0.516   1.245  0.00  0.00    +0.021 C 
ATOM     10  C   UNL     1       0.093   0.123   2.471  0.00  0.00    +0.016 C 
ATOM     11  C   UNL     1      -1.368  -0.240   2.570  0.00  0.00    +0.042 C 
ATOM     12  C   UNL     1      -2.163   0.002   1.272  0.00  0.00    +0.181 C 
ATOM     13  C   UNL     1      -1.427  -0.535   0.053  0.00  0.00    +0.052 C 
ATOM     14  O   UNL     1      -3.312  -0.866   1.477  0.00  0.00    -0.461 OA
ATOM     15  C   UNL     1      -2.858  -2.029   1.992  0.00  0.00    +0.309 C 
ATOM     16  O   UNL     1      -3.372  -3.112   1.845  0.00  0.00    -0.251 OA
ATOM     17  C   UNL     1      -1.595  -1.750   2.775  0.00  0.00    +0.088 C 
ENDBRANCH   1  17
BRANCH   1  18
ATOM     18  N   UNL     1      -1.903  -3.523   4.437  0.00  0.00    +0.382 N 
ATOM     19  C   UNL     1      -0.618  -4.143   4.087  0.00  0.00    -0.063 C 
ATOM     20  C   UNL     1      -0.721  -5.660   4.257  0.00  0.00    +0.066 C 
ATOM     21  N   UNL     1      -1.072  -5.972   5.650  0.00  0.00    -0.302 NA
ATOM     22  C   UNL     1      -2.344  -5.337   6.022  0.00  0.00    +0.066 C 
ATOM     23  C   UNL     1      -2.228  -3.822   5.838  0.00  0.00    -0.063 C 
ATOM     24  H   UNL     1      -2.627  -3.890   3.838  0.00  0.00    -0.082 HD
BRANCH  21  25
ATOM     25  C   UNL     1      -1.125  -7.423   5.867  0.00  0.00    +0.119 C 
BRANCH  25  26
ATOM     26  C   UNL     1      -1.242  -7.707   7.342  0.00  0.00    -0.030 A 
ATOM     27  C   UNL     1      -0.102  -7.861   8.108  0.00  0.00    +0.009 A 
ATOM     28  C   UNL     1      -0.205  -8.120   9.462  0.00  0.00    +0.050 A 
ATOM     29  C   UNL     1      -1.452  -8.227  10.055  0.00  0.00    +0.166 A 
ATOM     30  C   UNL     1      -2.601  -8.072   9.283  0.00  0.00    +0.167 A 
ATOM     31  C   UNL     1      -2.491  -7.806   7.928  0.00  0.00    +0.054 A 
ATOM     32  O   UNL     1      -3.692  -8.221  10.090  0.00  0.00    -0.453 OA
ATOM     33  C   UNL     1      -3.205  -8.872  11.279  0.00  0.00    +0.466 C 
ATOM     34  O   UNL     1      -1.823  -8.473  11.345  0.00  0.00    -0.453 OA
ENDBRANCH  25  26
ENDBRANCH  21  25
ENDBRANCH   1  18
TORSDOF 4
