REMARK  Name = ZINC67627621
REMARK  4 active torsions:
REMARK  status: ('A' for Active; 'I' for Inactive)
REMARK    1  A    between atoms: C_1  and  S_2
REMARK    2  A    between atoms: S_2  and  N_5
REMARK    3  A    between atoms: C_9  and  N_12
REMARK    4  A    between atoms: N_15  and  C_16
REMARK                            x       y       z     vdW  Elec       q    Type
REMARK                         _______ _______ _______ _____ _____    ______ ____
ROOT
ATOM      1  N   UNL     1       4.030  -2.108  -2.128  0.00  0.00    -0.295 N 
ATOM      2  C   UNL     1       4.588  -3.335  -2.137  0.00  0.00    +0.300 C 
ATOM      3  O   UNL     1       3.887  -4.323  -2.032  0.00  0.00    -0.253 OA
ATOM      4  N   UNL     1       5.924  -3.467  -2.261  0.00  0.00    -0.292 N 
ATOM      5  H   UNL     1       4.590  -1.320  -2.211  0.00  0.00    +0.151 HD
ATOM      6  H   UNL     1       6.483  -2.679  -2.344  0.00  0.00    +0.151 HD
ENDROOT
BRANCH   4   7
ATOM      7  C   UNL     1       6.530  -4.801  -2.271  0.00  0.00    +0.108 C 
ATOM      8  C   UNL     1       7.992  -4.707  -1.814  0.00  0.00    +0.027 C 
ATOM      9  C   UNL     1       8.694  -6.042  -2.078  0.00  0.00    +0.010 C 
ATOM     10  C   UNL     1       8.868  -6.239  -3.588  0.00  0.00    +0.075 C 
ATOM     11  C   UNL     1       7.538  -5.997  -4.258  0.00  0.00    +0.110 A 
ATOM     12  C   UNL     1       6.504  -5.360  -3.669  0.00  0.00    +0.014 A 
ATOM     13  C   UNL     1       5.448  -5.333  -4.599  0.00  0.00    +0.047 A 
ATOM     14  C   UNL     1       5.895  -5.955  -5.708  0.00  0.00    +0.195 A 
ATOM     15  O   UNL     1       7.164  -6.352  -5.493  0.00  0.00    -0.467 OA
ENDBRANCH   4   7
BRANCH   1  20
ATOM     16  N   UNL     1       0.795  -0.411  -1.394  0.00  0.00    -0.180 NA
ATOM     17  C   UNL     1       0.053  -0.601  -2.648  0.00  0.00    +0.109 C 
ATOM     18  C   UNL     1       0.403  -1.976  -3.225  0.00  0.00    +0.019 C 
ATOM     19  C   UNL     1       1.922  -2.092  -3.369  0.00  0.00    +0.025 C 
ATOM     20  C   UNL     1       2.579  -1.965  -1.993  0.00  0.00    +0.090 C 
ATOM     21  C   UNL     1       2.254  -0.584  -1.403  0.00  0.00    +0.131 C 
BRANCH  16  23
ATOM     22  C   UNL     1      -0.022   1.810   0.012  0.00  0.00    +0.215 C 
ATOM     23  S   UNL     1       0.002  -0.004   0.002  0.00  0.00    +0.029 S 
ATOM     24  O   UNL     1       0.835  -0.488   1.046  0.00  0.00    -0.158 OA
ATOM     25  O   UNL     1      -1.315  -0.510  -0.168  0.00  0.00    -0.158 OA
ENDBRANCH  16  23
ENDBRANCH   1  20
TORSDOF 3
