REMARK  Name = ZINC07673596
REMARK  5 active torsions:
REMARK  status: ('A' for Active; 'I' for Inactive)
REMARK    1  A    between atoms: C_1  and  C_2
REMARK    2  A    between atoms: C_8  and  C_10
REMARK    3  A    between atoms: C_10  and  S_11
REMARK    4  A    between atoms: S_11  and  C_12
REMARK    5  A    between atoms: C_24  and  C_28
REMARK                            x       y       z     vdW  Elec       q    Type
REMARK                         _______ _______ _______ _____ _____    ______ ____
ROOT
ATOM      1  C   UNL     1      -6.320   2.816   0.049  0.00  0.00    +0.170 A 
ATOM      2  N   UNL     1      -7.639   2.467   0.053  0.00  0.00    -0.301 N 
ATOM      3  H   UNL     1      -7.890   1.498   0.049  0.00  0.00    +0.171 HD
ATOM      4  C   UNL     1      -8.609   3.399   0.063  0.00  0.00    +0.261 A 
ATOM      5  O   UNL     1      -9.783   3.070   0.067  0.00  0.00    -0.267 OA
ATOM      6  C   UNL     1      -8.244   4.783   0.068  0.00  0.00    +0.075 A 
ATOM      7  C   UNL     1      -9.123   5.954   0.077  0.00  0.00    -0.023 A 
ATOM      8  C   UNL     1      -8.529   7.165   0.081  0.00  0.00    -0.004 A 
ATOM      9  S   UNL     1      -6.790   6.825   0.072  0.00  0.00    -0.073 S 
ATOM     10  C   UNL     1      -6.865   5.051   0.063  0.00  0.00    +0.117 A 
ATOM     11  N   UNL     1      -5.956   4.083   0.059  0.00  0.00    -0.216 NA
ATOM     12  C   UNL     1      -9.200   8.504   0.089  0.00  0.00    +0.046 C 
ATOM     13  C   UNL     1     -10.677   8.309  -0.282  0.00  0.00    -0.009 C 
ATOM     14  C   UNL     1     -11.245   7.157   0.552  0.00  0.00    +0.008 C 
ATOM     15  C   UNL     1     -10.644   5.831   0.083  0.00  0.00    +0.037 C 
ATOM     16  C   UNL     1     -11.455   9.593   0.013  0.00  0.00    +0.008 C 
ENDROOT
BRANCH   1  17
ATOM     17  S   UNL     1      -5.087   1.558   0.036  0.00  0.00    -0.078 S 
BRANCH  17  18
ATOM     18  C   UNL     1      -3.594   2.581   0.034  0.00  0.00    +0.173 C 
BRANCH  18  26
ATOM     19  C   UNL     1       1.920  -1.694  -0.026  0.00  0.00    +0.089 C 
ATOM     20  C   UNL     1       1.319  -0.312  -0.012  0.00  0.00    +0.136 A 
ATOM     21  C   UNL     1       0.002  -0.004   0.002  0.00  0.00    +0.091 A 
ATOM     22  C   UNL     1      -0.017   1.416   0.010  0.00  0.00    +0.168 A 
ATOM     23  N   UNL     1       1.233   1.798  -0.000  0.00  0.00    -0.063 NA
ATOM     24  O   UNL     1       1.985   0.851  -0.012  0.00  0.00    -0.358 OA
ATOM     25  N   UNL     1      -1.144   2.238   0.020  0.00  0.00    -0.267 N 
ATOM     26  C   UNL     1      -2.376   1.692   0.023  0.00  0.00    +0.229 C 
ATOM     27  O   UNL     1      -2.506   0.487   0.017  0.00  0.00    -0.275 OA
ATOM     28  H   UNL     1      -1.041   3.203   0.025  0.00  0.00    +0.156 HD
ENDBRANCH  18  26
ENDBRANCH  17  18
ENDBRANCH   1  17
TORSDOF 3
