REMARK  Name = ZINC01616705
REMARK  4 active torsions:
REMARK  status: ('A' for Active; 'I' for Inactive)
REMARK    1  A    between atoms: C_4  and  O_20
REMARK    2  A    between atoms: C_5  and  C_7
REMARK    3  A    between atoms: C_7  and  C_8
REMARK    4  A    between atoms: C_8  and  C_9
REMARK                            x       y       z     vdW  Elec       q    Type
REMARK                         _______ _______ _______ _____ _____    ______ ____
ROOT
ATOM      1  C   UNL     1      -3.044   4.013   1.489  0.00  0.00    +0.054 C 
ENDROOT
BRANCH   1   2
ATOM      2  C   UNL     1      -4.377   4.764   1.505  0.00  0.00    +0.208 C 
ATOM      3  C   UNL     1      -4.936   4.796   2.905  0.00  0.00    +0.007 A 
ATOM      4  C   UNL     1      -5.322   3.817   3.791  0.00  0.00    +0.008 A 
ATOM      5  C   UNL     1      -5.810   4.167   5.039  0.00  0.00    +0.000 A 
ATOM      6  C   UNL     1      -5.910   5.499   5.399  0.00  0.00    +0.001 A 
ATOM      7  C   UNL     1      -5.525   6.489   4.519  0.00  0.00    +0.015 A 
ATOM      8  C   UNL     1      -5.033   6.144   3.259  0.00  0.00    +0.066 A 
ATOM      9  C   UNL     1      -4.552   6.950   2.122  0.00  0.00    +0.340 C 
ATOM     10  O   UNL     1      -4.505   8.164   2.101  0.00  0.00    -0.245 OA
ATOM     11  O   UNL     1      -4.175   6.149   1.112  0.00  0.00    -0.453 OA
ENDBRANCH   1   2
BRANCH   1  12
ATOM     12  C   UNL     1      -2.552   3.880   0.046  0.00  0.00    +0.043 C 
BRANCH  12  17
ATOM     13  C   UNL     1       1.156   3.166   0.008  0.00  0.00    +0.000 A 
ATOM     14  C   UNL     1       1.174   1.783   0.000  0.00  0.00    +0.004 A 
ATOM     15  C   UNL     1      -0.013   1.076   0.008  0.00  0.00    +0.045 A 
ATOM     16  C   UNL     1      -1.223   1.754   0.017  0.00  0.00    +0.120 A 
ATOM     17  C   UNL     1      -1.239   3.141   0.030  0.00  0.00    -0.006 A 
ATOM     18  C   UNL     1      -0.049   3.844   0.023  0.00  0.00    +0.007 A 
BRANCH  16  19
ATOM     19  O   UNL     1      -2.392   1.060   0.019  0.00  0.00    -0.506 OA
ATOM     20  H   UNL     1      -2.726   0.854   0.903  0.00  0.00    +0.292 HD
ENDBRANCH  16  19
ENDBRANCH  12  17
ENDBRANCH   1  12
TORSDOF 4
