REMARK  Name = ZINC36615019
REMARK  7 active torsions:
REMARK  status: ('A' for Active; 'I' for Inactive)
REMARK    1  A    between atoms: C_1  and  C_2
REMARK    2  A    between atoms: C_2  and  N_3
REMARK    3  A    between atoms: C_4  and  C_28
REMARK    4  A    between atoms: C_5  and  S_9
REMARK    5  A    between atoms: C_6  and  C_8
REMARK    6  A    between atoms: S_9  and  N_12
REMARK    7  A    between atoms: N_15  and  C_18
REMARK                            x       y       z     vdW  Elec       q    Type
REMARK                         _______ _______ _______ _____ _____    ______ ____
ROOT
ATOM      1  N   UNL     1      -5.571  -0.382   2.026  0.00  0.00    -0.180 NA
ATOM      2  C   UNL     1      -5.288   0.489   3.177  0.00  0.00    +0.091 C 
ATOM      3  C   UNL     1      -6.593   0.715   3.947  0.00  0.00    -0.061 C 
ATOM      4  N   UNL     1      -7.617   1.233   3.032  0.00  0.00    +0.384 N 
ATOM      5  C   UNL     1      -7.931   0.226   2.010  0.00  0.00    -0.061 C 
ATOM      6  C   UNL     1      -6.689  -0.021   1.141  0.00  0.00    +0.091 C 
ATOM      7  H   UNL     1      -7.274   2.069   2.584  0.00  0.00    -0.081 HD
ENDROOT
BRANCH   4   8
ATOM      8  C   UNL     1      -8.834   1.552   3.791  0.00  0.00    -0.062 C 
ATOM      9  C   UNL     1      -8.511   2.610   4.849  0.00  0.00    -0.024 C 
ATOM     10  C   UNL     1      -7.991   3.875   4.163  0.00  0.00    +0.005 C 
ATOM     11  C   UNL     1      -9.060   4.415   3.211  0.00  0.00    -0.010 C 
ATOM     12  C   UNL     1     -10.327   4.748   4.002  0.00  0.00    +0.007 C 
ATOM     13  C   UNL     1     -10.847   3.483   4.687  0.00  0.00    -0.010 C 
ATOM     14  C   UNL     1      -9.778   2.943   5.640  0.00  0.00    +0.005 C 
ATOM     15  C   UNL     1     -11.169   2.425   3.630  0.00  0.00    +0.005 C 
ATOM     16  C   UNL     1      -9.902   2.092   2.839  0.00  0.00    -0.024 C 
ATOM     17  C   UNL     1      -9.382   3.357   2.153  0.00  0.00    +0.005 C 
ENDBRANCH   4   8
BRANCH   1  18
ATOM     18  S   UNL     1      -4.652  -1.728   1.731  0.00  0.00    +0.064 S 
ATOM     19  O   UNL     1      -5.458  -2.610   0.962  0.00  0.00    -0.153 OA
ATOM     20  O   UNL     1      -4.079  -2.109   2.975  0.00  0.00    -0.153 OA
BRANCH  18  23
ATOM     21  N   UNL     1      -1.372  -0.511   0.012  0.00  0.00    -0.267 N 
ATOM     22  C   UNL     1      -2.109  -0.787   1.109  0.00  0.00    +0.063 A 
ATOM     23  C   UNL     1      -3.317  -1.231   0.694  0.00  0.00    +0.148 A 
ATOM     24  C   UNL     1      -3.320  -1.227  -0.705  0.00  0.00    +0.087 A 
ATOM     25  N   UNL     1      -2.156  -0.790  -1.114  0.00  0.00    -0.174 NA
ATOM     26  C   UNL     1      -4.467  -1.647  -1.588  0.00  0.00    +0.069 C 
ATOM     27  C   UNL     1      -1.664  -0.628   2.541  0.00  0.00    +0.067 C 
BRANCH  21  29
ATOM     28  C   UNL     1      -0.019   1.526   0.010  0.00  0.00    +0.029 C 
ATOM     29  C   UNL     1       0.002  -0.004   0.002  0.00  0.00    +0.140 C 
ENDBRANCH  21  29
ENDBRANCH  18  23
ENDBRANCH   1  18
TORSDOF 4
