REMARK  Name = ZINC64173209
REMARK  10 active torsions:
REMARK  status: ('A' for Active; 'I' for Inactive)
REMARK    1  A    between atoms: C_1  and  C_2
REMARK    2  A    between atoms: C_2  and  C_3
REMARK    3  A    between atoms: C_3  and  C_5
REMARK    4  A    between atoms: C_3  and  C_6
REMARK    5  A    between atoms: C_6  and  C_7
REMARK    6  A    between atoms: C_11  and  C_15
REMARK    7  A    between atoms: C_15  and  N_16
REMARK    8  A    between atoms: N_19  and  C_22
REMARK    9  A    between atoms: C_22  and  C_23
REMARK   10  A    between atoms: C_33  and  C_35
REMARK                            x       y       z     vdW  Elec       q    Type
REMARK                         _______ _______ _______ _____ _____    ______ ____
ROOT
ATOM      1  C   UNL     1      -4.945  -4.115  -5.255  0.00  0.00    +0.158 C 
ENDROOT
BRANCH   1   6
ATOM      2  C   UNL     1      -2.744  -2.606  -0.333  0.00  0.00    -0.042 C 
ATOM      3  C   UNL     1      -3.180  -2.941  -1.557  0.00  0.00    +0.071 C 
ATOM      4  C   UNL     1      -4.555  -3.473  -1.674  0.00  0.00    +0.112 C 
ATOM      5  N   UNL     1      -5.039  -3.817  -2.843  0.00  0.00    -0.226 NA
ATOM      6  C   UNL     1      -4.320  -3.700  -3.949  0.00  0.00    +0.138 C 
ATOM      7  N   UNL     1      -3.091  -3.241  -3.966  0.00  0.00    -0.160 NA
ATOM      8  C   UNL     1      -2.450  -2.848  -2.861  0.00  0.00    +0.271 C 
ATOM      9  O   UNL     1      -1.307  -2.426  -2.913  0.00  0.00    -0.268 OA
ATOM     10  S   UNL     1      -5.180  -3.477  -0.013  0.00  0.00    -0.098 S 
ATOM     11  C   UNL     1      -3.689  -2.806   0.830  0.00  0.00    +0.076 C 
ATOM     12  C   UNL     1      -3.122  -3.815   1.830  0.00  0.00    +0.024 C 
BRANCH   2  13
ATOM     13  C   UNL     1      -1.357  -2.056  -0.124  0.00  0.00    +0.036 C 
BRANCH  13  14
ATOM     14  C   UNL     1      -1.400  -0.528  -0.185  0.00  0.00    -0.010 C 
ATOM     15  C   UNL     1      -2.211   0.007   0.998  0.00  0.00    +0.008 C 
BRANCH  14  17
ATOM     16  C   UNL     1      -0.008   1.544  -0.303  0.00  0.00    +0.004 C 
ATOM     17  C   UNL     1       0.025   0.025  -0.117  0.00  0.00    +0.000 C 
ENDBRANCH  14  17
ENDBRANCH  13  14
ENDBRANCH   2  13
ENDBRANCH   1   6
BRANCH   1  18
ATOM     18  N   UNL     1      -3.985  -3.905  -6.346  0.00  0.00    -0.293 NA
ATOM     19  C   UNL     1      -3.706  -2.475  -6.535  0.00  0.00    +0.100 C 
ATOM     20  C   UNL     1      -2.644  -2.304  -7.624  0.00  0.00    +0.100 C 
ATOM     21  N   UNL     1      -3.124  -2.913  -8.872  0.00  0.00    -0.294 NA
ATOM     22  C   UNL     1      -3.402  -4.344  -8.684  0.00  0.00    +0.100 C 
ATOM     23  C   UNL     1      -4.464  -4.515  -7.595  0.00  0.00    +0.100 C 
BRANCH  21  24
ATOM     24  C   UNL     1      -2.163  -2.704  -9.964  0.00  0.00    +0.139 C 
BRANCH  24  25
ATOM     25  C   UNL     1      -2.789  -3.119 -11.270  0.00  0.00    +0.048 A 
ATOM     26  C   UNL     1      -2.659  -4.330 -11.857  0.00  0.00    +0.115 A 
ATOM     27  N   UNL     1      -3.379  -4.295 -13.020  0.00  0.00    -0.308 N 
ATOM     28  C   UNL     1      -3.601  -5.222 -13.996  0.00  0.00    +0.092 A 
ATOM     29  C   UNL     1      -4.370  -4.924 -15.065  0.00  0.00    +0.018 A 
ATOM     30  C   UNL     1      -4.953  -3.652 -15.186  0.00  0.00    +0.005 A 
ATOM     31  C   UNL     1      -4.740  -2.718 -14.219  0.00  0.00    +0.045 A 
ATOM     32  C   UNL     1      -3.935  -3.045 -13.110  0.00  0.00    +0.115 A 
ATOM     33  N   UNL     1      -3.568  -2.355 -12.039  0.00  0.00    -0.342 N 
ATOM     34  H   UNL     1      -3.824  -1.439 -11.846  0.00  0.00    +0.167 HD
ENDBRANCH  24  25
ENDBRANCH  21  24
ENDBRANCH   1  18
TORSDOF 7
