REMARK  Name = ZINC38550227
REMARK  7 active torsions:
REMARK  status: ('A' for Active; 'I' for Inactive)
REMARK    1  A    between atoms: C_1  and  C_2
REMARK    2  A    between atoms: C_4  and  C_21
REMARK    3  A    between atoms: C_5  and  C_9
REMARK    4  A    between atoms: C_6  and  C_8
REMARK    5  A    between atoms: N_17  and  C_18
REMARK    6  A    between atoms: C_18  and  C_19
REMARK    7  A    between atoms: C_18  and  C_20
REMARK                            x       y       z     vdW  Elec       q    Type
REMARK                         _______ _______ _______ _____ _____    ______ ____
ROOT
ATOM      1  C   UNL     1      -0.367  -4.111   0.805  0.00  0.00    +0.081 A 
ATOM      2  C   UNL     1      -0.509  -4.425   2.128  0.00  0.00    +0.076 A 
ATOM      3  S   UNL     1      -0.713  -6.198   2.028  0.00  0.00    -0.060 S 
ATOM      4  C   UNL     1      -0.590  -6.338   0.250  0.00  0.00    +0.166 A 
ATOM      5  N   UNL     1      -0.416  -5.077  -0.101  0.00  0.00    -0.225 NA
ATOM      6  N   UNL     1      -0.662  -7.471  -0.550  0.00  0.00    -0.248 N 
ATOM      7  C   UNL     1      -0.851  -8.682   0.012  0.00  0.00    +0.306 C 
ATOM      8  O   UNL     1      -0.959  -8.782   1.219  0.00  0.00    -0.252 OA
ATOM      9  N   UNL     1      -0.921  -9.781  -0.764  0.00  0.00    -0.297 N 
ATOM     10  H   UNL     1      -0.576  -7.392  -1.513  0.00  0.00    +0.158 HD
ATOM     11  H   UNL     1      -0.835  -9.702  -1.727  0.00  0.00    +0.151 HD
ENDROOT
BRANCH   1  16
ATOM     12  C   UNL     1       0.413   1.358  -0.821  0.00  0.00    +0.044 C 
ATOM     13  C   UNL     1       0.208  -0.073  -0.395  0.00  0.00    -0.050 A 
ATOM     14  C   UNL     1       1.061  -0.645   0.533  0.00  0.00    +0.007 A 
ATOM     15  C   UNL     1       0.878  -1.955   0.926  0.00  0.00    -0.041 A 
ATOM     16  C   UNL     1      -0.167  -2.703   0.387  0.00  0.00    +0.007 A 
ATOM     17  C   UNL     1      -1.023  -2.122  -0.548  0.00  0.00    -0.041 A 
ATOM     18  C   UNL     1      -0.834  -0.809  -0.930  0.00  0.00    +0.007 A 
ATOM     19  C   UNL     1      -2.155  -2.924  -1.135  0.00  0.00    +0.044 C 
ATOM     20  C   UNL     1       1.808  -2.576   1.936  0.00  0.00    +0.044 C 
ENDBRANCH   1  16
BRANCH   9  21
ATOM     21  C   UNL     1      -1.127 -11.097  -0.153  0.00  0.00    +0.068 C 
ATOM     22  C   UNL     1      -2.624 -11.332   0.060  0.00  0.00    +0.027 C 
ATOM     23  C   UNL     1      -0.567 -12.181  -1.077  0.00  0.00    +0.027 C 
ENDBRANCH   9  21
TORSDOF 2
