REMARK  Name = ZINC20572152
REMARK  3 active torsions:
REMARK  status: ('A' for Active; 'I' for Inactive)
REMARK    1  A    between atoms: C_1  and  C_2
REMARK    2  A    between atoms: C_8  and  C_11
REMARK    3  A    between atoms: N_13  and  C_14
REMARK                            x       y       z     vdW  Elec       q    Type
REMARK                         _______ _______ _______ _____ _____    ______ ____
ROOT
ATOM      1  C   UNL     1      -1.467   1.524   4.467  0.00  0.00    +0.270 C 
ATOM      2  O   UNL     1      -2.432   1.796   3.781  0.00  0.00    -0.268 OA
ATOM      3  N   UNL     1      -1.588   1.466   5.808  0.00  0.00    -0.278 N 
ATOM      4  H   UNL     1      -0.734   1.148   6.424  0.00  0.00    +0.155 HD
ENDROOT
BRANCH   1  11
ATOM      5  C   UNL     1      -0.765   1.556  -1.234  0.00  0.00    +0.008 C 
ATOM      6  C   UNL     1      -0.026   1.050   0.007  0.00  0.00    -0.009 C 
ATOM      7  C   UNL     1       1.413   1.570  -0.009  0.00  0.00    +0.011 C 
ATOM      8  C   UNL     1       2.228   0.875   1.090  0.00  0.00    +0.078 C 
ATOM      9  C   UNL     1       1.458   0.970   2.381  0.00  0.00    +0.141 A 
ATOM     10  C   UNL     1       0.141   1.275   2.451  0.00  0.00    +0.027 A 
ATOM     11  C   UNL     1      -0.155   1.256   3.829  0.00  0.00    +0.171 A 
ATOM     12  N   UNL     1       0.973   0.950   4.431  0.00  0.00    -0.073 NA
ATOM     13  O   UNL     1       1.874   0.789   3.633  0.00  0.00    -0.359 OA
ATOM     14  C   UNL     1      -0.740   1.555   1.269  0.00  0.00    +0.044 C 
ENDBRANCH   1  11
BRANCH   3  15
ATOM     15  C   UNL     1      -2.800   1.810   6.417  0.00  0.00    +0.069 A 
ATOM     16  C   UNL     1      -4.003   1.522   5.785  0.00  0.00    +0.026 A 
ATOM     17  C   UNL     1      -5.198   1.859   6.390  0.00  0.00    +0.002 A 
ATOM     18  C   UNL     1      -5.199   2.492   7.620  0.00  0.00    +0.003 A 
ATOM     19  C   UNL     1      -4.004   2.786   8.251  0.00  0.00    +0.040 A 
ATOM     20  C   UNL     1      -2.804   2.447   7.653  0.00  0.00    +0.144 A 
ATOM     21  F   UNL     1      -1.636   2.735   8.269  0.00  0.00    -0.204 F 
ENDBRANCH   3  15
TORSDOF 2
