REMARK  Name = ZINC50373152
REMARK  5 active torsions:
REMARK  status: ('A' for Active; 'I' for Inactive)
REMARK    1  A    between atoms: C_1  and  O_2
REMARK    2  A    between atoms: O_2  and  C_3
REMARK    3  A    between atoms: C_8  and  N_10
REMARK    4  A    between atoms: C_11  and  C_13
REMARK    5  A    between atoms: C_18  and  N_19
REMARK                            x       y       z     vdW  Elec       q    Type
REMARK                         _______ _______ _______ _____ _____    ______ ____
ROOT
ATOM      1  N   UNL     1       1.866  -2.155   0.704  0.00  0.00    -0.306 N 
ATOM      2  C   UNL     1       2.312  -3.208   1.418  0.00  0.00    +0.247 C 
ATOM      3  O   UNL     1       3.135  -3.963   0.938  0.00  0.00    -0.270 OA
ATOM      4  H   UNL     1       1.209  -1.553   1.086  0.00  0.00    +0.149 HD
ENDROOT
BRANCH   2   5
ATOM      5  C   UNL     1       1.799  -3.444   2.784  0.00  0.00    +0.068 A 
ATOM      6  C   UNL     1       1.877  -2.435   3.746  0.00  0.00    +0.035 A 
ATOM      7  C   UNL     1       1.396  -2.663   5.020  0.00  0.00    +0.042 A 
ATOM      8  C   UNL     1       0.839  -3.888   5.345  0.00  0.00    +0.022 A 
ATOM      9  C   UNL     1       0.760  -4.891   4.395  0.00  0.00    +0.035 A 
ATOM     10  C   UNL     1       1.231  -4.675   3.117  0.00  0.00    +0.138 A 
ATOM     11 CL   UNL     1       1.492  -1.410   6.218  0.00  0.00    -0.084 Cl
BRANCH  10  12
ATOM     12  N   UNL     1       1.140  -5.748   2.101  0.00  0.00    +0.057 N 
ATOM     13  O   UNL     1       0.762  -6.851   2.420  0.00  0.00    -0.126 OA
ATOM     14  O   UNL     1       1.443  -5.521   0.953  0.00  0.00    -0.126 OA
ENDBRANCH  10  12
ENDBRANCH   2   5
BRANCH   1  19
ATOM     15  C   UNL     1       2.243  -0.431  -1.012  0.00  0.00    +0.138 C 
ATOM     16  C   UNL     1       1.319  -0.355  -2.244  0.00  0.00    +0.033 C 
ATOM     17  C   UNL     1       1.444  -1.752  -2.900  0.00  0.00    +0.004 C 
ATOM     18  C   UNL     1       1.522  -2.699  -1.677  0.00  0.00    +0.025 C 
ATOM     19  C   UNL     1       2.373  -1.921  -0.650  0.00  0.00    +0.102 C 
BRANCH  15  21
ATOM     20  C   UNL     1       2.078   1.654   0.159  0.00  0.00    +0.194 C 
ATOM     21  O   UNL     1       1.665   0.288   0.079  0.00  0.00    -0.378 OA
ENDBRANCH  15  21
ENDBRANCH   1  19
TORSDOF 4
