REMARK  Name = ZINC45820272
REMARK  6 active torsions:
REMARK  status: ('A' for Active; 'I' for Inactive)
REMARK    1  A    between atoms: C_1  and  C_2
REMARK    2  A    between atoms: N_5  and  C_8
REMARK    3  A    between atoms: C_8  and  C_10
REMARK    4  A    between atoms: C_8  and  C_26
REMARK    5  A    between atoms: C_10  and  N_11
REMARK    6  A    between atoms: C_12  and  C_14
REMARK                            x       y       z     vdW  Elec       q    Type
REMARK                         _______ _______ _______ _____ _____    ______ ____
ROOT
ATOM      1  C   UNL     1       2.358  -4.349  -1.341  0.00  0.00    +0.094 C 
ENDROOT
BRANCH   1   2
ATOM      2  N   UNL     1       2.290  -5.808  -1.457  0.00  0.00    -0.313 N 
ATOM      3  C   UNL     1       2.895  -6.431  -2.488  0.00  0.00    +0.254 C 
ATOM      4  O   UNL     1       3.495  -5.784  -3.320  0.00  0.00    -0.272 OA
ATOM      5  H   UNL     1       1.810  -6.325  -0.792  0.00  0.00    +0.149 HD
BRANCH   3   6
ATOM      6  C   UNL     1       2.825  -7.931  -2.607  0.00  0.00    +0.266 C 
ATOM      7  C   UNL     1       1.376  -8.357  -2.844  0.00  0.00    +0.090 C 
ATOM      8  C   UNL     1       1.314  -9.818  -3.204  0.00  0.00    -0.029 A 
ATOM      9  C   UNL     1       0.139 -10.523  -3.040  0.00  0.00    +0.004 A 
ATOM     10  C   UNL     1       0.082 -11.864  -3.374  0.00  0.00    +0.000 A 
ATOM     11  C   UNL     1       1.198 -12.512  -3.873  0.00  0.00    +0.001 A 
ATOM     12  C   UNL     1       2.381 -11.820  -4.042  0.00  0.00    +0.015 A 
ATOM     13  C   UNL     1       2.443 -10.469  -3.705  0.00  0.00    +0.062 A 
ATOM     14  C   UNL     1       3.703  -9.708  -3.869  0.00  0.00    +0.340 C 
ATOM     15  O   UNL     1       4.750 -10.264  -4.134  0.00  0.00    -0.245 OA
ATOM     16  O   UNL     1       3.635  -8.362  -3.709  0.00  0.00    -0.448 OA
ENDBRANCH   3   6
ENDBRANCH   1   2
BRANCH   1  17
ATOM     17  C   UNL     1       1.708  -3.911  -0.027  0.00  0.00    -0.013 C 
BRANCH  17  22
ATOM     18  C   UNL     1       0.546   1.655   0.412  0.00  0.00    +0.007 C 
ATOM     19  C   UNL     1       0.415   0.132   0.344  0.00  0.00    -0.018 C 
ATOM     20  C   UNL     1       0.947  -0.368  -1.002  0.00  0.00    -0.015 C 
ATOM     21  C   UNL     1       0.886  -1.897  -1.033  0.00  0.00    -0.078 C 
ATOM     22  N   UNL     1       1.707  -2.444   0.054  0.00  0.00    +0.386 N 
ATOM     23  C   UNL     1       1.160  -2.027   1.350  0.00  0.00    -0.078 C 
ATOM     24  C   UNL     1       1.232  -0.504   1.472  0.00  0.00    -0.015 C 
ATOM     25  H   UNL     1       2.653  -2.104  -0.036  0.00  0.00    -0.081 HD
ENDBRANCH  17  22
BRANCH  17  26
ATOM     26  C   UNL     1       2.488  -4.477   1.132  0.00  0.00    -0.022 A 
ATOM     27  C   UNL     1       2.220  -5.569   1.889  0.00  0.00    +0.009 A 
ATOM     28  C   UNL     1       3.086  -5.905   2.912  0.00  0.00    +0.008 A 
ATOM     29  C   UNL     1       4.179  -5.132   3.128  0.00  0.00    +0.045 A 
ATOM     30  S   UNL     1       4.009  -3.889   1.858  0.00  0.00    -0.103 S 
ENDBRANCH  17  26
ENDBRANCH   1  17
TORSDOF 5
