REMARK  Name = ZINC40179377
REMARK  10 active torsions:
REMARK  status: ('A' for Active; 'I' for Inactive)
REMARK    1  A    between atoms: C_1  and  C_2
REMARK    2  A    between atoms: C_2  and  O_3
REMARK    3  A    between atoms: O_3  and  C_4
REMARK    4  A    between atoms: C_4  and  C_6
REMARK    5  A    between atoms: C_10  and  N_11
REMARK    6  A    between atoms: C_12  and  C_14
REMARK    7  A    between atoms: C_15  and  C_27
REMARK    8  A    between atoms: N_16  and  C_19
REMARK    9  A    between atoms: C_22  and  C_26
REMARK   10  A    between atoms: C_23  and  C_25
REMARK                            x       y       z     vdW  Elec       q    Type
REMARK                         _______ _______ _______ _____ _____    ______ ____
ROOT
ATOM      1  N   UNL     1      -3.034  -2.597   2.498  0.00  0.00    -0.274 N 
ATOM      2  C   UNL     1      -3.791  -2.959   3.554  0.00  0.00    +0.271 C 
ATOM      3  O   UNL     1      -4.869  -3.492   3.374  0.00  0.00    -0.268 OA
ATOM      4  H   UNL     1      -2.174  -2.172   2.641  0.00  0.00    +0.156 HD
ENDROOT
BRANCH   1   9
ATOM      5  C   UNL     1      -2.849  -2.530   0.015  0.00  0.00    +0.091 A 
ATOM      6  C   UNL     1      -3.538  -2.888  -1.213  0.00  0.00    -0.021 A 
ATOM      7  C   UNL     1      -4.738  -3.476  -1.022  0.00  0.00    -0.004 A 
ATOM      8  S   UNL     1      -4.930  -3.545   0.736  0.00  0.00    -0.077 S 
ATOM      9  C   UNL     1      -3.485  -2.832   1.210  0.00  0.00    +0.087 A 
ATOM     10  C   UNL     1      -5.683  -3.957  -2.079  0.00  0.00    +0.043 C 
ATOM     11  C   UNL     1      -5.258  -3.342  -3.421  0.00  0.00    +0.005 C 
ATOM     12  C   UNL     1      -3.749  -3.534  -3.598  0.00  0.00    +0.005 C 
ATOM     13  C   UNL     1      -2.992  -2.642  -2.612  0.00  0.00    +0.037 C 
BRANCH   5  14
ATOM     14  C   UNL     1      -1.535  -1.883  -0.008  0.00  0.00    +0.342 C 
ATOM     15  O   UNL     1      -0.524  -2.560  -0.007  0.00  0.00    -0.245 OA
BRANCH  14  16
ATOM     16  O   UNL     1      -1.446  -0.538  -0.029  0.00  0.00    -0.461 OA
BRANCH  16  18
ATOM     17  C   UNL     1      -0.233   1.552  -0.073  0.00  0.00    +0.048 C 
ATOM     18  C   UNL     1      -0.133   0.025  -0.050  0.00  0.00    +0.229 C 
ENDBRANCH  16  18
ENDBRANCH  14  16
ENDBRANCH   5  14
ENDBRANCH   1   9
BRANCH   2  19
ATOM     19  C   UNL     1      -3.311  -2.709   4.925  0.00  0.00    +0.170 A 
ATOM     20  C   UNL     1      -3.975  -3.031   6.075  0.00  0.00    +0.074 A 
ATOM     21  N   UNL     1      -3.192  -2.634   7.102  0.00  0.00    -0.216 N 
ATOM     22  N   UNL     1      -2.042  -2.066   6.538  0.00  0.00    -0.060 NA
ATOM     23  N   UNL     1      -2.143  -2.132   5.256  0.00  0.00    -0.124 NA
ATOM     24  C   UNL     1      -5.321  -3.700   6.178  0.00  0.00    +0.068 C 
BRANCH  21  25
ATOM     25  C   UNL     1      -3.477  -2.765   8.469  0.00  0.00    +0.068 A 
ATOM     26  C   UNL     1      -4.034  -3.940   8.955  0.00  0.00    +0.028 A 
ATOM     27  C   UNL     1      -4.312  -4.066  10.302  0.00  0.00    +0.006 A 
ATOM     28  C   UNL     1      -4.037  -3.022  11.166  0.00  0.00    -0.047 A 
ATOM     29  C   UNL     1      -3.482  -1.850  10.685  0.00  0.00    -0.046 A 
ATOM     30  C   UNL     1      -3.196  -1.721   9.340  0.00  0.00    +0.031 A 
ATOM     31  C   UNL     1      -3.185  -0.715  11.631  0.00  0.00    +0.044 C 
ATOM     32  C   UNL     1      -4.341  -3.163  12.635  0.00  0.00    +0.044 C 
ENDBRANCH  21  25
ENDBRANCH   2  19
TORSDOF 6
