REMARK  Name = ZINC09164659
REMARK  6 active torsions:
REMARK  status: ('A' for Active; 'I' for Inactive)
REMARK    1  A    between atoms: C_1  and  C_2
REMARK    2  A    between atoms: C_2  and  O_4
REMARK    3  A    between atoms: O_4  and  C_5
REMARK    4  A    between atoms: C_8  and  C_11
REMARK    5  A    between atoms: C_11  and  C_13
REMARK    6  A    between atoms: N_28  and  C_31
REMARK                            x       y       z     vdW  Elec       q    Type
REMARK                         _______ _______ _______ _____ _____    ______ ____
ROOT
ATOM      1  C   UNL     1      -2.612  -7.004  -0.235  0.00  0.00    +0.176 C 
ATOM      2  C   UNL     1      -3.119  -7.045  -1.675  0.00  0.00    +0.119 C 
ATOM      3  C   UNL     1      -2.203  -8.226  -2.183  0.00  0.00    +0.116 C 
ATOM      4  C   UNL     1      -2.403  -9.249  -1.148  0.00  0.00    +0.129 C 
ATOM      5  N   UNL     1      -2.449  -8.432   0.124  0.00  0.00    -0.237 N 
ATOM      6  N   UNL     1      -2.302  -9.000   1.391  0.00  0.00    -0.191 NA
ATOM      7  C   UNL     1      -1.506 -10.038   1.469  0.00  0.00    +0.130 C 
ATOM      8  C   UNL     1      -0.841 -10.540   0.265  0.00  0.00    +0.019 C 
ATOM      9  C   UNL     1      -1.239 -10.200  -0.985  0.00  0.00    -0.001 C 
ATOM     10  C   UNL     1      -2.294  -8.072  -3.615  0.00  0.00    +0.232 C 
ATOM     11  O   UNL     1      -2.278  -8.948  -4.453  0.00  0.00    -0.274 OA
ATOM     12  N   UNL     1      -2.403  -6.720  -3.824  0.00  0.00    -0.210 N 
ATOM     13  C   UNL     1      -2.684  -6.017  -2.671  0.00  0.00    +0.232 C 
ATOM     14  O   UNL     1      -2.595  -4.821  -2.493  0.00  0.00    -0.274 OA
ENDROOT
BRANCH  12  15
ATOM     15  C   UNL     1      -2.257  -6.114  -5.080  0.00  0.00    +0.044 A 
ATOM     16  C   UNL     1      -2.377  -4.736  -5.205  0.00  0.00    +0.025 A 
ATOM     17  C   UNL     1      -2.232  -4.141  -6.443  0.00  0.00    +0.022 A 
ATOM     18  C   UNL     1      -1.968  -4.917  -7.558  0.00  0.00    +0.041 A 
ATOM     19  C   UNL     1      -1.849  -6.290  -7.436  0.00  0.00    +0.022 A 
ATOM     20  C   UNL     1      -1.986  -6.889  -6.199  0.00  0.00    +0.025 A 
ATOM     21 CL   UNL     1      -1.787  -4.167  -9.113  0.00  0.00    -0.084 Cl
ENDBRANCH  12  15
BRANCH   1  22
ATOM     22  C   UNL     1      -1.290  -6.285  -0.160  0.00  0.00    +0.186 C 
ATOM     23  O   UNL     1      -0.256  -6.918  -0.136  0.00  0.00    -0.290 OA
BRANCH  22  27
ATOM     24  C   UNL     1      -1.185  -2.048  -0.031  0.00  0.00    +0.132 A 
ATOM     25  C   UNL     1       0.002  -2.771  -0.003  0.00  0.00    +0.047 A 
ATOM     26  C   UNL     1      -0.027  -4.146  -0.045  0.00  0.00    +0.015 A 
ATOM     27  C   UNL     1      -1.254  -4.817  -0.115  0.00  0.00    +0.020 A 
ATOM     28  C   UNL     1      -2.446  -4.084  -0.142  0.00  0.00    +0.015 A 
ATOM     29  C   UNL     1      -2.407  -2.709  -0.095  0.00  0.00    +0.047 A 
BRANCH  24  30
ATOM     30  O   UNL     1      -1.152  -0.691   0.009  0.00  0.00    -0.426 OA
BRANCH  30  32
ATOM     31  C   UNL     1      -0.883   1.471  -1.153  0.00  0.00    +0.136 C 
ATOM     32  C   UNL     1      -0.827  -0.035  -1.116  0.00  0.00    +0.309 C 
ATOM     33  O   UNL     1      -0.488  -0.651  -2.099  0.00  0.00    -0.251 OA
ENDBRANCH  30  32
ENDBRANCH  24  30
ENDBRANCH  22  27
ENDBRANCH   1  22
TORSDOF 5
