REMARK  Name = ZINC66248164
REMARK  4 active torsions:
REMARK  status: ('A' for Active; 'I' for Inactive)
REMARK    1  A    between atoms: C_1  and  N_2
REMARK    2  A    between atoms: C_5  and  S_8
REMARK    3  A    between atoms: S_8  and  N_11
REMARK    4  A    between atoms: N_18  and  C_21
REMARK                            x       y       z     vdW  Elec       q    Type
REMARK                         _______ _______ _______ _____ _____    ______ ____
ROOT
ATOM      1  N   UNL     1       1.495  -3.559   2.450  0.00  0.00    -0.102 NA
ATOM      2  C   UNL     1       1.775  -4.545   3.267  0.00  0.00    +0.192 A 
ATOM      3  N   UNL     1       2.893  -4.745   4.042  0.00  0.00    -0.336 N 
ATOM      4  C   UNL     1       2.979  -5.865   4.837  0.00  0.00    +0.030 A 
ATOM      5  C   UNL     1       1.948  -6.722   4.815  0.00  0.00    +0.026 A 
ATOM      6  S   UNL     1       0.802  -5.987   3.679  0.00  0.00    -0.052 S 
ATOM      7  C   UNL     1       1.815  -7.996   5.583  0.00  0.00    +0.128 C 
ATOM      8  N   UNL     1       3.142  -8.357   6.117  0.00  0.00    -0.300 NA
ATOM      9  C   UNL     1       3.763  -7.199   6.775  0.00  0.00    +0.090 C 
ATOM     10  C   UNL     1       4.183  -6.163   5.730  0.00  0.00    +0.069 C 
ATOM     11  C   UNL     1       3.046  -9.497   7.039  0.00  0.00    +0.105 C 
ATOM     12  H   UNL     1       3.618  -4.099   4.029  0.00  0.00    +0.168 HD
ENDROOT
BRANCH   1  13
ATOM     13  S   UNL     1       0.058  -3.549   1.628  0.00  0.00    +0.119 S 
ATOM     14  O   UNL     1      -0.966  -3.397   2.601  0.00  0.00    -0.145 OA
ATOM     15  O   UNL     1       0.096  -4.647   0.728  0.00  0.00    -0.145 OA
BRANCH  13  20
ATOM     16  C   UNL     1      -0.018   1.461   0.010  0.00  0.00    +0.151 C 
ATOM     17  N   UNL     1       0.002  -0.004   0.002  0.00  0.00    -0.324 N 
ATOM     18  C   UNL     1       0.009  -0.800  -1.090  0.00  0.00    +0.176 A 
ATOM     19  N   UNL     1       0.027  -2.045  -0.701  0.00  0.00    -0.329 N 
ATOM     20  C   UNL     1       0.034  -2.090   0.640  0.00  0.00    +0.216 A 
ATOM     21  C   UNL     1       0.024  -0.822   1.099  0.00  0.00    +0.154 A 
ATOM     22 CL   UNL     1       0.032  -0.324   2.762  0.00  0.00    -0.060 Cl
ATOM     23  H   UNL     1       0.036  -2.817  -1.288  0.00  0.00    +0.168 HD
ENDBRANCH  13  20
ENDBRANCH   1  13
TORSDOF 2
