REMARK  Name = ZINC39584760
REMARK  10 active torsions:
REMARK  status: ('A' for Active; 'I' for Inactive)
REMARK    1  A    between atoms: C_1  and  C_2
REMARK    2  A    between atoms: C_2  and  N_3
REMARK    3  A    between atoms: C_4  and  C_26
REMARK    4  A    between atoms: C_8  and  S_10
REMARK    5  A    between atoms: S_10  and  C_11
REMARK    6  A    between atoms: C_11  and  C_12
REMARK    7  A    between atoms: N_14  and  N_15
REMARK    8  A    between atoms: C_16  and  C_17
REMARK    9  A    between atoms: C_29  and  O_32
REMARK   10  A    between atoms: O_32  and  C_33
REMARK                            x       y       z     vdW  Elec       q    Type
REMARK                         _______ _______ _______ _____ _____    ______ ____
ROOT
ATOM      1  N   UNL     1       0.592  -0.522   0.954  0.00  0.00    +0.410 N 
ATOM      2  C   UNL     1       0.622  -1.972   1.284  0.00  0.00    +0.049 C 
ATOM      3  N   UNL     1       1.787  -2.078   2.200  0.00  0.00    -0.267 NA
ATOM      4  N   UNL     1       2.772  -1.142   1.651  0.00  0.00    -0.262 NA
ATOM      5  C   UNL     1       2.022  -0.146   0.860  0.00  0.00    +0.077 C 
ATOM      6  H   UNL     1       2.151  -3.019   2.215  0.00  0.00    +0.139 HD
ATOM      7  H   UNL     1       3.449  -1.624   1.078  0.00  0.00    +0.140 HD
ATOM      8  H   UNL     1       0.137  -0.000   1.687  0.00  0.00    -0.075 HD
ENDROOT
BRANCH   2   9
ATOM      9  C   UNL     1      -0.649  -2.387   1.979  0.00  0.00    -0.046 A 
ATOM     10  C   UNL     1      -1.518  -3.267   1.361  0.00  0.00    +0.007 A 
ATOM     11  C   UNL     1      -2.684  -3.648   1.997  0.00  0.00    +0.046 A 
ATOM     12  C   UNL     1      -2.982  -3.148   3.256  0.00  0.00    +0.120 A 
ATOM     13  C   UNL     1      -2.108  -2.266   3.874  0.00  0.00    +0.046 A 
ATOM     14  C   UNL     1      -0.941  -1.892   3.237  0.00  0.00    +0.007 A 
BRANCH  12  15
ATOM     15  O   UNL     1      -4.128  -3.522   3.883  0.00  0.00    -0.495 OA
ATOM     16  C   UNL     1      -4.370  -2.968   5.178  0.00  0.00    +0.277 C 
ENDBRANCH  12  15
ENDBRANCH   2   9
BRANCH   1  18
ATOM     17  C   UNL     1      -0.110   1.197  -0.643  0.00  0.00    -0.017 C 
ATOM     18  C   UNL     1      -0.084  -0.301  -0.332  0.00  0.00    -0.076 C 
ENDBRANCH   1  18
BRANCH   5  19
ATOM     19  S   UNL     1       2.275   1.513   1.548  0.00  0.00    -0.150 S 
BRANCH  19  20
ATOM     20  C   UNL     1       1.727   1.362   3.270  0.00  0.00    +0.166 C 
BRANCH  20  21
ATOM     21  C   UNL     1       1.886   2.689   3.966  0.00  0.00    +0.242 C 
ATOM     22  O   UNL     1       2.326   3.642   3.360  0.00  0.00    -0.273 OA
ATOM     23  N   UNL     1       1.540   2.816   5.263  0.00  0.00    -0.206 N 
ATOM     24  H   UNL     1       1.188   2.053   5.748  0.00  0.00    +0.177 HD
BRANCH  23  25
ATOM     25  N   UNL     1       1.688   4.049   5.910  0.00  0.00    -0.188 NA
ATOM     26  C   UNL     1       1.352   4.172   7.169  0.00  0.00    +0.136 C 
BRANCH  26  27
ATOM     27  C   UNL     1       1.500   5.407   7.817  0.00  0.00    +0.000 C 
ATOM     28  C   UNL     1       1.198   5.704   9.144  0.00  0.00    +0.004 A 
ATOM     29  C   UNL     1       0.680   4.924  10.202  0.00  0.00    +0.010 A 
ATOM     30  C   UNL     1       0.481   5.489  11.419  0.00  0.00    +0.001 A 
ATOM     31  C   UNL     1       0.777   6.835  11.660  0.00  0.00    +0.002 A 
ATOM     32  C   UNL     1       1.276   7.641  10.693  0.00  0.00    +0.026 A 
ATOM     33  C   UNL     1       1.511   7.122   9.392  0.00  0.00    +0.043 A 
ATOM     34  N   UNL     1       1.980   7.688   8.300  0.00  0.00    -0.380 N 
ATOM     35  C   UNL     1       2.028   6.694   7.223  0.00  0.00    +0.150 C 
ATOM     36  H   UNL     1       2.254   8.615   8.221  0.00  0.00    +0.160 HD
ENDBRANCH  26  27
ENDBRANCH  23  25
ENDBRANCH  20  21
ENDBRANCH  19  20
ENDBRANCH   5  19
TORSDOF 8
