REMARK  Name = ZINC04450906
REMARK  4 active torsions:
REMARK  status: ('A' for Active; 'I' for Inactive)
REMARK    1  A    between atoms: C_4  and  O_27
REMARK    2  A    between atoms: C_5  and  N_7
REMARK    3  A    between atoms: C_12  and  N_47
REMARK    4  A    between atoms: N_17  and  C_20
REMARK                            x       y       z     vdW  Elec       q    Type
REMARK                         _______ _______ _______ _____ _____    ______ ____
ROOT
ATOM      1  N   UNL     1      -0.612   1.447  -1.119  0.00  0.00    -0.331 N 
ATOM      2  C   UNL     1       0.082   1.007   0.100  0.00  0.00    +0.086 C 
ATOM      3  C   UNL     1      -0.668   1.528   1.328  0.00  0.00    -0.059 C 
ATOM      4  C   UNL     1      -1.435   3.435   0.049  0.00  0.00    -0.059 C 
ATOM      5  C   UNL     1      -0.685   2.913  -1.179  0.00  0.00    +0.086 C 
ATOM      6  N   UNL     1      -0.715   3.005   1.266  0.00  0.00    +0.390 N 
ATOM      7  H   UNL     1       0.245   3.368   1.232  0.00  0.00    -0.081 HD
ENDROOT
BRANCH   6   8
ATOM      8  C   UNL     1      -1.389   3.540   2.468  0.00  0.00    +0.029 C 
ATOM      9  C   UNL     1      -0.575   3.189   3.730  0.00  0.00    +0.090 C 
ATOM     10  C   UNL     1      -1.534   2.353   4.549  0.00  0.00    +0.225 C 
ATOM     11  O   UNL     1      -1.292   1.865   5.633  0.00  0.00    -0.275 OA
ATOM     12  N   UNL     1      -2.693   2.237   3.888  0.00  0.00    -0.212 N 
ATOM     13  C   UNL     1      -2.722   2.865   2.706  0.00  0.00    +0.213 C 
ATOM     14  O   UNL     1      -3.667   2.889   1.947  0.00  0.00    -0.277 OA
BRANCH  12  15
ATOM     15  C   UNL     1      -3.785   1.517   4.392  0.00  0.00    +0.044 A 
ATOM     16  C   UNL     1      -4.945   2.183   4.764  0.00  0.00    +0.025 A 
ATOM     17  C   UNL     1      -6.022   1.471   5.255  0.00  0.00    +0.022 A 
ATOM     18  C   UNL     1      -5.942   0.096   5.386  0.00  0.00    +0.041 A 
ATOM     19  C   UNL     1      -4.785  -0.570   5.022  0.00  0.00    +0.022 A 
ATOM     20  C   UNL     1      -3.707   0.137   4.525  0.00  0.00    +0.025 A 
ATOM     21 CL   UNL     1      -7.295  -0.796   6.010  0.00  0.00    -0.084 Cl
ENDBRANCH  12  15
ENDBRANCH   6   8
BRANCH   1  26
ATOM     22  C   UNL     1       1.939   0.715  -3.665  0.00  0.00    +0.002 A 
ATOM     23  C   UNL     1       1.227  -0.099  -4.526  0.00  0.00    +0.004 A 
ATOM     24  C   UNL     1      -0.095  -0.403  -4.262  0.00  0.00    +0.047 A 
ATOM     25  C   UNL     1      -0.710   0.103  -3.128  0.00  0.00    +0.138 A 
ATOM     26  C   UNL     1       0.005   0.928  -2.263  0.00  0.00    +0.072 A 
ATOM     27  C   UNL     1       1.332   1.229  -2.534  0.00  0.00    +0.027 A 
BRANCH  25  28
ATOM     28  O   UNL     1      -2.009  -0.200  -2.864  0.00  0.00    -0.505 OA
ATOM     29  H   UNL     1      -2.643   0.421  -3.249  0.00  0.00    +0.292 HD
ENDBRANCH  25  28
ENDBRANCH   1  26
TORSDOF 4
