REMARK  Name = ZINC31820484
REMARK  3 active torsions:
REMARK  status: ('A' for Active; 'I' for Inactive)
REMARK    1  A    between atoms: C_4  and  N_7
REMARK    2  A    between atoms: C_13  and  O_24
REMARK    3  A    between atoms: C_15  and  C_17
REMARK                            x       y       z     vdW  Elec       q    Type
REMARK                         _______ _______ _______ _____ _____    ______ ____
ROOT
ATOM      1  N   UNL     1       3.623  -0.652  -0.037  0.00  0.00    -0.283 N 
ATOM      2  C   UNL     1       4.672  -0.425  -0.883  0.00  0.00    +0.206 A 
ATOM      3  N   UNL     1       5.641  -1.258  -0.592  0.00  0.00    -0.237 NA
ATOM      4  C   UNL     1       5.270  -2.031   0.420  0.00  0.00    +0.094 A 
ATOM      5  C   UNL     1       4.000  -1.668   0.792  0.00  0.00    +0.165 A 
ATOM      6  N   UNL     1       3.342  -2.290   1.812  0.00  0.00    -0.197 NA
ATOM      7  C   UNL     1       4.022  -3.011   2.653  0.00  0.00    +0.190 C 
ATOM      8  C   UNL     1       5.513  -3.170   2.585  0.00  0.00    +0.110 C 
ATOM      9  C   UNL     1       6.013  -3.133   1.132  0.00  0.00    +0.083 C 
ENDROOT
BRANCH   9  10
ATOM     10  C   UNL     1       5.746  -4.451   0.452  0.00  0.00    -0.003 A 
ATOM     11  C   UNL     1       4.452  -4.929   0.356  0.00  0.00    +0.007 A 
ATOM     12  C   UNL     1       4.207  -6.138  -0.268  0.00  0.00    +0.000 A 
ATOM     13  C   UNL     1       5.254  -6.870  -0.796  0.00  0.00    +0.003 A 
ATOM     14  C   UNL     1       6.548  -6.394  -0.701  0.00  0.00    +0.038 A 
ATOM     15  C   UNL     1       6.794  -5.181  -0.081  0.00  0.00    +0.127 A 
ATOM     16  F   UNL     1       8.058  -4.712   0.008  0.00  0.00    -0.205 F 
ENDBRANCH   9  10
BRANCH   1  20
ATOM     17  C   UNL     1      -0.017   1.379   0.010  0.00  0.00    +0.000 A 
ATOM     18  C   UNL     1       1.170   2.089   0.002  0.00  0.00    +0.002 A 
ATOM     19  C   UNL     1       2.377   1.419  -0.013  0.00  0.00    +0.026 A 
ATOM     20  C   UNL     1       2.399   0.031  -0.021  0.00  0.00    +0.049 A 
ATOM     21  C   UNL     1       1.207  -0.680  -0.013  0.00  0.00    +0.026 A 
ATOM     22  C   UNL     1       0.002  -0.004   0.002  0.00  0.00    +0.002 A 
ENDBRANCH   1  20
BRANCH   7  23
ATOM     23  O   UNL     1       3.354  -3.649   3.637  0.00  0.00    -0.495 OA
ATOM     24  H   UNL     1       2.398  -3.504   3.622  0.00  0.00    +0.293 HD
ENDBRANCH   7  23
TORSDOF 3
