REMARK  Name = ZINC12696760
REMARK  7 active torsions:
REMARK  status: ('A' for Active; 'I' for Inactive)
REMARK    1  A    between atoms: C_1  and  O_2
REMARK    2  A    between atoms: O_2  and  C_3
REMARK    3  A    between atoms: C_5  and  C_20
REMARK    4  A    between atoms: C_8  and  O_9
REMARK    5  A    between atoms: O_9  and  C_10
REMARK    6  A    between atoms: C_10  and  C_11
REMARK    7  A    between atoms: C_14  and  N_17
REMARK                            x       y       z     vdW  Elec       q    Type
REMARK                         _______ _______ _______ _____ _____    ______ ____
ROOT
ATOM      1  C   UNL     1      -4.306   7.692  -0.198  0.00  0.00    +0.162 A 
ATOM      2  C   UNL     1      -2.942   7.889  -0.115  0.00  0.00    +0.057 A 
ATOM      3  C   UNL     1      -2.082   6.785  -0.038  0.00  0.00    -0.021 A 
ATOM      4  C   UNL     1      -2.614   5.488  -0.035  0.00  0.00    +0.012 A 
ATOM      5  C   UNL     1      -3.975   5.303  -0.113  0.00  0.00    +0.050 A 
ATOM      6  C   UNL     1      -4.826   6.398  -0.195  0.00  0.00    +0.162 A 
ENDROOT
BRANCH   3   7
ATOM      7  C   UNL     1      -0.632   6.986   0.044  0.00  0.00    +0.021 C 
ATOM      8  C   UNL     1       0.207   6.215  -0.707  0.00  0.00    +0.046 C 
ATOM      9  C   UNL     1      -0.158   5.290  -1.804  0.00  0.00    +0.008 A 
ATOM     10  C   UNL     1      -1.370   4.931  -2.383  0.00  0.00    +0.012 A 
ATOM     11  C   UNL     1      -1.390   4.021  -3.421  0.00  0.00    +0.021 A 
ATOM     12  C   UNL     1      -0.206   3.462  -3.877  0.00  0.00    +0.043 A 
ATOM     13  C   UNL     1       1.002   3.813  -3.308  0.00  0.00    +0.044 A 
ATOM     14  C   UNL     1       1.042   4.732  -2.265  0.00  0.00    +0.043 A 
ATOM     15  N   UNL     1       2.101   5.250  -1.529  0.00  0.00    -0.281 N 
ATOM     16  C   UNL     1       1.673   6.123  -0.602  0.00  0.00    +0.249 C 
ATOM     17  O   UNL     1       2.374   6.732   0.186  0.00  0.00    -0.270 OA
ATOM     18 CL   UNL     1      -0.243   2.314  -5.179  0.00  0.00    -0.083 Cl
ATOM     19  H   UNL     1       3.031   5.010  -1.667  0.00  0.00    +0.155 HD
ENDBRANCH   3   7
BRANCH   1  21
ATOM     20  C   UNL     1      -4.541  10.057  -0.277  0.00  0.00    +0.277 C 
ATOM     21  O   UNL     1      -5.143   8.761  -0.279  0.00  0.00    -0.491 OA
ENDBRANCH   1  21
BRANCH   6  22
ATOM     22  O   UNL     1      -6.168   6.208  -0.271  0.00  0.00    -0.484 OA
BRANCH  22  23
ATOM     23  C   UNL     1      -6.634   4.857  -0.263  0.00  0.00    +0.264 C 
BRANCH  23  24
ATOM     24  C   UNL     1      -8.138   4.844  -0.354  0.00  0.00    -0.010 A 
ATOM     25  C   UNL     1      -8.901   4.865   0.799  0.00  0.00    +0.009 A 
ATOM     26  C   UNL     1     -10.281   4.857   0.715  0.00  0.00    +0.033 A 
ATOM     27  C   UNL     1     -10.898   4.819  -0.522  0.00  0.00    +0.126 A 
ATOM     28  C   UNL     1     -10.135   4.793  -1.674  0.00  0.00    +0.033 A 
ATOM     29  C   UNL     1      -8.755   4.805  -1.590  0.00  0.00    +0.009 A 
BRANCH  27  30
ATOM     30  N   UNL     1     -12.375   4.806  -0.611  0.00  0.00    +0.056 N 
ATOM     31  O   UNL     1     -12.919   4.772  -1.701  0.00  0.00    -0.126 OA
ATOM     32  O   UNL     1     -13.047   4.829   0.404  0.00  0.00    -0.126 OA
ENDBRANCH  27  30
ENDBRANCH  23  24
ENDBRANCH  22  23
ENDBRANCH   6  22
TORSDOF 6
