REMARK  Name = ZINC63980381
REMARK  4 active torsions:
REMARK  status: ('A' for Active; 'I' for Inactive)
REMARK    1  A    between atoms: C_7  and  C_10
REMARK    2  A    between atoms: C_10  and  C_11
REMARK    3  A    between atoms: C_11  and  N_12
REMARK    4  A    between atoms: C_26  and  C_28
REMARK                            x       y       z     vdW  Elec       q    Type
REMARK                         _______ _______ _______ _____ _____    ______ ____
ROOT
ATOM      1  N   UNL     1      -0.458  -4.798  -1.460  0.00  0.00    -0.274 N 
ATOM      2  C   UNL     1      -1.824  -4.578  -1.551  0.00  0.00    +0.076 C 
ATOM      3  C   UNL     1      -2.681  -5.553  -1.739  0.00  0.00    +0.020 C 
ATOM      4  C   UNL     1      -2.253  -6.979  -1.878  0.00  0.00    +0.171 C 
ATOM      5  C   UNL     1      -0.826  -7.158  -1.417  0.00  0.00    +0.057 C 
ATOM      6  H   UNL     1      -1.010 -10.346  -1.122  0.00  0.00    +0.154 HD
ATOM      7  C   UNL     1       0.042  -6.044  -1.376  0.00  0.00    +0.250 C 
ATOM      8  O   UNL     1       1.243  -6.211  -1.260  0.00  0.00    -0.270 OA
ATOM      9  C   UNL     1      -0.392  -8.370  -1.000  0.00  0.00    +0.086 C 
ATOM     10  N   UNL     1      -1.283  -9.430  -0.959  0.00  0.00    -0.290 N 
ATOM     11  C   UNL     1      -2.600  -9.085  -0.666  0.00  0.00    +0.219 A 
ATOM     12  N   UNL     1      -3.080  -7.880  -1.083  0.00  0.00    -0.221 N 
ATOM     13  N   UNL     1      -4.383  -7.799  -0.620  0.00  0.00    -0.147 NA
ATOM     14  C   UNL     1      -4.622  -8.920   0.037  0.00  0.00    +0.183 A 
ATOM     15  N   UNL     1      -3.544  -9.695  -0.023  0.00  0.00    -0.193 NA
ENDROOT
BRANCH  14  16
ATOM     16  C   UNL     1      -5.899  -9.273   0.703  0.00  0.00    +0.024 A 
ATOM     17  C   UNL     1      -6.990  -8.400   0.673  0.00  0.00    +0.031 A 
ATOM     18  C   UNL     1      -8.160  -8.767   1.306  0.00  0.00    +0.111 A 
ATOM     19  N   UNL     1      -8.255  -9.924   1.933  0.00  0.00    -0.263 NA
ATOM     20  C   UNL     1      -7.250 -10.777   1.985  0.00  0.00    +0.111 A 
ATOM     21  C   UNL     1      -6.046 -10.490   1.374  0.00  0.00    +0.031 A 
ENDBRANCH  14  16
BRANCH   1  22
ATOM     22  C   UNL     1       0.457  -3.653  -1.462  0.00  0.00    +0.118 C 
BRANCH  22  23
ATOM     23  C   UNL     1       0.691  -3.186  -0.024  0.00  0.00    +0.052 C 
BRANCH  23  30
ATOM     24  C   UNL     1      -0.016   1.348   0.009  0.00  0.00    +0.001 A 
ATOM     25  C   UNL     1       1.166   2.101   0.002  0.00  0.00    +0.002 A 
ATOM     26  C   UNL     1       2.391   1.535  -0.013  0.00  0.00    +0.026 A 
ATOM     27  C   UNL     1       2.529   0.120  -0.022  0.00  0.00    +0.043 A 
ATOM     28  N   UNL     1       3.587  -0.654  -0.037  0.00  0.00    -0.380 N 
ATOM     29  C   UNL     1       3.143  -2.053  -0.041  0.00  0.00    +0.144 C 
ATOM     30  C   UNL     1       1.631  -2.008  -0.025  0.00  0.00    -0.040 C 
ATOM     31  C   UNL     1       1.295  -0.698  -0.014  0.00  0.00    -0.001 A 
ATOM     32  C   UNL     1       0.002  -0.004   0.002  0.00  0.00    +0.010 A 
ATOM     33  H   UNL     1       4.509  -0.353  -0.045  0.00  0.00    +0.160 HD
ENDBRANCH  23  30
ENDBRANCH  22  23
ENDBRANCH   1  22
TORSDOF 4
