REMARK  Name = ZINC16720383
REMARK  8 active torsions:
REMARK  status: ('A' for Active; 'I' for Inactive)
REMARK    1  A    between atoms: C_1  and  C_2
REMARK    2  A    between atoms: C_6  and  O_9
REMARK    3  A    between atoms: C_7  and  C_8
REMARK    4  A    between atoms: O_9  and  C_10
REMARK    5  A    between atoms: C_10  and  C_12
REMARK    6  A    between atoms: C_10  and  C_13
REMARK    7  A    between atoms: N_15  and  N_16
REMARK    8  A    between atoms: N_16  and  C_17
REMARK                            x       y       z     vdW  Elec       q    Type
REMARK                         _______ _______ _______ _____ _____    ______ ____
ROOT
ATOM      1  N   UNL     1      -1.757  -6.530   4.694  0.00  0.00    -0.271 N 
ATOM      2  H   UNL     1      -2.058  -5.921   5.386  0.00  0.00    +0.169 HD
ENDROOT
BRANCH   1   3
ATOM      3  C   UNL     1      -2.009  -7.860   4.803  0.00  0.00    +0.101 C 
ATOM      4  C   UNL     1      -2.818  -8.328   5.814  0.00  0.00    +0.060 C 
ATOM      5  C   UNL     1      -3.871  -7.473   6.403  0.00  0.00    +0.000 A 
ATOM      6  C   UNL     1      -4.087  -6.172   5.964  0.00  0.00    +0.009 A 
ATOM      7  C   UNL     1      -5.083  -5.414   6.545  0.00  0.00    +0.001 A 
ATOM      8  C   UNL     1      -5.867  -5.940   7.561  0.00  0.00    +0.001 A 
ATOM      9  C   UNL     1      -5.668  -7.228   8.009  0.00  0.00    +0.013 A 
ATOM     10  C   UNL     1      -4.666  -8.011   7.435  0.00  0.00    +0.045 A 
ATOM     11  C   UNL     1      -4.421  -9.389   7.883  0.00  0.00    +0.251 C 
ATOM     12  O   UNL     1      -5.104  -9.859   8.773  0.00  0.00    -0.270 OA
ATOM     13  N   UNL     1      -3.455 -10.138   7.326  0.00  0.00    -0.248 N 
ATOM     14  C   UNL     1      -2.666  -9.691   6.336  0.00  0.00    +0.252 C 
ATOM     15  O   UNL     1      -1.812 -10.422   5.869  0.00  0.00    -0.270 OA
ATOM     16  H   UNL     1      -3.325 -11.043   7.650  0.00  0.00    +0.158 HD
ENDBRANCH   1   3
BRANCH   1  19
ATOM     17  C   UNL     1      -0.814  -4.717   3.472  0.00  0.00    +0.269 C 
ATOM     18  O   UNL     1      -1.191  -3.955   4.338  0.00  0.00    -0.270 OA
ATOM     19  N   UNL     1      -1.064  -6.037   3.581  0.00  0.00    -0.234 N 
ATOM     20  H   UNL     1      -0.762  -6.646   2.888  0.00  0.00    +0.173 HD
BRANCH  17  21
ATOM     21  C   UNL     1      -0.068  -4.187   2.275  0.00  0.00    +0.257 C 
ATOM     22  C   UNL     1       1.318  -4.831   2.212  0.00  0.00    +0.062 C 
BRANCH  21  23
ATOM     23  O   UNL     1       0.070  -2.769   2.390  0.00  0.00    -0.480 OA
BRANCH  23  29
ATOM     24  C   UNL     1       0.012   1.570   0.156  0.00  0.00    +0.044 C 
ATOM     25  C   UNL     1       0.006   0.064   0.108  0.00  0.00    -0.044 A 
ATOM     26  C   UNL     1      -0.034  -0.588  -1.111  0.00  0.00    +0.004 A 
ATOM     27  C   UNL     1      -0.039  -1.970  -1.158  0.00  0.00    +0.004 A 
ATOM     28  C   UNL     1      -0.004  -2.703   0.013  0.00  0.00    +0.046 A 
ATOM     29  C   UNL     1       0.036  -2.051   1.236  0.00  0.00    +0.125 A 
ATOM     30  C   UNL     1       0.047  -0.664   1.281  0.00  0.00    -0.006 A 
ATOM     31  C   UNL     1       0.098   0.048   2.608  0.00  0.00    +0.048 C 
ENDBRANCH  23  29
ENDBRANCH  21  23
ENDBRANCH  17  21
ENDBRANCH   1  19
TORSDOF 5
