REMARK  Name = ZINC09109330
REMARK  6 active torsions:
REMARK  status: ('A' for Active; 'I' for Inactive)
REMARK    1  A    between atoms: C_1  and  C_2
REMARK    2  A    between atoms: C_2  and  C_3
REMARK    3  A    between atoms: C_4  and  O_18
REMARK    4  A    between atoms: N_8  and  C_11
REMARK    5  A    between atoms: N_19  and  C_20
REMARK    6  A    between atoms: C_20  and  C_21
REMARK                            x       y       z     vdW  Elec       q    Type
REMARK                         _______ _______ _______ _____ _____    ______ ____
ROOT
ATOM      1  C   UNL     1      -2.680   6.719  -2.976  0.00  0.00    +0.202 C 
ATOM      2  C   UNL     1      -4.024   7.302  -3.090  0.00  0.00    +0.198 C 
ATOM      3  N   UNL     1      -4.671   7.177  -4.237  0.00  0.00    -0.131 NA
ATOM      4  C   UNL     1      -4.141   6.545  -5.280  0.00  0.00    +0.339 C 
ATOM      5  O   UNL     1      -4.799   6.471  -6.303  0.00  0.00    -0.250 OA
ATOM      6  N   UNL     1      -2.924   5.983  -5.268  0.00  0.00    -0.192 N 
ATOM      7  C   UNL     1      -2.143   6.036  -4.167  0.00  0.00    +0.245 C 
ATOM      8  O   UNL     1      -1.036   5.531  -4.156  0.00  0.00    -0.274 OA
ENDROOT
BRANCH   6   9
ATOM      9  C   UNL     1      -2.450   5.337  -6.418  0.00  0.00    +0.046 A 
ATOM     10  C   UNL     1      -1.738   6.050  -7.373  0.00  0.00    +0.025 A 
ATOM     11  C   UNL     1      -1.268   5.410  -8.503  0.00  0.00    +0.022 A 
ATOM     12  C   UNL     1      -1.515   4.061  -8.688  0.00  0.00    +0.041 A 
ATOM     13  C   UNL     1      -2.230   3.349  -7.740  0.00  0.00    +0.022 A 
ATOM     14  C   UNL     1      -2.697   3.984  -6.606  0.00  0.00    +0.025 A 
ATOM     15 CL   UNL     1      -0.928   3.260 -10.112  0.00  0.00    -0.084 Cl
ENDBRANCH   6   9
BRANCH   1  17
ATOM     16  C   UNL     1      -2.574   7.406  -0.567  0.00  0.00    +0.061 C 
ATOM     17  C   UNL     1      -1.946   6.813  -1.803  0.00  0.00    +0.032 C 
ATOM     18  N   UNL     1      -0.674   6.374  -1.767  0.00  0.00    -0.284 NA
BRANCH  18  19
ATOM     19  C   UNL     1       0.101   6.473  -0.528  0.00  0.00    +0.215 C 
BRANCH  19  20
ATOM     20  C   UNL     1       1.483   5.917  -0.754  0.00  0.00    +0.126 A 
ATOM     21  C   UNL     1       2.554   6.616  -1.169  0.00  0.00    +0.046 A 
ATOM     22  C   UNL     1       3.633   5.706  -1.246  0.00  0.00    +0.041 A 
ATOM     23  C   UNL     1       3.157   4.505  -0.872  0.00  0.00    +0.195 A 
ATOM     24  O   UNL     1       1.853   4.638  -0.581  0.00  0.00    -0.466 OA
ENDBRANCH  19  20
ENDBRANCH  18  19
ENDBRANCH   1  17
BRANCH   2  25
ATOM     25  O   UNL     1      -4.585   7.949  -2.047  0.00  0.00    -0.496 OA
ATOM     26  H   UNL     1      -5.471   8.294  -2.229  0.00  0.00    +0.293 HD
ENDBRANCH   2  25
TORSDOF 5
