REMARK  Name = ZINC26006621
REMARK  6 active torsions:
REMARK  status: ('A' for Active; 'I' for Inactive)
REMARK    1  A    between atoms: C_1  and  C_2
REMARK    2  A    between atoms: C_5  and  C_8
REMARK    3  A    between atoms: C_8  and  C_27
REMARK    4  A    between atoms: N_11  and  C_15
REMARK    5  A    between atoms: C_15  and  C_16
REMARK    6  A    between atoms: C_16  and  N_17
REMARK                            x       y       z     vdW  Elec       q    Type
REMARK                         _______ _______ _______ _____ _____    ______ ____
ROOT
ATOM      1  C   UNL     1      -3.929   9.052  -1.358  0.00  0.00    +0.135 C 
ATOM      2  C   UNL     1      -2.983   7.867  -1.372  0.00  0.00    +0.251 C 
ATOM      3  O   UNL     1      -1.771   7.898  -1.383  0.00  0.00    -0.272 OA
ATOM      4  N   UNL     1      -3.769   6.773  -1.370  0.00  0.00    -0.222 N 
ATOM      5  C   UNL     1      -5.067   7.098  -1.362  0.00  0.00    +0.310 C 
ATOM      6  O   UNL     1      -5.968   6.282  -1.363  0.00  0.00    -0.252 OA
ATOM      7  N   UNL     1      -5.263   8.429  -1.349  0.00  0.00    -0.281 N 
ATOM      8  C   UNL     1      -3.741   9.905  -2.614  0.00  0.00    +0.047 C 
ATOM      9  H   UNL     1      -6.165   9.059  -1.334  0.00  0.00    +0.152 HD
ENDROOT
BRANCH   1  14
ATOM     10  C   UNL     1      -3.135  12.230   3.402  0.00  0.00    +0.044 C 
ATOM     11  C   UNL     1      -3.342  11.401   2.161  0.00  0.00    -0.050 A 
ATOM     12  C   UNL     1      -4.590  11.342   1.569  0.00  0.00    +0.004 A 
ATOM     13  C   UNL     1      -4.780  10.582   0.430  0.00  0.00    +0.006 A 
ATOM     14  C   UNL     1      -3.722   9.881  -0.117  0.00  0.00    -0.015 A 
ATOM     15  C   UNL     1      -2.475   9.935   0.478  0.00  0.00    +0.006 A 
ATOM     16  C   UNL     1      -2.284  10.699   1.615  0.00  0.00    +0.004 A 
ENDBRANCH   1  14
BRANCH   4  17
ATOM     17  C   UNL     1      -3.266   5.397  -1.382  0.00  0.00    +0.140 C 
BRANCH  17  18
ATOM     18  C   UNL     1      -3.076   4.911   0.056  0.00  0.00    +0.148 C 
BRANCH  18  19
ATOM     19  N   UNL     1      -2.573   3.536   0.045  0.00  0.00    -0.273 N 
ATOM     20  C   UNL     1      -1.233   3.148   0.030  0.00  0.00    +0.090 A 
ATOM     21  C   UNL     1      -0.039   3.851   0.022  0.00  0.00    +0.030 A 
ATOM     22  C   UNL     1       1.161   3.167   0.007  0.00  0.00    +0.002 A 
ATOM     23  C   UNL     1       1.174   1.784   0.000  0.00  0.00    +0.004 A 
ATOM     24  C   UNL     1      -0.013   1.076   0.008  0.00  0.00    +0.048 A 
ATOM     25  C   UNL     1      -1.222   1.753   0.017  0.00  0.00    +0.157 A 
ATOM     26  O   UNL     1      -2.513   1.340   0.033  0.00  0.00    -0.407 OA
ATOM     27  C   UNL     1      -3.319   2.413   0.046  0.00  0.00    +0.421 A 
ATOM     28  O   UNL     1      -4.535   2.378   0.057  0.00  0.00    -0.223 OA
ENDBRANCH  18  19
ENDBRANCH  17  18
ENDBRANCH   4  17
TORSDOF 4
