REMARK  Name = ZINC04895655
REMARK  10 active torsions:
REMARK  status: ('A' for Active; 'I' for Inactive)
REMARK    1  A    between atoms: C_1  and  C_2
REMARK    2  A    between atoms: C_2  and  C_3
REMARK    3  A    between atoms: C_2  and  N_4
REMARK    4  A    between atoms: C_5  and  C_28
REMARK    5  A    between atoms: C_13  and  C_19
REMARK    6  A    between atoms: N_21  and  C_22
REMARK    7  A    between atoms: N_30  and  C_31
REMARK    8  A    between atoms: C_31  and  C_32
REMARK    9  A    between atoms: C_31  and  C_33
REMARK   10  A    between atoms: C_31  and  C_34
REMARK                            x       y       z     vdW  Elec       q    Type
REMARK                         _______ _______ _______ _____ _____    ______ ____
ROOT
ATOM      1  N   UNL     1       4.335   0.231  -3.686  0.00  0.00    -0.284 N 
ATOM      2  C   UNL     1       2.978  -0.303  -3.347  0.00  0.00    +0.199 C 
ATOM      3  C   UNL     1       3.301  -1.681  -2.859  0.00  0.00    +0.127 C 
ATOM      4  C   UNL     1       3.984  -1.681  -1.504  0.00  0.00    +0.009 C 
ATOM      5  C   UNL     1       4.194  -2.955  -1.208  0.00  0.00    +0.004 C 
ATOM      6  C   UNL     1       3.689  -3.735  -2.427  0.00  0.00    +0.155 C 
ATOM      7  O   UNL     1       2.558  -2.877  -2.874  0.00  0.00    -0.358 OA
ATOM      8  C   UNL     1       4.793  -3.415  -3.508  0.00  0.00    +0.122 C 
ATOM      9  C   UNL     1       4.373  -2.041  -3.965  0.00  0.00    +0.128 C 
ATOM     10  C   UNL     1       5.188  -0.813  -3.950  0.00  0.00    +0.224 C 
ATOM     11  O   UNL     1       6.385  -0.738  -4.136  0.00  0.00    -0.275 OA
ENDROOT
BRANCH   8  12
ATOM     12  C   UNL     1       6.166  -3.384  -2.885  0.00  0.00    +0.220 C 
ATOM     13  O   UNL     1       6.542  -2.392  -2.296  0.00  0.00    -0.275 OA
ATOM     14  N   UNL     1       6.975  -4.457  -2.984  0.00  0.00    -0.312 N 
ATOM     15  H   UNL     1       6.674  -5.250  -3.455  0.00  0.00    +0.149 HD
BRANCH  14  16
ATOM     16  C   UNL     1       8.309  -4.426  -2.379  0.00  0.00    +0.073 C 
ATOM     17  C   UNL     1       9.295  -3.777  -3.352  0.00  0.00    +0.022 C 
ATOM     18  C   UNL     1      10.688  -3.745  -2.720  0.00  0.00    +0.002 C 
ATOM     19  C   UNL     1      11.142  -5.173  -2.412  0.00  0.00    +0.000 C 
ATOM     20  C   UNL     1      10.155  -5.822  -1.439  0.00  0.00    +0.002 C 
ATOM     21  C   UNL     1       8.762  -5.855  -2.071  0.00  0.00    +0.022 C 
ENDBRANCH  14  16
ENDBRANCH   8  12
BRANCH   2  22
ATOM     22  C   UNL     1       2.334   0.517  -2.259  0.00  0.00    +0.237 C 
ATOM     23  O   UNL     1       2.995   1.315  -1.629  0.00  0.00    -0.274 OA
ATOM     24  N   UNL     1       1.023   0.362  -1.985  0.00  0.00    -0.309 N 
ATOM     25  H   UNL     1       0.494  -0.276  -2.489  0.00  0.00    +0.149 HD
BRANCH  24  26
ATOM     26  C   UNL     1       0.397   1.159  -0.927  0.00  0.00    +0.026 C 
ATOM     27  C   UNL     1       0.532   2.646  -1.261  0.00  0.00    +0.031 C 
ATOM     28  C   UNL     1       1.089   0.870   0.406  0.00  0.00    +0.031 C 
ATOM     29  C   UNL     1      -1.085   0.792  -0.823  0.00  0.00    +0.031 C 
ENDBRANCH  24  26
ENDBRANCH   2  22
BRANCH   1  31
ATOM     30  C   UNL     1       5.816   1.922  -2.724  0.00  0.00    +0.028 C 
ATOM     31  C   UNL     1       4.697   1.650  -3.731  0.00  0.00    +0.071 C 
ATOM     32  C   UNL     1       5.178   2.010  -5.138  0.00  0.00    +0.028 C 
ENDBRANCH   1  31
TORSDOF 5
