REMARK  Name = ZINC61856193
REMARK  5 active torsions:
REMARK  status: ('A' for Active; 'I' for Inactive)
REMARK    1  A    between atoms: C_1  and  C_2
REMARK    2  A    between atoms: C_4  and  C_18
REMARK    3  A    between atoms: N_5  and  C_7
REMARK    4  A    between atoms: C_10  and  C_14
REMARK    5  A    between atoms: N_15  and  O_16
REMARK                            x       y       z     vdW  Elec       q    Type
REMARK                         _______ _______ _______ _____ _____    ______ ____
ROOT
ATOM      1  C   UNL     1       0.161  -3.452   1.099  0.00  0.00    +0.067 A 
ATOM      2  C   UNL     1      -0.453  -4.559   0.524  0.00  0.00    +0.028 A 
ATOM      3  C   UNL     1      -0.379  -5.789   1.140  0.00  0.00    +0.015 A 
ATOM      4  C   UNL     1       0.315  -5.924   2.345  0.00  0.00    +0.036 A 
ATOM      5  C   UNL     1       0.930  -4.810   2.920  0.00  0.00    +0.053 A 
ATOM      6  C   UNL     1       0.856  -3.583   2.295  0.00  0.00    +0.048 A 
ATOM      7 CL   UNL     1       1.794  -4.972   4.418  0.00  0.00    -0.083 Cl
ENDROOT
BRANCH   1  12
ATOM      8  C   UNL     1       1.467   0.989  -0.676  0.00  0.00    +0.069 C 
ATOM      9  C   UNL     1       0.673  -0.238  -0.312  0.00  0.00    +0.079 A 
ATOM     10  C   UNL     1      -0.679  -0.456  -0.604  0.00  0.00    +0.085 A 
ATOM     11  C   UNL     1      -1.022  -1.670  -0.115  0.00  0.00    +0.060 A 
ATOM     12  N   UNL     1       0.082  -2.204   0.470  0.00  0.00    -0.235 N 
ATOM     13  N   UNL     1       1.130  -1.286   0.325  0.00  0.00    -0.170 NA
ATOM     14  C   UNL     1      -2.382  -2.313  -0.202  0.00  0.00    +0.067 C 
ATOM     15 CL   UNL     1      -1.731   0.640  -1.445  0.00  0.00    -0.080 Cl
ENDBRANCH   1  12
BRANCH   4  16
ATOM     16  C   UNL     1       0.396  -7.242   3.009  0.00  0.00    +0.164 C 
ATOM     17  N   UNL     1       1.043  -7.367   4.132  0.00  0.00    -0.071 NA
ATOM     18  N   UNL     1      -0.216  -8.345   2.437  0.00  0.00    -0.340 N 
ATOM     19  H   UNL     1      -0.698  -8.253   1.600  0.00  0.00    +0.144 HD
ATOM     20  H   UNL     1      -0.162  -9.210   2.873  0.00  0.00    +0.144 HD
BRANCH  17  21
ATOM     21  O   UNL     1       1.121  -8.629   4.768  0.00  0.00    -0.408 OA
ATOM     22  H   UNL     1       1.621  -8.622   5.595  0.00  0.00    +0.328 HD
ENDBRANCH  17  21
ENDBRANCH   4  16
TORSDOF 3
