REMARK  Name = ZINC32398018
REMARK  6 active torsions:
REMARK  status: ('A' for Active; 'I' for Inactive)
REMARK    1  A    between atoms: C_3  and  C_6
REMARK    2  A    between atoms: C_6  and  C_8
REMARK    3  A    between atoms: C_6  and  N_13
REMARK    4  A    between atoms: C_14  and  C_16
REMARK    5  A    between atoms: C_19  and  S_21
REMARK    6  A    between atoms: S_21  and  N_24
REMARK                            x       y       z     vdW  Elec       q    Type
REMARK                         _______ _______ _______ _____ _____    ______ ____
ROOT
ATOM      1  N   UNL     1       4.569   1.019  -0.924  0.00  0.00    -0.301 N 
ATOM      2  C   UNL     1       4.598   1.290  -2.244  0.00  0.00    +0.280 C 
ATOM      3  O   UNL     1       3.953   2.221  -2.688  0.00  0.00    -0.267 OA
ATOM      4  H   UNL     1       5.084   0.277  -0.570  0.00  0.00    +0.150 HD
ENDROOT
BRANCH   2   5
ATOM      5  C   UNL     1       5.408   0.464  -3.145  0.00  0.00    +0.192 A 
ATOM      6  C   UNL     1       5.530   0.631  -4.495  0.00  0.00    +0.057 A 
ATOM      7  C   UNL     1       6.397  -0.376  -4.949  0.00  0.00    +0.072 A 
ATOM      8  C   UNL     1       6.761  -1.104  -3.871  0.00  0.00    +0.259 A 
ATOM      9  O   UNL     1       6.167  -0.592  -2.785  0.00  0.00    -0.432 OA
BRANCH   8  10
ATOM     10  S   UNL     1       7.843  -2.495  -3.889  0.00  0.00    +0.094 S 
ATOM     11  O   UNL     1       7.526  -3.271  -2.741  0.00  0.00    -0.150 OA
ATOM     12  O   UNL     1       7.797  -3.028  -5.205  0.00  0.00    -0.150 OA
BRANCH  10  13
ATOM     13  N   UNL     1       9.380  -1.922  -3.663  0.00  0.00    -0.169 NA
ATOM     14  C   UNL     1      10.218  -1.531  -4.808  0.00  0.00    +0.137 C 
ATOM     15  C   UNL     1      10.778  -0.129  -4.541  0.00  0.00    +0.177 C 
ATOM     16  O   UNL     1      11.408  -0.111  -3.257  0.00  0.00    -0.377 OA
ATOM     17  C   UNL     1      10.521  -0.374  -2.167  0.00  0.00    +0.177 C 
ATOM     18  C   UNL     1       9.946  -1.783  -2.312  0.00  0.00    +0.137 C 
ENDBRANCH  10  13
ENDBRANCH   8  10
ENDBRANCH   2   5
BRANCH   1  19
ATOM     19  C   UNL     1       3.761   1.845  -0.024  0.00  0.00    +0.113 C 
BRANCH  19  22
ATOM     20  C   UNL     1      -0.016   1.351   0.009  0.00  0.00    +0.008 A 
ATOM     21  C   UNL     1       1.183   2.038   0.002  0.00  0.00    +0.013 A 
ATOM     22  C   UNL     1       2.343   1.336  -0.013  0.00  0.00    +0.010 A 
ATOM     23  S   UNL     1       1.754  -0.349  -0.017  0.00  0.00    -0.100 S 
ATOM     24  C   UNL     1       0.002  -0.004   0.002  0.00  0.00    +0.045 A 
ENDBRANCH  19  22
BRANCH  19  25
ATOM     25  C   UNL     1       4.339   1.775   1.390  0.00  0.00    +0.014 C 
ATOM     26  C   UNL     1       3.540   2.696   2.335  0.00  0.00    +0.006 C 
ATOM     27  C   UNL     1       4.611   3.289   3.284  0.00  0.00    +0.000 C 
ATOM     28  C   UNL     1       5.819   3.511   2.340  0.00  0.00    +0.000 C 
ATOM     29  C   UNL     1       5.788   2.293   1.394  0.00  0.00    +0.006 C 
ENDBRANCH  19  25
ENDBRANCH   1  19
TORSDOF 6
