REMARK  Name = ZINC28429644
REMARK  4 active torsions:
REMARK  status: ('A' for Active; 'I' for Inactive)
REMARK    1  A    between atoms: C_1  and  C_2
REMARK    2  A    between atoms: C_2  and  C_3
REMARK    3  A    between atoms: C_2  and  C_4
REMARK    4  A    between atoms: C_12  and  C_17
REMARK                            x       y       z     vdW  Elec       q    Type
REMARK                         _______ _______ _______ _____ _____    ______ ____
ROOT
ATOM      1  C   UNL     1      -6.304  -1.206   0.590  0.00  0.00    +0.155 A 
ATOM      2  N   UNL     1      -5.206  -1.908   0.860  0.00  0.00    -0.205 NA
ATOM      3  C   UNL     1      -4.175  -1.108   0.866  0.00  0.00    +0.196 A 
ATOM      4  N   UNL     1      -4.578   0.161   0.596  0.00  0.00    -0.210 N 
ATOM      5  N   UNL     1      -5.982   0.049   0.422  0.00  0.00    -0.149 NA
ATOM      6  C   UNL     1      -3.620   1.161   0.559  0.00  0.00    +0.058 A 
ATOM      7  C   UNL     1      -2.343   0.822   0.791  0.00  0.00    +0.032 A 
ATOM      8  S   UNL     1      -2.419  -0.926   1.077  0.00  0.00    -0.051 S 
ATOM      9  C   UNL     1      -1.154   1.726   0.801  0.00  0.00    +0.096 C 
ATOM     10  N   UNL     1      -1.541   3.004   0.173  0.00  0.00    -0.308 NA
ATOM     11  C   UNL     1      -2.805   3.494   0.738  0.00  0.00    +0.087 C 
ATOM     12  C   UNL     1      -3.969   2.619   0.266  0.00  0.00    +0.071 C 
ATOM     13  H   UNL     1      -0.755   3.753   0.352  0.00  0.00    +0.123 HD
ENDROOT
BRANCH   1  15
ATOM     14  C   UNL     1      -7.747  -2.825  -0.612  0.00  0.00    +0.015 C 
ATOM     15  C   UNL     1      -7.699  -1.769   0.494  0.00  0.00    +0.053 C 
ATOM     16  C   UNL     1      -8.082  -2.412   1.829  0.00  0.00    +0.015 C 
ENDBRANCH   1  15
BRANCH   9  17
ATOM     17  C   UNL     1      -0.013   1.086   0.008  0.00  0.00    +0.011 C 
ATOM     18  C   UNL     1       0.460   1.806  -1.256  0.00  0.00    +0.006 C 
ATOM     19  C   UNL     1       1.335   1.811  -0.001  0.00  0.00    +0.006 C 
ENDBRANCH   9  17
TORSDOF 2
