REMARK  Name = ZINC63339989
REMARK  6 active torsions:
REMARK  status: ('A' for Active; 'I' for Inactive)
REMARK    1  A    between atoms: C_1  and  C_2
REMARK    2  A    between atoms: N_4  and  C_5
REMARK    3  A    between atoms: C_8  and  N_11
REMARK    4  A    between atoms: C_15  and  N_19
REMARK    5  A    between atoms: C_25  and  O_33
REMARK    6  A    between atoms: O_33  and  C_34
REMARK                            x       y       z     vdW  Elec       q    Type
REMARK                         _______ _______ _______ _____ _____    ______ ____
ROOT
ATOM      1  N   UNL     1      -3.135  -8.288  -1.834  0.00  0.00    -0.209 N 
ATOM      2  C   UNL     1      -3.000  -7.217  -1.041  0.00  0.00    +0.228 C 
ATOM      3  O   UNL     1      -3.537  -6.144  -1.214  0.00  0.00    -0.275 OA
ATOM      4  C   UNL     1      -2.072  -7.560   0.104  0.00  0.00    +0.125 C 
ATOM      5  C   UNL     1      -1.690  -9.029  -0.167  0.00  0.00    +0.153 C 
ATOM      6  C   UNL     1      -2.447  -9.364  -1.434  0.00  0.00    +0.244 C 
ATOM      7  O   UNL     1      -2.431 -10.437  -1.998  0.00  0.00    -0.273 OA
ENDROOT
BRANCH   5   8
ATOM      8  N   UNL     1      -2.129  -9.890   0.939  0.00  0.00    -0.289 NA
ATOM      9  C   UNL     1      -1.529 -11.223   0.838  0.00  0.00    +0.089 C 
ATOM     10  C   UNL     1      -1.784 -12.021   2.130  0.00  0.00    +0.049 C 
ATOM     11  C   UNL     1      -3.263 -11.911   2.407  0.00  0.00    -0.036 C 
ATOM     12  C   UNL     1      -4.188 -12.816   2.688  0.00  0.00    +0.003 A 
ATOM     13  C   UNL     1      -4.103 -14.257   2.971  0.00  0.00    +0.055 A 
ATOM     14  C   UNL     1      -5.277 -14.906   3.198  0.00  0.00    +0.121 A 
ATOM     15  C   UNL     1      -6.534 -14.283   3.178  0.00  0.00    +0.047 A 
ATOM     16  C   UNL     1      -6.727 -12.961   2.940  0.00  0.00    +0.029 A 
ATOM     17  C   UNL     1      -5.528 -12.150   2.688  0.00  0.00    +0.043 A 
ATOM     18  N   UNL     1      -5.404 -10.876   2.462  0.00  0.00    -0.376 N 
ATOM     19  C   UNL     1      -3.979 -10.564   2.368  0.00  0.00    +0.120 C 
ATOM     20  C   UNL     1      -3.598  -9.918   1.034  0.00  0.00    +0.114 C 
ATOM     21  H   UNL     1      -6.132 -10.242   2.371  0.00  0.00    +0.160 HD
BRANCH  14  22
ATOM     22  O   UNL     1      -5.230 -16.238   3.462  0.00  0.00    -0.495 OA
ATOM     23  C   UNL     1      -6.476 -16.898   3.698  0.00  0.00    +0.277 C 
ENDBRANCH  14  22
ENDBRANCH   5   8
BRANCH   1  27
ATOM     24  C   UNL     1      -5.519  -8.275  -5.258  0.00  0.00    +0.033 A 
ATOM     25  C   UNL     1      -5.855  -9.085  -4.181  0.00  0.00    +0.025 A 
ATOM     26  C   UNL     1      -5.066  -9.089  -3.048  0.00  0.00    +0.026 A 
ATOM     27  C   UNL     1      -3.937  -8.284  -2.985  0.00  0.00    +0.044 A 
ATOM     28  C   UNL     1      -3.601  -7.474  -4.062  0.00  0.00    +0.026 A 
ATOM     29  C   UNL     1      -4.387  -7.474  -5.197  0.00  0.00    +0.025 A 
BRANCH  24  33
ATOM     30  C   UNL     1      -6.600  -8.228  -8.864  0.00  0.00    +0.109 C 
ATOM     31  C   UNL     1      -5.753  -8.131  -7.622  0.00  0.00    +0.214 C 
ATOM     32  O   UNL     1      -4.561  -7.927  -7.715  0.00  0.00    -0.276 OA
ATOM     33  N   UNL     1      -6.319  -8.271  -6.407  0.00  0.00    -0.286 N 
ATOM     34  H   UNL     1      -7.281  -8.369  -6.329  0.00  0.00    +0.155 HD
ENDBRANCH  24  33
ENDBRANCH   1  27
TORSDOF 4
