REMARK  Name = ZINC13358476
REMARK  5 active torsions:
REMARK  status: ('A' for Active; 'I' for Inactive)
REMARK    1  A    between atoms: C_5  and  S_6
REMARK    2  A    between atoms: S_6  and  N_9
REMARK    3  A    between atoms: C_12  and  C_15
REMARK    4  A    between atoms: C_15  and  C_16
REMARK    5  A    between atoms: C_21  and  N_62
REMARK                            x       y       z     vdW  Elec       q    Type
REMARK                         _______ _______ _______ _____ _____    ______ ____
ROOT
ATOM      1  C   UNL     1       3.111  -0.331  -2.246  0.00  0.00    +0.099 C 
ENDROOT
BRANCH   1   2
ATOM      2  C   UNL     1       4.510   0.209  -2.092  0.00  0.00    +0.216 C 
ATOM      3  O   UNL     1       4.785   0.922  -1.151  0.00  0.00    -0.276 OA
ATOM      4  N   UNL     1       5.456  -0.101  -3.001  0.00  0.00    -0.302 N 
ATOM      5  C   UNL     1       5.140  -0.970  -4.143  0.00  0.00    +0.106 C 
ATOM      6  C   UNL     1       5.550  -0.246  -5.435  0.00  0.00    +0.004 C 
ATOM      7  C   UNL     1       7.023   0.158  -5.341  0.00  0.00    -0.066 C 
ATOM      8  C   UNL     1       7.216   1.121  -4.168  0.00  0.00    +0.004 C 
ATOM      9  C   UNL     1       6.824   0.417  -2.865  0.00  0.00    +0.106 C 
BRANCH   7  15
ATOM     10  C   UNL     1       6.615   2.013  -6.841  0.00  0.00    -0.078 C 
ATOM     11  C   UNL     1       7.159   2.754  -8.065  0.00  0.00    -0.019 C 
ATOM     12  C   UNL     1       7.121   1.821  -9.279  0.00  0.00    -0.004 C 
ATOM     13  C   UNL     1       7.938   0.563  -8.971  0.00  0.00    -0.019 C 
ATOM     14  C   UNL     1       7.371  -0.114  -7.721  0.00  0.00    -0.078 C 
ATOM     15  N   UNL     1       7.458   0.827  -6.584  0.00  0.00    +0.382 N 
ATOM     16  H   UNL     1       8.434   1.129  -6.476  0.00  0.00    -0.081 HD
ENDBRANCH   7  15
ENDBRANCH   1   2
BRANCH   1  20
ATOM     17  N   UNL     1      -0.018   1.465   0.010  0.00  0.00    -0.176 NA
ATOM     18  C   UNL     1       1.261   2.189   0.002  0.00  0.00    +0.110 C 
ATOM     19  C   UNL     1       2.103   1.689  -1.177  0.00  0.00    +0.021 C 
ATOM     20  C   UNL     1       2.242   0.168  -1.090  0.00  0.00    +0.000 C 
ATOM     21  C   UNL     1       0.858  -0.479  -1.176  0.00  0.00    +0.021 C 
ATOM     22  C   UNL     1       0.002  -0.004   0.002  0.00  0.00    +0.110 C 
BRANCH  17  23
ATOM     23  S   UNL     1      -1.454   2.289   0.021  0.00  0.00    +0.067 S 
ATOM     24  O   UNL     1      -1.189   3.575  -0.524  0.00  0.00    -0.152 OA
ATOM     25  O   UNL     1      -2.429   1.414  -0.530  0.00  0.00    -0.152 OA
BRANCH  23  30
ATOM     26  C   UNL     1      -1.589   3.574   2.527  0.00  0.00    +0.038 A 
ATOM     27  C   UNL     1      -2.052   3.559   3.830  0.00  0.00    +0.030 A 
ATOM     28  C   UNL     1      -2.802   2.509   4.249  0.00  0.00    +0.080 A 
ATOM     29  S   UNL     1      -2.878   1.500   2.779  0.00  0.00    -0.057 S 
ATOM     30  C   UNL     1      -1.898   2.539   1.708  0.00  0.00    +0.144 A 
ATOM     31 CL   UNL     1      -3.510   2.225   5.808  0.00  0.00    -0.076 Cl
ENDBRANCH  23  30
ENDBRANCH  17  23
ENDBRANCH   1  20
TORSDOF 5
