REMARK  Name = ZINC41393917
REMARK  4 active torsions:
REMARK  status: ('A' for Active; 'I' for Inactive)
REMARK    1  A    between atoms: C_1  and  C_2
REMARK    2  A    between atoms: C_2  and  N_3
REMARK    3  A    between atoms: C_5  and  N_8
REMARK    4  A    between atoms: N_22  and  C_23
REMARK                            x       y       z     vdW  Elec       q    Type
REMARK                         _______ _______ _______ _____ _____    ______ ____
ROOT
ATOM      1  N   UNL     1       3.127  -2.319  -3.024  0.00  0.00    -0.282 N 
ATOM      2  C   UNL     1       3.355  -2.414  -4.375  0.00  0.00    +0.203 A 
ATOM      3  N   UNL     1       2.594  -1.739  -5.211  0.00  0.00    -0.208 NA
ATOM      4  C   UNL     1       2.792  -1.813  -6.522  0.00  0.00    +0.117 A 
ATOM      5  C   UNL     1       3.811  -2.603  -7.080  0.00  0.00    +0.076 A 
ATOM      6  C   UNL     1       3.906  -2.584  -8.541  0.00  0.00    -0.023 A 
ATOM      7  C   UNL     1       3.016  -1.817  -9.203  0.00  0.00    -0.004 A 
ATOM      8  S   UNL     1       2.012  -1.084  -7.940  0.00  0.00    -0.073 S 
ATOM      9  C   UNL     1       2.906  -1.628 -10.685  0.00  0.00    +0.043 C 
ATOM     10  C   UNL     1       4.194  -2.150 -11.338  0.00  0.00    +0.005 C 
ATOM     11  C   UNL     1       4.515  -3.530 -10.757  0.00  0.00    +0.005 C 
ATOM     12  C   UNL     1       4.958  -3.389  -9.300  0.00  0.00    +0.037 C 
ATOM     13  C   UNL     1       4.622  -3.324  -6.148  0.00  0.00    +0.264 A 
ATOM     14  O   UNL     1       5.531  -4.035  -6.541  0.00  0.00    -0.267 OA
ATOM     15  N   UNL     1       4.371  -3.201  -4.832  0.00  0.00    -0.283 N 
ATOM     16  C   UNL     1       5.202  -3.932  -3.871  0.00  0.00    +0.155 C 
ATOM     17  H   UNL     1       3.686  -2.810  -2.402  0.00  0.00    +0.155 HD
ENDROOT
BRANCH   1  20
ATOM     18  N   UNL     1       0.688  -0.476  -1.203  0.00  0.00    -0.270 N 
ATOM     19  C   UNL     1       1.747  -1.327  -1.240  0.00  0.00    +0.131 A 
ATOM     20  C   UNL     1       2.081  -1.510  -2.542  0.00  0.00    +0.071 A 
ATOM     21  C   UNL     1       1.199  -0.748  -3.323  0.00  0.00    +0.157 A 
ATOM     22  N   UNL     1       0.364  -0.137  -2.523  0.00  0.00    -0.178 NA
BRANCH  18  24
ATOM     23  C   UNL     1      -0.019   1.526   0.010  0.00  0.00    +0.029 C 
ATOM     24  C   UNL     1       0.002  -0.004   0.002  0.00  0.00    +0.140 C 
ENDBRANCH  18  24
ENDBRANCH   1  20
TORSDOF 2
