REMARK  Name = ZINC35056599
REMARK  6 active torsions:
REMARK  status: ('A' for Active; 'I' for Inactive)
REMARK    1  A    between atoms: C_1  and  C_2
REMARK    2  A    between atoms: N_4  and  C_5
REMARK    3  A    between atoms: C_7  and  O_35
REMARK    4  A    between atoms: C_15  and  C_18
REMARK    5  A    between atoms: C_25  and  O_27
REMARK    6  A    between atoms: O_27  and  C_28
REMARK                            x       y       z     vdW  Elec       q    Type
REMARK                         _______ _______ _______ _____ _____    ______ ____
ROOT
ATOM      1  C   UNL     1       1.476  -2.135  -1.162  0.00  0.00    +0.173 C 
ATOM      2  C   UNL     1       0.427  -2.573  -2.188  0.00  0.00    +0.172 C 
ATOM      3  C   UNL     1       0.814  -2.036  -3.567  0.00  0.00    +0.183 C 
ATOM      4  C   UNL     1       2.223  -2.515  -3.928  0.00  0.00    +0.179 C 
ATOM      5  C   UNL     1       2.634  -1.867  -5.257  0.00  0.00    +0.197 C 
ATOM      6  O   UNL     1       2.505  -0.447  -5.136  0.00  0.00    -0.345 OA
ATOM      7  C   UNL     1       1.187  -0.013  -4.792  0.00  0.00    +0.282 C 
ATOM      8  O   UNL     1       0.796  -0.607  -3.551  0.00  0.00    -0.339 OA
ATOM      9  O   UNL     1       3.138  -2.126  -2.901  0.00  0.00    -0.332 OA
ATOM     10  C   UNL     1       2.853  -2.633  -1.611  0.00  0.00    +0.331 C 
ENDROOT
BRANCH   7  11
ATOM     11  C   UNL     1       1.171   1.488  -4.658  0.00  0.00    +0.008 A 
ATOM     12  C   UNL     1       0.314   2.092  -3.757  0.00  0.00    +0.008 A 
ATOM     13  C   UNL     1       0.299   3.469  -3.634  0.00  0.00    +0.000 A 
ATOM     14  C   UNL     1       1.142   4.241  -4.411  0.00  0.00    +0.000 A 
ATOM     15  C   UNL     1       2.000   3.637  -5.310  0.00  0.00    +0.000 A 
ATOM     16  C   UNL     1       2.018   2.260  -5.431  0.00  0.00    +0.008 A 
ENDBRANCH   7  11
BRANCH   1  20
ATOM     17  C   UNL     1       0.574   1.462  -0.221  0.00  0.00    +0.109 C 
ATOM     18  C   UNL     1       0.635  -0.043  -0.238  0.00  0.00    +0.210 C 
ATOM     19  O   UNL     1      -0.085  -0.688   0.495  0.00  0.00    -0.276 OA
ATOM     20  N   UNL     1       1.490  -0.673  -1.068  0.00  0.00    -0.304 N 
ATOM     21  H   UNL     1       2.114  -0.159  -1.603  0.00  0.00    +0.149 HD
ENDBRANCH   1  20
BRANCH   2  22
ATOM     22  O   UNL     1       0.367  -4.000  -2.230  0.00  0.00    -0.387 OA
ATOM     23  H   UNL     1       0.129  -4.409  -1.387  0.00  0.00    +0.210 HD
ENDBRANCH   2  22
BRANCH  10  24
ATOM     24  O   UNL     1       2.850  -4.061  -1.663  0.00  0.00    -0.460 OA
BRANCH  24  25
ATOM     25  C   UNL     1       4.051  -4.674  -1.841  0.00  0.00    +0.142 A 
ATOM     26  C   UNL     1       5.207  -3.917  -1.957  0.00  0.00    +0.047 A 
ATOM     27  C   UNL     1       6.426  -4.542  -2.137  0.00  0.00    +0.004 A 
ATOM     28  C   UNL     1       6.494  -5.922  -2.202  0.00  0.00    +0.002 A 
ATOM     29  C   UNL     1       5.343  -6.679  -2.087  0.00  0.00    +0.023 A 
ATOM     30  C   UNL     1       4.122  -6.059  -1.901  0.00  0.00    +0.083 A 
ATOM     31 CL   UNL     1       2.678  -7.010  -1.750  0.00  0.00    -0.080 Cl
ENDBRANCH  24  25
ENDBRANCH  10  24
TORSDOF 5
