REMARK  Name = ZINC65586967
REMARK  4 active torsions:
REMARK  status: ('A' for Active; 'I' for Inactive)
REMARK    1  A    between atoms: C_4  and  O_7
REMARK    2  A    between atoms: O_7  and  C_8
REMARK    3  A    between atoms: C_8  and  C_9
REMARK    4  A    between atoms: N_12  and  C_15
REMARK                            x       y       z     vdW  Elec       q    Type
REMARK                         _______ _______ _______ _____ _____    ______ ____
ROOT
ATOM      1  C   UNL     1       4.923  -2.716   0.011  0.00  0.00    +0.030 C 
ATOM      2  C   UNL     1       5.486  -2.353  -1.365  0.00  0.00    +0.026 C 
ATOM      3  C   UNL     1       6.952  -2.790  -1.445  0.00  0.00    +0.107 C 
ATOM      4  N   UNL     1       7.038  -4.219  -1.115  0.00  0.00    -0.315 N 
ATOM      5  C   UNL     1       6.447  -4.691   0.145  0.00  0.00    +0.107 C 
ATOM      6  C   UNL     1       4.987  -4.232   0.207  0.00  0.00    +0.026 C 
ENDROOT
BRANCH   4   7
ATOM      7  C   UNL     1       7.663  -5.104  -1.974  0.00  0.00    +0.129 A 
ATOM      8  C   UNL     1       8.730  -4.678  -2.761  0.00  0.00    +0.114 A 
ATOM      9  C   UNL     1       9.341  -5.591  -3.618  0.00  0.00    +0.260 A 
ATOM     10  O   UNL     1      10.279  -5.248  -4.320  0.00  0.00    -0.267 OA
ATOM     11  N   UNL     1       8.882  -6.860  -3.662  0.00  0.00    -0.268 N 
ATOM     12  C   UNL     1       9.473  -7.760  -4.497  0.00  0.00    +0.096 A 
ATOM     13  C   UNL     1       9.034  -9.036  -4.561  0.00  0.00    +0.018 A 
ATOM     14  C   UNL     1       7.957  -9.452  -3.764  0.00  0.00    +0.005 A 
ATOM     15  C   UNL     1       7.359  -8.561  -2.925  0.00  0.00    +0.047 A 
ATOM     16  C   UNL     1       7.831  -7.236  -2.872  0.00  0.00    +0.142 A 
ATOM     17  N   UNL     1       7.249  -6.367  -2.048  0.00  0.00    -0.214 NA
ENDBRANCH   4   7
BRANCH   1  18
ATOM     18  C   UNL     1       3.469  -2.250   0.107  0.00  0.00    +0.232 C 
BRANCH  18  19
ATOM     19  O   UNL     1       3.421  -0.823   0.041  0.00  0.00    -0.492 OA
BRANCH  19  23
ATOM     20  C   UNL     1      -0.304   0.936   0.256  0.00  0.00    +0.000 A 
ATOM     21  C   UNL     1       0.825   1.724   0.126  0.00  0.00    +0.004 A 
ATOM     22  C   UNL     1       2.073   1.137   0.054  0.00  0.00    +0.045 A 
ATOM     23  C   UNL     1       2.194  -0.244   0.112  0.00  0.00    +0.121 A 
ATOM     24  C   UNL     1       1.060  -1.032   0.242  0.00  0.00    +0.045 A 
ATOM     25  C   UNL     1      -0.187  -0.440   0.314  0.00  0.00    +0.004 A 
ENDBRANCH  19  23
ENDBRANCH  18  19
ENDBRANCH   1  18
TORSDOF 4
