REMARK  Name = ZINC20412627
REMARK  12 active torsions:
REMARK  status: ('A' for Active; 'I' for Inactive)
REMARK    1  A    between atoms: C_1  and  C_2
REMARK    2  A    between atoms: C_2  and  N_3
REMARK    3  A    between atoms: N_3  and  C_4
REMARK    4  A    between atoms: N_3  and  C_6
REMARK    5  A    between atoms: C_4  and  C_5
REMARK    6  A    between atoms: C_6  and  C_7
REMARK    7  A    between atoms: C_8  and  O_28
REMARK    8  A    between atoms: C_15  and  C_18
REMARK    9  A    between atoms: C_21  and  O_26
REMARK   10  A    between atoms: C_22  and  O_24
REMARK   11  A    between atoms: O_24  and  C_25
REMARK   12  A    between atoms: O_26  and  C_27
REMARK                            x       y       z     vdW  Elec       q    Type
REMARK                         _______ _______ _______ _____ _____    ______ ____
ROOT
ATOM      1  C   UNL     1      -1.189   2.058   1.243  0.00  0.00    +0.020 A 
ATOM      2  C   UNL     1      -0.972   3.362   1.655  0.00  0.00    +0.122 A 
ATOM      3  C   UNL     1      -1.838   3.974   2.560  0.00  0.00    +0.046 A 
ATOM      4  C   UNL     1      -2.907   3.288   3.062  0.00  0.00    +0.019 A 
ATOM      5  C   UNL     1      -3.135   1.971   2.660  0.00  0.00    +0.065 A 
ATOM      6  C   UNL     1      -2.272   1.347   1.743  0.00  0.00    +0.143 A 
ATOM      7  O   UNL     1      -2.495   0.076   1.356  0.00  0.00    -0.462 OA
ATOM      8  C   UNL     1      -3.518  -0.658   1.801  0.00  0.00    +0.208 A 
ATOM      9  C   UNL     1      -4.428  -0.180   2.689  0.00  0.00    +0.064 A 
ATOM     10  C   UNL     1      -4.280   1.201   3.180  0.00  0.00    +0.200 A 
ATOM     11  O   UNL     1      -5.065   1.683   3.978  0.00  0.00    -0.286 OA
ENDROOT
BRANCH   9  12
ATOM     12  C   UNL     1      -5.548  -1.032   3.156  0.00  0.00    -0.008 A 
ATOM     13  C   UNL     1      -5.809  -1.156   4.520  0.00  0.00    +0.012 A 
ATOM     14  C   UNL     1      -6.853  -1.949   4.954  0.00  0.00    +0.050 A 
ATOM     15  C   UNL     1      -7.643  -2.624   4.036  0.00  0.00    +0.162 A 
ATOM     16  C   UNL     1      -7.386  -2.504   2.672  0.00  0.00    +0.162 A 
ATOM     17  C   UNL     1      -6.345  -1.706   2.232  0.00  0.00    +0.058 A 
BRANCH  16  18
ATOM     18  O   UNL     1      -8.162  -3.166   1.773  0.00  0.00    -0.491 OA
ATOM     19  C   UNL     1      -7.842  -2.997   0.391  0.00  0.00    +0.277 C 
ENDBRANCH  16  18
BRANCH  15  20
ATOM     20  O   UNL     1      -8.670  -3.403   4.467  0.00  0.00    -0.491 OA
ATOM     21  C   UNL     1      -8.877  -3.481   5.879  0.00  0.00    +0.277 C 
ENDBRANCH  15  20
ENDBRANCH   9  12
BRANCH   2  22
ATOM     22  O   UNL     1       0.090   4.053   1.169  0.00  0.00    -0.506 OA
ATOM     23  H   UNL     1       0.268   5.089   1.494  0.00  0.00    +0.292 HD
ENDBRANCH   2  22
BRANCH   1  24
ATOM     24  C   UNL     1      -0.250   1.411   0.258  0.00  0.00    -0.036 C 
BRANCH  24  25
ATOM     25  N   UNL     1      -0.728   1.657  -1.109  0.00  0.00    +0.382 N 
ATOM     26  H   UNL     1      -0.893   2.738  -1.220  0.00  0.00    -0.081 HD
BRANCH  25  28
ATOM     27  C   UNL     1       1.399   2.290  -2.145  0.00  0.00    -0.017 C 
ATOM     28  C   UNL     1       0.278   1.250  -2.099  0.00  0.00    -0.082 C 
ENDBRANCH  25  28
BRANCH  25  29
ATOM     29  C   UNL     1      -2.008   0.977  -1.349  0.00  0.00    -0.082 C 
ATOM     30  C   UNL     1      -2.654   1.540  -2.616  0.00  0.00    -0.017 C 
ENDBRANCH  25  29
ENDBRANCH  24  25
ENDBRANCH   1  24
TORSDOF 8
