REMARK  Name = ZINC40010465
REMARK  10 active torsions:
REMARK  status: ('A' for Active; 'I' for Inactive)
REMARK    1  A    between atoms: C_1  and  C_2
REMARK    2  A    between atoms: C_7  and  C_15
REMARK    3  A    between atoms: C_13  and  C_14
REMARK    4  A    between atoms: C_19  and  O_33
REMARK    5  A    between atoms: C_20  and  O_31
REMARK    6  A    between atoms: C_26  and  C_28
REMARK    7  A    between atoms: C_28  and  C_29
REMARK    8  A    between atoms: C_28  and  C_30
REMARK    9  A    between atoms: O_31  and  C_32
REMARK   10  A    between atoms: O_33  and  C_34
REMARK                            x       y       z     vdW  Elec       q    Type
REMARK                         _______ _______ _______ _____ _____    ______ ____
ROOT
ATOM      1  C   UNL     1       1.256  -5.360   1.455  0.00  0.00    +0.122 C 
ATOM      2  C   UNL     1       0.741  -6.228   0.334  0.00  0.00    -0.019 A 
ATOM      3  C   UNL     1       0.913  -5.772  -0.967  0.00  0.00    +0.055 A 
ATOM      4  C   UNL     1       0.454  -6.515  -2.039  0.00  0.00    +0.162 A 
ATOM      5  C   UNL     1      -0.186  -7.729  -1.808  0.00  0.00    +0.162 A 
ATOM      6  C   UNL     1      -0.351  -8.181  -0.512  0.00  0.00    +0.053 A 
ATOM      7  C   UNL     1       0.117  -7.433   0.563  0.00  0.00    -0.037 A 
ATOM      8  C   UNL     1      -0.076  -8.004   1.944  0.00  0.00    +0.054 C 
ATOM      9  C   UNL     1       0.032  -6.910   3.004  0.00  0.00    +0.113 C 
ATOM     10  N   UNL     1       1.235  -6.114   2.712  0.00  0.00    -0.293 N 
ATOM     11  C   UNL     1       2.276  -6.080   3.567  0.00  0.00    +0.219 C 
ATOM     12  O   UNL     1       3.293  -5.494   3.262  0.00  0.00    -0.275 OA
ENDROOT
BRANCH   1  19
ATOM     13  C   UNL     1       2.195   2.005   0.415  0.00  0.00    +0.044 C 
ATOM     14  C   UNL     1       1.723   0.574   0.393  0.00  0.00    -0.046 A 
ATOM     15  C   UNL     1       1.357   0.009  -0.829  0.00  0.00    +0.004 A 
ATOM     16  C   UNL     1       0.924  -1.275  -0.913  0.00  0.00    +0.010 A 
ATOM     17  C   UNL     1       0.845  -2.075   0.310  0.00  0.00    -0.007 A 
ATOM     18  C   UNL     1       0.417  -3.368   0.274  0.00  0.00    -0.003 C 
ATOM     19  C   UNL     1       0.368  -4.121   1.589  0.00  0.00    +0.123 C 
ATOM     20  C   UNL     1       0.797  -3.376   2.833  0.00  0.00    +0.226 C 
ATOM     21  O   UNL     1       0.777  -3.932   3.915  0.00  0.00    -0.275 OA
ATOM     22  N   UNL     1       1.194  -2.118   2.740  0.00  0.00    -0.284 N 
ATOM     23  C   UNL     1       1.239  -1.453   1.586  0.00  0.00    +0.043 A 
ATOM     24  C   UNL     1       1.677  -0.116   1.562  0.00  0.00    -0.026 A 
ATOM     25  C   UNL     1       2.094   0.557   2.844  0.00  0.00    +0.046 C 
ATOM     26  H   UNL     1       1.465  -1.658   3.550  0.00  0.00    +0.155 HD
ENDBRANCH   1  19
BRANCH  11  27
ATOM     27  C   UNL     1       2.176  -6.771   4.903  0.00  0.00    +0.069 C 
ATOM     28  C   UNL     1       2.574  -8.241   4.748  0.00  0.00    +0.017 C 
ATOM     29  C   UNL     1       3.117  -6.091   5.900  0.00  0.00    +0.017 C 
ENDBRANCH  11  27
BRANCH   5  30
ATOM     30  O   UNL     1      -0.648  -8.468  -2.853  0.00  0.00    -0.491 OA
ATOM     31  C   UNL     1      -1.294  -9.703  -2.538  0.00  0.00    +0.277 C 
ENDBRANCH   5  30
BRANCH   4  32
ATOM     32  O   UNL     1       0.626  -6.063  -3.309  0.00  0.00    -0.491 OA
ATOM     33  C   UNL     1       1.292  -4.808  -3.467  0.00  0.00    +0.277 C 
ENDBRANCH   4  32
TORSDOF 4
