REMARK  Name = ZINC01973684
REMARK  11 active torsions:
REMARK  status: ('A' for Active; 'I' for Inactive)
REMARK    1  A    between atoms: C_1  and  C_2
REMARK    2  A    between atoms: C_7  and  O_8
REMARK    3  A    between atoms: O_8  and  C_9
REMARK    4  A    between atoms: C_9  and  C_11
REMARK    5  A    between atoms: C_9  and  C_12
REMARK    6  A    between atoms: N_14  and  C_15
REMARK    7  A    between atoms: C_16  and  C_27
REMARK    8  A    between atoms: C_17  and  C_21
REMARK    9  A    between atoms: C_18  and  C_20
REMARK   10  A    between atoms: C_27  and  O_29
REMARK   11  A    between atoms: O_29  and  C_30
REMARK                            x       y       z     vdW  Elec       q    Type
REMARK                         _______ _______ _______ _____ _____    ______ ____
ROOT
ATOM      1  C   UNL     1       0.624  -0.454   4.239  0.00  0.00    +0.087 A 
ATOM      2  C   UNL     1       0.708  -1.706   4.834  0.00  0.00    +0.095 A 
ATOM      3  C   UNL     1       1.551  -1.815   6.009  0.00  0.00    +0.008 A 
ATOM      4  C   UNL     1       2.171  -0.680   6.423  0.00  0.00    -0.003 A 
ATOM      5  S   UNL     1       1.635   0.535   5.237  0.00  0.00    -0.077 S 
ATOM      6  C   UNL     1       3.091  -0.495   7.602  0.00  0.00    +0.052 C 
ENDROOT
BRANCH   3   7
ATOM      7  C   UNL     1       1.722  -3.101   6.726  0.00  0.00    -0.016 A 
ATOM      8  C   UNL     1       2.348  -4.176   6.096  0.00  0.00    +0.008 A 
ATOM      9  C   UNL     1       2.510  -5.369   6.770  0.00  0.00    +0.001 A 
ATOM     10  C   UNL     1       2.043  -5.503   8.066  0.00  0.00    +0.000 A 
ATOM     11  C   UNL     1       1.417  -4.441   8.695  0.00  0.00    +0.001 A 
ATOM     12  C   UNL     1       1.254  -3.242   8.032  0.00  0.00    +0.008 A 
ENDBRANCH   3   7
BRANCH   1  15
ATOM     13  C   UNL     1      -0.065   1.192   2.683  0.00  0.00    +0.258 C 
ATOM     14  O   UNL     1       0.601   2.016   3.275  0.00  0.00    -0.271 OA
ATOM     15  N   UNL     1      -0.100  -0.083   3.117  0.00  0.00    -0.276 N 
ATOM     16  H   UNL     1      -0.703  -0.830   2.580  0.00  0.00    +0.155 HD
BRANCH  13  17
ATOM     17  C   UNL     1      -0.852   1.595   1.464  0.00  0.00    +0.256 C 
ATOM     18  C   UNL     1      -0.294   0.874   0.235  0.00  0.00    +0.062 C 
BRANCH  17  19
ATOM     19  O   UNL     1      -0.748   3.008   1.275  0.00  0.00    -0.480 OA
BRANCH  19  26
ATOM     20  C   UNL     1      -0.678   5.825   1.086  0.00  0.00    +0.047 C 
ATOM     21  C   UNL     1      -1.774   4.996   0.467  0.00  0.00    -0.007 A 
ATOM     22  C   UNL     1      -2.798   5.612  -0.227  0.00  0.00    +0.027 A 
ATOM     23  C   UNL     1      -3.804   4.851  -0.796  0.00  0.00    +0.041 A 
ATOM     24  C   UNL     1      -3.787   3.473  -0.672  0.00  0.00    +0.023 A 
ATOM     25  C   UNL     1      -2.762   2.854   0.018  0.00  0.00    +0.047 A 
ATOM     26  C   UNL     1      -1.755   3.615   0.593  0.00  0.00    +0.125 A 
ATOM     27 CL   UNL     1      -5.090   5.627  -1.668  0.00  0.00    -0.084 Cl
ENDBRANCH  19  26
ENDBRANCH  17  19
ENDBRANCH  13  17
ENDBRANCH   1  15
BRANCH   2  28
ATOM     28  C   UNL     1      -0.016  -2.859   4.299  0.00  0.00    +0.342 C 
ATOM     29  O   UNL     1       0.509  -3.574   3.466  0.00  0.00    -0.245 OA
BRANCH  28  30
ATOM     30  O   UNL     1      -1.266  -3.130   4.728  0.00  0.00    -0.464 OA
ATOM     31  C   UNL     1      -1.923  -4.290   4.154  0.00  0.00    +0.280 C 
ENDBRANCH  28  30
ENDBRANCH   2  28
TORSDOF 7
