REMARK  Name = ZINC01113627
REMARK  3 active torsions:
REMARK  status: ('A' for Active; 'I' for Inactive)
REMARK    1  A    between atoms: C_3  and  N_20
REMARK    2  A    between atoms: C_6  and  C_7
REMARK    3  A    between atoms: N_9  and  C_10
REMARK                            x       y       z     vdW  Elec       q    Type
REMARK                         _______ _______ _______ _____ _____    ______ ____
ROOT
ATOM      1  C   UNL     1       0.061  -4.252  -0.014  0.00  0.00    +0.248 C 
ATOM      2  O   UNL     1       1.123  -4.845  -0.031  0.00  0.00    -0.270 OA
ATOM      3  N   UNL     1      -1.096  -4.942  -0.013  0.00  0.00    -0.280 N 
ATOM      4  H   UNL     1      -1.941  -4.472   0.067  0.00  0.00    +0.155 HD
ENDROOT
BRANCH   3   5
ATOM      5  C   UNL     1      -1.080  -6.337  -0.126  0.00  0.00    +0.054 A 
ATOM      6  C   UNL     1      -0.051  -7.070   0.451  0.00  0.00    +0.046 A 
ATOM      7  C   UNL     1      -0.037  -8.447   0.338  0.00  0.00    +0.061 A 
ATOM      8  C   UNL     1      -1.048  -9.097  -0.350  0.00  0.00    +0.061 A 
ATOM      9  C   UNL     1      -2.074  -8.369  -0.926  0.00  0.00    +0.043 A 
ATOM     10  C   UNL     1      -2.096  -6.992  -0.811  0.00  0.00    +0.064 A 
ATOM     11 CL   UNL     1      -3.388  -6.080  -1.528  0.00  0.00    -0.082 Cl
ATOM     12 CL   UNL     1      -1.028 -10.827  -0.491  0.00  0.00    -0.082 Cl
ATOM     13 CL   UNL     1       1.249  -9.364   1.059  0.00  0.00    -0.082 Cl
ENDBRANCH   3   5
BRANCH   1  19
ATOM     14  C   UNL     1       1.238  -2.057   0.004  0.00  0.00    +0.015 A 
ATOM     15  C   UNL     1       1.213  -0.677   0.021  0.00  0.00    +0.035 A 
ATOM     16  C   UNL     1       0.004  -0.005   0.041  0.00  0.00    +0.144 A 
ATOM     17  C   UNL     1      -1.188  -0.710   0.047  0.00  0.00    +0.072 A 
ATOM     18  C   UNL     1      -1.176  -2.091   0.025  0.00  0.00    +0.035 A 
ATOM     19  C   UNL     1       0.041  -2.775   0.005  0.00  0.00    +0.039 A 
ATOM     20 CL   UNL     1      -2.699   0.143   0.079  0.00  0.00    -0.081 Cl
BRANCH  16  21
ATOM     21  N   UNL     1      -0.015   1.475   0.060  0.00  0.00    +0.058 N 
ATOM     22  O   UNL     1       1.032   2.098   0.059  0.00  0.00    -0.126 OA
ATOM     23  O   UNL     1      -1.078   2.070   0.072  0.00  0.00    -0.126 OA
ENDBRANCH  16  21
ENDBRANCH   1  19
TORSDOF 3
