REMARK  Name = ZINC27534197
REMARK  1 active torsions:
REMARK  status: ('A' for Active; 'I' for Inactive)
REMARK    1  A    between atoms: N_19  and  C_22
REMARK                            x       y       z     vdW  Elec       q    Type
REMARK                         _______ _______ _______ _____ _____    ______ ____
ROOT
ATOM      1  C   UNL     1      -0.719   2.389  -3.468  0.00  0.00    +0.000 A 
ATOM      2  C   UNL     1      -2.098   2.501  -3.453  0.00  0.00    +0.001 A 
ATOM      3  C   UNL     1      -2.809   2.155  -2.321  0.00  0.00    +0.010 A 
ATOM      4  C   UNL     1      -2.131   1.692  -1.196  0.00  0.00    +0.002 A 
ATOM      5  C   UNL     1      -0.738   1.583  -1.215  0.00  0.00    -0.037 A 
ATOM      6  C   UNL     1      -0.040   1.931  -2.352  0.00  0.00    +0.004 A 
ATOM      7  C   UNL     1      -0.013   1.086   0.008  0.00  0.00    +0.047 C 
ATOM      8  C   UNL     1      -0.724   1.576   1.267  0.00  0.00    +0.007 C 
ATOM      9  C   UNL     1      -0.520   3.091   1.425  0.00  0.00    +0.012 C 
ATOM     10  C   UNL     1       0.227   3.297   2.760  0.00  0.00    +0.001 C 
ATOM     11  C   UNL     1       0.944   1.946   3.007  0.00  0.00    +0.001 C 
ATOM     12  C   UNL     1      -0.095   0.911   2.507  0.00  0.00    +0.012 C 
ATOM     13  C   UNL     1      -2.188   1.258   1.215  0.00  0.00    +0.048 A 
ATOM     14  C   UNL     1      -2.861   1.307   0.028  0.00  0.00    +0.060 A 
ATOM     15  N   UNL     1      -4.200   1.000  -0.010  0.00  0.00    -0.307 N 
ATOM     16  H   UNL     1      -4.745   1.034  -0.965  0.00  0.00    +0.170 HD
ATOM     17  C   UNL     1      -4.848   0.658   1.120  0.00  0.00    +0.330 A 
ATOM     18  O   UNL     1      -6.033   0.388   1.071  0.00  0.00    -0.246 OA
ATOM     19  N   UNL     1      -4.206   0.609   2.301  0.00  0.00    -0.258 N 
ATOM     20  C   UNL     1      -2.892   0.900   2.383  0.00  0.00    +0.261 A 
ATOM     21  O   UNL     1      -2.317   0.853   3.457  0.00  0.00    -0.267 OA
ENDROOT
BRANCH  19  22
ATOM     22  C   UNL     1      -4.942   0.236   3.511  0.00  0.00    +0.095 C 
ATOM     23  C   UNL     1      -5.577  -1.159   3.334  0.00  0.00    +0.025 C 
ATOM     24  C   UNL     1      -6.944  -1.048   4.056  0.00  0.00    +0.002 C 
ATOM     25  C   UNL     1      -7.400   0.391   3.706  0.00  0.00    +0.002 C 
ATOM     26  C   UNL     1      -6.100   1.221   3.748  0.00  0.00    +0.025 C 
ENDBRANCH  19  22
TORSDOF 1
