REMARK  Name = ZINC04514246
REMARK  6 active torsions:
REMARK  status: ('A' for Active; 'I' for Inactive)
REMARK    1  A    between atoms: C_1  and  C_2
REMARK    2  A    between atoms: C_2  and  C_3
REMARK    3  A    between atoms: C_3  and  C_22
REMARK    4  A    between atoms: N_6  and  C_10
REMARK    5  A    between atoms: C_10  and  C_11
REMARK    6  A    between atoms: N_13  and  C_14
REMARK                            x       y       z     vdW  Elec       q    Type
REMARK                         _______ _______ _______ _____ _____    ______ ____
ROOT
ATOM      1  C   UNL     1       4.112   7.776  -1.086  0.00  0.00    +0.138 C 
ATOM      2  C   UNL     1       4.372   6.335  -1.480  0.00  0.00    +0.251 C 
ATOM      3  O   UNL     1       4.393   5.875  -2.602  0.00  0.00    -0.272 OA
ATOM      4  N   UNL     1       4.574   5.672  -0.325  0.00  0.00    -0.215 N 
ATOM      5  C   UNL     1       4.485   6.486   0.734  0.00  0.00    +0.310 C 
ATOM      6  O   UNL     1       4.633   6.118   1.883  0.00  0.00    -0.252 OA
ATOM      7  N   UNL     1       4.214   7.756   0.384  0.00  0.00    -0.281 N 
ATOM      8  H   UNL     1       4.106   8.512   0.982  0.00  0.00    +0.152 HD
ENDROOT
BRANCH   1   9
ATOM      9  C   UNL     1       2.734   8.207  -1.516  0.00  0.00    -0.015 A 
ATOM     10  C   UNL     1       2.562   8.871  -2.717  0.00  0.00    +0.009 A 
ATOM     11  C   UNL     1       1.297   9.262  -3.115  0.00  0.00    +0.039 A 
ATOM     12  C   UNL     1       0.205   8.999  -2.306  0.00  0.00    +0.123 A 
ATOM     13  C   UNL     1       0.380   8.339  -1.101  0.00  0.00    +0.039 A 
ATOM     14  C   UNL     1       1.644   7.943  -0.708  0.00  0.00    +0.009 A 
ATOM     15  F   UNL     1      -1.031   9.387  -2.691  0.00  0.00    -0.205 F 
ENDBRANCH   1   9
BRANCH   1  17
ATOM     16  C   UNL     1       6.567   8.200  -1.279  0.00  0.00    +0.007 C 
ATOM     17  C   UNL     1       5.178   8.694  -1.687  0.00  0.00    +0.037 C 
ENDBRANCH   1  17
BRANCH   4  18
ATOM     18  C   UNL     1       4.860   4.237  -0.238  0.00  0.00    +0.214 C 
BRANCH  18  19
ATOM     19  C   UNL     1       3.567   3.474  -0.116  0.00  0.00    +0.235 C 
ATOM     20  O   UNL     1       2.510   4.069  -0.102  0.00  0.00    -0.274 OA
ATOM     21  N   UNL     1       3.584   2.129  -0.021  0.00  0.00    -0.284 N 
ATOM     22  H   UNL     1       4.430   1.659   0.045  0.00  0.00    +0.155 HD
BRANCH  21  23
ATOM     23  C   UNL     1       2.382   1.411  -0.019  0.00  0.00    +0.036 A 
ATOM     24  C   UNL     1       2.272   0.241   0.721  0.00  0.00    +0.026 A 
ATOM     25  C   UNL     1       1.086  -0.466   0.723  0.00  0.00    +0.043 A 
ATOM     26  C   UNL     1       0.005  -0.009  -0.012  0.00  0.00    +0.159 A 
ATOM     27  C   UNL     1       0.111   1.159  -0.751  0.00  0.00    +0.160 A 
ATOM     28  C   UNL     1       1.298   1.869  -0.756  0.00  0.00    +0.064 A 
ATOM     29  F   UNL     1      -0.944   1.603  -1.468  0.00  0.00    -0.202 F 
ATOM     30  F   UNL     1      -1.155  -0.702  -0.008  0.00  0.00    -0.202 F 
ENDBRANCH  21  23
ENDBRANCH  18  19
ENDBRANCH   4  18
TORSDOF 5
