REMARK  Name = ZINC64109096
REMARK  6 active torsions:
REMARK  status: ('A' for Active; 'I' for Inactive)
REMARK    1  A    between atoms: C_1  and  C_2
REMARK    2  A    between atoms: C_9  and  C_11
REMARK    3  A    between atoms: N_13  and  C_14
REMARK    4  A    between atoms: C_14  and  C_15
REMARK    5  A    between atoms: C_15  and  C_17
REMARK    6  A    between atoms: C_15  and  C_24
REMARK                            x       y       z     vdW  Elec       q    Type
REMARK                         _______ _______ _______ _____ _____    ______ ____
ROOT
ATOM      1  C   UNL     1      -2.943  -8.115   4.114  0.00  0.00    +0.066 C 
ENDROOT
BRANCH   1   2
ATOM      2  C   UNL     1      -3.977  -9.178   4.381  0.00  0.00    -0.033 C 
ATOM      3  C   UNL     1      -4.528  -9.495   5.575  0.00  0.00    -0.000 A 
ATOM      4  C   UNL     1      -4.336  -8.966   6.931  0.00  0.00    +0.010 A 
ATOM      5  C   UNL     1      -5.046  -9.499   7.950  0.00  0.00    +0.001 A 
ATOM      6  C   UNL     1      -5.960 -10.542   7.745  0.00  0.00    +0.002 A 
ATOM      7  C   UNL     1      -6.191 -11.081   6.529  0.00  0.00    +0.026 A 
ATOM      8  C   UNL     1      -5.499 -10.597   5.385  0.00  0.00    +0.043 A 
ATOM      9  N   UNL     1      -5.546 -10.947   4.123  0.00  0.00    -0.380 N 
ATOM     10  C   UNL     1      -4.614 -10.103   3.368  0.00  0.00    +0.145 C 
ATOM     11  H   UNL     1      -6.107 -11.646   3.750  0.00  0.00    +0.160 HD
ENDBRANCH   1   2
BRANCH   1  12
ATOM     12  C   UNL     1      -1.711  -8.750   3.523  0.00  0.00    -0.020 A 
ATOM     13  C   UNL     1      -1.794  -9.438   2.326  0.00  0.00    +0.006 A 
ATOM     14  C   UNL     1      -0.663 -10.020   1.784  0.00  0.00    +0.000 A 
ATOM     15  C   UNL     1       0.550  -9.916   2.438  0.00  0.00    +0.001 A 
ATOM     16  C   UNL     1       0.634  -9.229   3.634  0.00  0.00    +0.020 A 
ATOM     17  C   UNL     1      -0.496  -8.641   4.175  0.00  0.00    +0.045 A 
ATOM     18 CL   UNL     1      -0.390  -7.772   5.674  0.00  0.00    -0.083 Cl
ENDBRANCH   1  12
BRANCH   1  19
ATOM     19  C   UNL     1      -3.510  -7.089   3.130  0.00  0.00    +0.117 C 
BRANCH  19  22
ATOM     20  C   UNL     1      -2.839  -4.968   2.137  0.00  0.00    +0.299 C 
ATOM     21  O   UNL     1      -3.891  -4.951   1.532  0.00  0.00    -0.265 OA
ATOM     22  N   UNL     1      -2.551  -5.993   2.962  0.00  0.00    -0.307 N 
ATOM     23  H   UNL     1      -1.710  -6.006   3.445  0.00  0.00    +0.149 HD
BRANCH  20  31
ATOM     24  C   UNL     1      -0.019   1.526   0.010  0.00  0.00    +0.055 C 
ATOM     25  C   UNL     1       0.002  -0.004   0.002  0.00  0.00    +0.208 C 
ATOM     26  C   UNL     1      -1.432  -0.578   0.091  0.00  0.00    +0.122 C 
ATOM     27  C   UNL     1      -1.246  -1.792   0.981  0.00  0.00    +0.144 C 
ATOM     28  N   UNL     1      -0.102  -1.695   1.565  0.00  0.00    -0.073 NA
ATOM     29  O   UNL     1       0.600  -0.519   1.209  0.00  0.00    -0.389 OA
ATOM     30  N   UNL     1      -2.149  -2.825   1.140  0.00  0.00    -0.263 N 
ATOM     31  C   UNL     1      -1.862  -3.851   1.965  0.00  0.00    +0.304 C 
ATOM     32  O   UNL     1      -0.810  -3.867   2.570  0.00  0.00    -0.265 OA
ATOM     33  H   UNL     1      -2.991  -2.812   0.657  0.00  0.00    +0.156 HD
ENDBRANCH  20  31
ENDBRANCH  19  22
ENDBRANCH   1  19
TORSDOF 5
