REMARK  Name = ZINC05468166
REMARK  3 active torsions:
REMARK  status: ('A' for Active; 'I' for Inactive)
REMARK    1  A    between atoms: C_1  and  C_2
REMARK    2  A    between atoms: C_2  and  C_3
REMARK    3  A    between atoms: N_9  and  C_10
REMARK                            x       y       z     vdW  Elec       q    Type
REMARK                         _______ _______ _______ _____ _____    ______ ____
ROOT
ATOM      1  C   UNL     1      -0.632  -0.583  -0.545  0.00  0.00    +0.140 C 
ATOM      2  C   UNL     1      -0.898  -2.065  -0.334  0.00  0.00    +0.232 C 
ATOM      3  O   UNL     1      -0.384  -2.689   0.569  0.00  0.00    -0.274 OA
ATOM      4  N   UNL     1      -1.726  -2.630  -1.196  0.00  0.00    -0.264 N 
ATOM      5  C   UNL     1      -2.315  -1.926  -2.227  0.00  0.00    +0.161 C 
ATOM      6  N   UNL     1      -3.146  -2.370  -3.140  0.00  0.00    -0.224 NA
ATOM      7  S   UNL     1      -1.681  -0.267  -2.025  0.00  0.00    -0.077 S 
ATOM      8  H   UNL     1      -1.926  -3.574  -1.101  0.00  0.00    +0.157 HD
ENDROOT
BRANCH   6   9
ATOM      9  C   UNL     1      -3.713  -1.499  -4.031  0.00  0.00    +0.086 A 
ATOM     10  C   UNL     1      -4.334  -0.334  -3.575  0.00  0.00    +0.029 A 
ATOM     11  C   UNL     1      -4.904   0.539  -4.478  0.00  0.00    +0.004 A 
ATOM     12  C   UNL     1      -4.862   0.264  -5.833  0.00  0.00    +0.021 A 
ATOM     13  C   UNL     1      -4.249  -0.888  -6.294  0.00  0.00    +0.061 A 
ATOM     14  C   UNL     1      -3.669  -1.769  -5.401  0.00  0.00    +0.085 A 
ATOM     15 CL   UNL     1      -2.894  -3.211  -5.979  0.00  0.00    -0.080 Cl
ATOM     16 CL   UNL     1      -4.203  -1.225  -7.997  0.00  0.00    -0.082 Cl
ENDBRANCH   6   9
BRANCH   1  18
ATOM     17  C   UNL     1       1.073   1.180  -1.023  0.00  0.00    +0.005 C 
ATOM     18  C   UNL     1       0.845  -0.323  -0.847  0.00  0.00    +0.020 C 
ENDBRANCH   1  18
TORSDOF 2
