REMARK  Name = ZINC20080028
REMARK  7 active torsions:
REMARK  status: ('A' for Active; 'I' for Inactive)
REMARK    1  A    between atoms: C_1  and  O_2
REMARK    2  A    between atoms: O_2  and  C_3
REMARK    3  A    between atoms: C_5  and  S_10
REMARK    4  A    between atoms: S_10  and  N_13
REMARK    5  A    between atoms: N_16  and  C_19
REMARK    6  A    between atoms: C_19  and  C_20
REMARK    7  A    between atoms: C_19  and  C_26
REMARK                            x       y       z     vdW  Elec       q    Type
REMARK                         _______ _______ _______ _____ _____    ______ ____
ROOT
ATOM      1  N   UNL     1      -2.240  -1.834   3.042  0.00  0.00    -0.174 NA
ATOM      2  C   UNL     1      -2.265  -2.472   1.716  0.00  0.00    +0.125 C 
ATOM      3  C   UNL     1      -1.054  -1.982   0.917  0.00  0.00    +0.102 C 
ATOM      4  N   UNL     1      -1.044  -0.513   0.900  0.00  0.00    -0.289 NA
ATOM      5  C   UNL     1      -0.888   0.035   2.254  0.00  0.00    +0.102 C 
ATOM      6  C   UNL     1      -2.093  -0.372   3.108  0.00  0.00    +0.125 C 
ENDROOT
BRANCH   1   7
ATOM      7  S   UNL     1      -2.372  -2.739   4.423  0.00  0.00    +0.061 S 
ATOM      8  O   UNL     1      -2.867  -1.869   5.432  0.00  0.00    -0.153 OA
ATOM      9  O   UNL     1      -3.037  -3.940   4.059  0.00  0.00    -0.153 OA
BRANCH   7  12
ATOM     10  C   UNL     1       1.266  -2.733   6.136  0.00  0.00    +0.140 A 
ATOM     11  C   UNL     1      -0.019  -2.376   5.755  0.00  0.00    +0.075 A 
ATOM     12  C   UNL     1      -0.740  -3.193   4.906  0.00  0.00    +0.109 A 
ATOM     13  C   UNL     1      -0.184  -4.370   4.440  0.00  0.00    +0.030 A 
ATOM     14  C   UNL     1       1.098  -4.727   4.814  0.00  0.00    +0.025 A 
ATOM     15  C   UNL     1       1.824  -3.913   5.663  0.00  0.00    +0.083 A 
ATOM     16 CL   UNL     1       3.432  -4.365   6.137  0.00  0.00    -0.080 Cl
BRANCH  10  18
ATOM     17  C   UNL     1       1.339  -0.732   7.418  0.00  0.00    +0.277 C 
ATOM     18  O   UNL     1       1.977  -1.931   6.971  0.00  0.00    -0.494 OA
ENDBRANCH  10  18
ENDBRANCH   7  12
ENDBRANCH   1   7
BRANCH   4  19
ATOM     19  C   UNL     1       0.002  -0.004   0.002  0.00  0.00    +0.117 C 
BRANCH  19  20
ATOM     20  C   UNL     1      -0.018   1.503   0.010  0.00  0.00    -0.026 A 
ATOM     21  C   UNL     1      -1.225   2.178   0.020  0.00  0.00    +0.005 A 
ATOM     22  C   UNL     1      -1.244   3.560   0.032  0.00  0.00    +0.000 A 
ATOM     23  C   UNL     1      -0.056   4.267   0.025  0.00  0.00    +0.000 A 
ATOM     24  C   UNL     1       1.151   3.592   0.010  0.00  0.00    +0.000 A 
ATOM     25  C   UNL     1       1.169   2.210   0.003  0.00  0.00    +0.005 A 
ENDBRANCH  19  20
BRANCH  19  26
ATOM     26  C   UNL     1      -0.251  -0.502  -1.398  0.00  0.00    -0.026 A 
ATOM     27  C   UNL     1      -1.542  -0.557  -1.889  0.00  0.00    +0.005 A 
ATOM     28  C   UNL     1      -1.774  -1.009  -3.174  0.00  0.00    +0.000 A 
ATOM     29  C   UNL     1      -0.716  -1.416  -3.965  0.00  0.00    +0.000 A 
ATOM     30  C   UNL     1       0.575  -1.367  -3.472  0.00  0.00    +0.000 A 
ATOM     31  C   UNL     1       0.807  -0.910  -2.188  0.00  0.00    +0.005 A 
ENDBRANCH  19  26
ENDBRANCH   4  19
TORSDOF 6
