REMARK  Name = ZINC67537377
REMARK  6 active torsions:
REMARK  status: ('A' for Active; 'I' for Inactive)
REMARK    1  A    between atoms: C_1  and  C_2
REMARK    2  A    between atoms: C_7  and  N_8
REMARK    3  A    between atoms: N_11  and  C_12
REMARK    4  A    between atoms: C_12  and  C_14
REMARK    5  A    between atoms: C_12  and  C_15
REMARK    6  A    between atoms: C_22  and  C_24
REMARK                            x       y       z     vdW  Elec       q    Type
REMARK                         _______ _______ _______ _____ _____    ______ ____
ROOT
ATOM      1  N   UNL     1      -0.468  -0.305   2.327  0.00  0.00    -0.269 N 
ATOM      2  C   UNL     1      -0.331  -0.882   3.537  0.00  0.00    +0.304 C 
ATOM      3  O   UNL     1      -0.142  -2.080   3.621  0.00  0.00    -0.252 OA
ATOM      4  N   UNL     1      -0.404  -0.132   4.654  0.00  0.00    -0.288 N 
ATOM      5  H   UNL     1      -0.548   0.659   2.256  0.00  0.00    +0.156 HD
ATOM      6  H   UNL     1      -0.555   0.824   4.588  0.00  0.00    +0.151 HD
ENDROOT
BRANCH   1  13
ATOM      7  C   UNL     1      -2.118   0.529   0.165  0.00  0.00    +0.046 C 
ATOM      8  C   UNL     1      -1.287  -0.726   0.094  0.00  0.00    -0.026 A 
ATOM      9  C   UNL     1      -1.308  -1.505  -1.046  0.00  0.00    +0.043 A 
ATOM     10  C   UNL     1      -0.544  -2.658  -1.112  0.00  0.00    +0.124 A 
ATOM     11  C   UNL     1       0.242  -3.033  -0.035  0.00  0.00    +0.040 A 
ATOM     12  C   UNL     1       0.265  -2.256   1.107  0.00  0.00    +0.026 A 
ATOM     13  C   UNL     1      -0.495  -1.096   1.172  0.00  0.00    +0.038 A 
ATOM     14  F   UNL     1      -0.566  -3.419  -2.228  0.00  0.00    -0.205 F 
ENDBRANCH   1  13
BRANCH   4  15
ATOM     15  C   UNL     1      -0.256  -0.760   5.970  0.00  0.00    +0.157 C 
ATOM     16  C   UNL     1       1.230  -0.870   6.317  0.00  0.00    +0.038 C 
BRANCH  15  17
ATOM     17  C   UNL     1      -0.954   0.079   7.009  0.00  0.00    +0.236 C 
ATOM     18  O   UNL     1      -1.276   1.220   6.751  0.00  0.00    -0.274 OA
ATOM     19  N   UNL     1      -1.220  -0.438   8.225  0.00  0.00    -0.297 N 
ATOM     20  C   UNL     1      -0.724  -1.770   8.597  0.00  0.00    +0.108 C 
ATOM     21  C   UNL     1       0.050  -1.657   9.914  0.00  0.00    +0.019 C 
ATOM     22  C   UNL     1      -0.841  -1.000  10.970  0.00  0.00    +0.003 C 
ATOM     23  C   UNL     1      -1.224   0.409  10.513  0.00  0.00    +0.022 C 
ATOM     24  C   UNL     1      -2.008   0.322   9.205  0.00  0.00    +0.073 C 
ATOM     25  C   UNL     1      -2.268   1.732   8.671  0.00  0.00    +0.028 C 
ENDBRANCH  15  17
ENDBRANCH   4  15
TORSDOF 3
