REMARK  Name = ZINC09328295
REMARK  12 active torsions:
REMARK  status: ('A' for Active; 'I' for Inactive)
REMARK    1  A    between atoms: C_1  and  C_2
REMARK    2  A    between atoms: C_2  and  N_62
REMARK    3  A    between atoms: C_3  and  C_4
REMARK    4  A    between atoms: C_3  and  N_62
REMARK    5  A    between atoms: C_5  and  C_6
REMARK    6  A    between atoms: C_5  and  N_62
REMARK    7  A    between atoms: C_6  and  N_7
REMARK    8  A    between atoms: C_8  and  C_25
REMARK    9  A    between atoms: C_15  and  C_24
REMARK   10  A    between atoms: C_16  and  C_23
REMARK   11  A    between atoms: C_30  and  O_31
REMARK   12  A    between atoms: O_31  and  C_32
REMARK                            x       y       z     vdW  Elec       q    Type
REMARK                         _______ _______ _______ _____ _____    ______ ____
ROOT
ATOM      1  N   UNL     1       7.048   1.191  -0.063  0.00  0.00    -0.285 N 
ATOM      2  C   UNL     1       6.374  -0.114  -0.045  0.00  0.00    +0.148 C 
ATOM      3  C   UNL     1       4.897   0.182  -0.040  0.00  0.00    +0.072 A 
ATOM      4  C   UNL     1       3.711  -0.680  -0.024  0.00  0.00    +0.199 A 
ATOM      5  O   UNL     1       3.804  -1.894  -0.011  0.00  0.00    -0.287 OA
ATOM      6  C   UNL     1       2.400  -0.002  -0.024  0.00  0.00    +0.065 A 
ATOM      7  C   UNL     1       1.208  -0.724  -0.009  0.00  0.00    +0.019 A 
ATOM      8  C   UNL     1       0.013  -0.058  -0.011  0.00  0.00    -0.047 A 
ATOM      9  C   UNL     1      -0.016   1.329  -0.025  0.00  0.00    -0.044 A 
ATOM     10  C   UNL     1       1.153   2.059  -0.039  0.00  0.00    +0.050 A 
ATOM     11  C   UNL     1       2.381   1.403  -0.039  0.00  0.00    +0.140 A 
ATOM     12  O   UNL     1       3.530   2.101  -0.052  0.00  0.00    -0.450 OA
ATOM     13  C   UNL     1       4.751   1.530  -0.053  0.00  0.00    +0.199 A 
ATOM     14  C   UNL     1       6.102   2.146  -0.068  0.00  0.00    +0.283 C 
ATOM     15  O   UNL     1       6.321   3.341  -0.082  0.00  0.00    -0.267 OA
ATOM     16  C   UNL     1      -1.341   2.046  -0.032  0.00  0.00    +0.044 C 
ATOM     17  C   UNL     1      -1.278  -0.835   0.005  0.00  0.00    +0.044 C 
ENDROOT
BRANCH   2  18
ATOM     18  C   UNL     1       6.754  -0.879   1.196  0.00  0.00    +0.019 A 
ATOM     19  C   UNL     1       7.207  -0.204   2.313  0.00  0.00    +0.009 A 
ATOM     20  C   UNL     1       7.556  -0.905   3.452  0.00  0.00    +0.001 A 
ATOM     21  C   UNL     1       7.453  -2.284   3.477  0.00  0.00    +0.004 A 
ATOM     22  C   UNL     1       7.000  -2.964   2.363  0.00  0.00    +0.046 A 
ATOM     23  C   UNL     1       6.645  -2.261   1.220  0.00  0.00    +0.125 A 
BRANCH  23  24
ATOM     24  O   UNL     1       6.194  -2.928   0.125  0.00  0.00    -0.495 OA
ATOM     25  C   UNL     1       6.107  -4.351   0.221  0.00  0.00    +0.277 C 
ENDBRANCH  23  24
ENDBRANCH   2  18
BRANCH   1  26
ATOM     26  C   UNL     1       8.496   1.412  -0.074  0.00  0.00    +0.090 C 
BRANCH  26  27
ATOM     27  C   UNL     1       8.991   1.474  -1.520  0.00  0.00    -0.060 C 
BRANCH  27  28
ATOM     28  N   UNL     1      10.423   1.839  -1.515  0.00  0.00    +0.380 N 
ATOM     29  H   UNL     1      10.576   2.580  -0.822  0.00  0.00    -0.082 HD
BRANCH  28  31
ATOM     30  C   UNL     1      12.688   1.118  -0.935  0.00  0.00    -0.017 C 
ATOM     31  C   UNL     1      11.243   0.664  -1.151  0.00  0.00    -0.082 C 
ENDBRANCH  28  31
BRANCH  28  32
ATOM     32  C   UNL     1      10.822   2.339  -2.848  0.00  0.00    -0.082 C 
ATOM     33  C   UNL     1      10.318   3.775  -3.003  0.00  0.00    -0.017 C 
ENDBRANCH  28  32
ENDBRANCH  27  28
ENDBRANCH  26  27
ENDBRANCH   1  26
TORSDOF 7
