REMARK  Name = ZINC05540270
REMARK  4 active torsions:
REMARK  status: ('A' for Active; 'I' for Inactive)
REMARK    1  A    between atoms: C_3  and  N_24
REMARK    2  A    between atoms: C_6  and  C_7
REMARK    3  A    between atoms: C_9  and  C_12
REMARK    4  A    between atoms: C_12  and  C_14
REMARK                            x       y       z     vdW  Elec       q    Type
REMARK                         _______ _______ _______ _____ _____    ______ ____
ROOT
ATOM      1  C   UNL     1      -0.076   5.747   0.032  0.00  0.00    +0.185 C 
ATOM      2  C   UNL     1      -0.252   6.451   1.379  0.00  0.00    +0.218 C 
ATOM      3  O   UNL     1      -1.295   6.395   0.403  0.00  0.00    -0.355 OA
ENDROOT
BRANCH   1   9
ATOM      4  C   UNL     1       1.151   3.566   0.010  0.00  0.00    +0.008 A 
ATOM      5  C   UNL     1       1.170   2.183   0.003  0.00  0.00    +0.033 A 
ATOM      6  C   UNL     1      -0.018   1.476   0.010  0.00  0.00    +0.126 A 
ATOM      7  C   UNL     1      -1.224   2.151   0.019  0.00  0.00    +0.033 A 
ATOM      8  C   UNL     1      -1.243   3.533   0.031  0.00  0.00    +0.008 A 
ATOM      9  C   UNL     1      -0.056   4.240   0.025  0.00  0.00    -0.016 A 
BRANCH   6  10
ATOM     10  N   UNL     1       0.002  -0.004   0.002  0.00  0.00    +0.056 N 
ATOM     11  O   UNL     1       1.065  -0.599  -0.011  0.00  0.00    -0.126 OA
ATOM     12  O   UNL     1      -1.044  -0.627   0.009  0.00  0.00    -0.126 OA
ENDBRANCH   6  10
ENDBRANCH   1   9
BRANCH   2  13
ATOM     13  C   UNL     1       0.451   7.768   1.581  0.00  0.00    +0.171 C 
ATOM     14  O   UNL     1      -0.178   8.799   1.552  0.00  0.00    -0.294 OA
BRANCH  13  15
ATOM     15  C   UNL     1       1.939   7.800   1.819  0.00  0.00    +0.032 C 
ATOM     16  C   UNL     1       2.270   7.007   3.085  0.00  0.00    +0.018 C 
ATOM     17  C   UNL     1       3.780   7.039   3.326  0.00  0.00    -0.010 C 
ATOM     18  C   UNL     1       4.239   8.488   3.498  0.00  0.00    +0.007 C 
ATOM     19  C   UNL     1       3.908   9.281   2.232  0.00  0.00    -0.010 C 
ATOM     20  C   UNL     1       2.397   9.249   1.990  0.00  0.00    +0.018 C 
ATOM     21  C   UNL     1       4.628   8.657   1.036  0.00  0.00    +0.007 C 
ATOM     22  C   UNL     1       4.170   7.207   0.864  0.00  0.00    -0.010 C 
ATOM     23  C   UNL     1       4.501   6.414   2.130  0.00  0.00    +0.007 C 
ATOM     24  C   UNL     1       2.659   7.175   0.623  0.00  0.00    +0.018 C 
ENDBRANCH  13  15
ENDBRANCH   2  13
TORSDOF 4
