REMARK  Name = ZINC04776965
REMARK  2 active torsions:
REMARK  status: ('A' for Active; 'I' for Inactive)
REMARK    1  A    between atoms: C_4  and  C_7
REMARK    2  A    between atoms: C_12  and  C_17
REMARK                            x       y       z     vdW  Elec       q    Type
REMARK                         _______ _______ _______ _____ _____    ______ ____
ROOT
ATOM      1  C   UNL     1       3.711  -0.707  -0.038  0.00  0.00    +0.175 C 
ATOM      2  C   UNL     1       3.790  -1.565  -1.282  0.00  0.00    +0.041 C 
ATOM      3  C   UNL     1       3.662  -2.908  -1.237  0.00  0.00    +0.020 C 
ATOM      4  C   UNL     1       3.747  -3.738  -2.496  0.00  0.00    +0.060 C 
ATOM      5  C   UNL     1       3.228  -2.926  -3.684  0.00  0.00    +0.032 C 
ATOM      6  C   UNL     1       4.072  -1.652  -3.803  0.00  0.00    +0.088 C 
ATOM      7  C   UNL     1       4.004  -0.900  -2.503  0.00  0.00    +0.164 C 
ATOM      8  O   UNL     1       4.136   0.308  -2.508  0.00  0.00    -0.292 OA
ATOM      9  N   UNL     1       3.458  -3.577  -0.054  0.00  0.00    -0.287 N 
ATOM     10  C   UNL     1       3.687  -2.893   1.129  0.00  0.00    +0.218 A 
ATOM     11  N   UNL     1       3.812  -1.545   1.150  0.00  0.00    -0.221 N 
ATOM     12  N   UNL     1       4.040  -1.194   2.480  0.00  0.00    -0.156 NA
ATOM     13  C   UNL     1       4.035  -2.307   3.171  0.00  0.00    +0.247 A 
ATOM     14  N   UNL     1       3.820  -3.331   2.350  0.00  0.00    -0.201 NA
ATOM     15  H   UNL     1       3.161  -4.501  -0.047  0.00  0.00    +0.155 HD
ENDROOT
BRANCH   5  16
ATOM     16  C   UNL     1       3.353  -3.738  -4.948  0.00  0.00    -0.043 A 
ATOM     17  C   UNL     1       4.595  -4.185  -5.362  0.00  0.00    +0.007 A 
ATOM     18  C   UNL     1       4.710  -4.930  -6.520  0.00  0.00    +0.038 A 
ATOM     19  C   UNL     1       3.583  -5.230  -7.265  0.00  0.00    +0.123 A 
ATOM     20  C   UNL     1       2.340  -4.782  -6.849  0.00  0.00    +0.038 A 
ATOM     21  C   UNL     1       2.226  -4.042  -5.688  0.00  0.00    +0.007 A 
ATOM     22  F   UNL     1       3.695  -5.958  -8.398  0.00  0.00    -0.205 F 
ENDBRANCH   5  16
BRANCH   1  26
ATOM     23  C   UNL     1      -0.017   1.378   0.010  0.00  0.00    +0.000 A 
ATOM     24  C   UNL     1       1.171   2.086   0.002  0.00  0.00    +0.000 A 
ATOM     25  C   UNL     1       2.377   1.411  -0.013  0.00  0.00    +0.006 A 
ATOM     26  C   UNL     1       2.396   0.029  -0.020  0.00  0.00    -0.018 A 
ATOM     27  C   UNL     1       1.208  -0.679  -0.012  0.00  0.00    +0.006 A 
ATOM     28  C   UNL     1       0.002  -0.004   0.002  0.00  0.00    +0.000 A 
ENDBRANCH   1  26
TORSDOF 2
