REMARK  Name = ZINC49492393
REMARK  7 active torsions:
REMARK  status: ('A' for Active; 'I' for Inactive)
REMARK    1  A    between atoms: C_1  and  C_2
REMARK    2  A    between atoms: N_4  and  C_7
REMARK    3  A    between atoms: C_10  and  C_13
REMARK    4  A    between atoms: C_15  and  C_16
REMARK    5  A    between atoms: C_15  and  C_18
REMARK    6  A    between atoms: N_20  and  C_21
REMARK    7  A    between atoms: C_21  and  C_22
REMARK                            x       y       z     vdW  Elec       q    Type
REMARK                         _______ _______ _______ _____ _____    ______ ____
ROOT
ATOM      1  C   UNL     1       0.035  -6.141  -4.696  0.00  0.00    +0.208 C 
ATOM      2  O   UNL     1       0.217  -7.426  -4.327  0.00  0.00    -0.286 OA
ATOM      3  C   UNL     1      -0.043  -5.808  -6.044  0.00  0.00    +0.160 C 
ENDROOT
BRANCH   1   7
ATOM      4  C   UNL     1      -0.298  -3.122  -1.748  0.00  0.00    +0.052 A 
ATOM      5  C   UNL     1      -1.300  -3.272  -2.705  0.00  0.00    +0.025 A 
ATOM      6  C   UNL     1      -1.196  -4.245  -3.658  0.00  0.00    +0.013 A 
ATOM      7  C   UNL     1      -0.081  -5.092  -3.673  0.00  0.00    +0.023 A 
ATOM      8  C   UNL     1       0.924  -4.938  -2.709  0.00  0.00    +0.013 A 
ATOM      9  C   UNL     1       0.816  -3.959  -1.763  0.00  0.00    +0.025 A 
BRANCH   4  13
ATOM     10  C   UNL     1       1.034  -0.432   2.161  0.00  0.00    +0.062 C 
ATOM     11  C   UNL     1       0.207  -0.914   0.997  0.00  0.00    +0.036 C 
ATOM     12  N   UNL     1       0.521  -1.872   0.225  0.00  0.00    -0.189 NA
ATOM     13  N   UNL     1      -0.408  -2.132  -0.780  0.00  0.00    -0.224 N 
ATOM     14  C   UNL     1      -1.525  -1.181  -0.648  0.00  0.00    +0.138 C 
ATOM     15  C   UNL     1      -1.125  -0.334   0.577  0.00  0.00    +0.073 C 
ENDBRANCH   4  13
ENDBRANCH   1   7
BRANCH   3  16
ATOM     16  C   UNL     1      -0.059  -4.400  -6.452  0.00  0.00    +0.258 C 
ATOM     17  O   UNL     1       0.115  -3.525  -5.625  0.00  0.00    -0.269 OA
ATOM     18  N   UNL     1      -0.267  -4.075  -7.744  0.00  0.00    -0.307 N 
ATOM     19  H   UNL     1      -0.405  -4.773  -8.403  0.00  0.00    +0.149 HD
BRANCH  18  20
ATOM     20  C   UNL     1      -0.283  -2.668  -8.151  0.00  0.00    +0.139 C 
BRANCH  20  21
ATOM     21  C   UNL     1      -0.532  -2.578  -9.635  0.00  0.00    -0.030 A 
ATOM     22  C   UNL     1       0.533  -2.587 -10.516  0.00  0.00    +0.005 A 
ATOM     23  C   UNL     1       0.304  -2.504 -11.877  0.00  0.00    +0.000 A 
ATOM     24  C   UNL     1      -0.989  -2.413 -12.357  0.00  0.00    +0.000 A 
ATOM     25  C   UNL     1      -2.054  -2.405 -11.475  0.00  0.00    +0.000 A 
ATOM     26  C   UNL     1      -1.826  -2.492 -10.115  0.00  0.00    +0.005 A 
ENDBRANCH  20  21
ENDBRANCH  18  20
ENDBRANCH   3  16
BRANCH   3  27
ATOM     27  C   UNL     1      -0.107  -6.841  -7.034  0.00  0.00    +0.108 C 
ATOM     28  N   UNL     1      -0.158  -7.660  -7.819  0.00  0.00    -0.191 NA
ENDBRANCH   3  27
TORSDOF 6
