REMARK  Name = ZINC06954622
REMARK  6 active torsions:
REMARK  status: ('A' for Active; 'I' for Inactive)
REMARK    1  A    between atoms: C_1  and  O_2
REMARK    2  A    between atoms: O_2  and  C_3
REMARK    3  A    between atoms: C_7  and  C_9
REMARK    4  A    between atoms: C_19  and  N_27
REMARK    5  A    between atoms: C_22  and  O_25
REMARK    6  A    between atoms: O_25  and  C_26
REMARK                            x       y       z     vdW  Elec       q    Type
REMARK                         _______ _______ _______ _____ _____    ______ ____
ROOT
ATOM      1  C   UNL     1       3.658  -2.078   0.214  0.00  0.00    +0.105 C 
ATOM      2  C   UNL     1       2.848  -2.996  -0.678  0.00  0.00    +0.029 C 
ATOM      3  C   UNL     1       3.112  -4.503  -0.588  0.00  0.00    +0.033 C 
ATOM      4  C   UNL     1       1.719  -5.065  -0.948  0.00  0.00    -0.030 C 
ATOM      5  C   UNL     1       0.774  -4.173  -0.671  0.00  0.00    -0.023 C 
ATOM      6  C   UNL     1       1.415  -2.982  -0.061  0.00  0.00    +0.051 C 
ATOM      7  C   UNL     1       0.887  -1.611  -0.244  0.00  0.00    +0.014 A 
ATOM      8  C   UNL     1      -0.458  -1.373  -0.444  0.00  0.00    +0.132 A 
ATOM      9  C   UNL     1      -0.930  -0.082  -0.579  0.00  0.00    +0.037 A 
ATOM     10  C   UNL     1      -0.046   0.981  -0.513  0.00  0.00    +0.050 A 
ATOM     11  C   UNL     1       1.302   0.752  -0.321  0.00  0.00    +0.141 A 
ATOM     12  C   UNL     1       1.795  -0.553  -0.189  0.00  0.00    +0.076 A 
ATOM     13  N   UNL     1       3.171  -0.709  -0.021  0.00  0.00    -0.334 N 
ATOM     14  H   UNL     1       3.680  -0.269  -0.772  0.00  0.00    +0.147 HD
ENDROOT
BRANCH   1  19
ATOM     15  C   UNL     1       4.058  -3.777   3.565  0.00  0.00    +0.120 A 
ATOM     16  C   UNL     1       3.077  -3.143   4.313  0.00  0.00    +0.045 A 
ATOM     17  C   UNL     1       2.289  -2.169   3.732  0.00  0.00    +0.004 A 
ATOM     18  C   UNL     1       2.481  -1.822   2.407  0.00  0.00    +0.006 A 
ATOM     19  C   UNL     1       3.454  -2.456   1.659  0.00  0.00    -0.024 A 
ATOM     20  C   UNL     1       4.245  -3.431   2.235  0.00  0.00    +0.051 A 
BRANCH  15  22
ATOM     21  C   UNL     1       4.587  -5.041   5.508  0.00  0.00    +0.277 C 
ATOM     22  O   UNL     1       4.835  -4.736   4.135  0.00  0.00    -0.495 OA
ENDBRANCH  15  22
ENDBRANCH   1  19
BRANCH   8  23
ATOM     23  N   UNL     1      -1.402  -2.510  -0.513  0.00  0.00    +0.057 N 
ATOM     24  O   UNL     1      -2.173  -2.605  -1.452  0.00  0.00    -0.126 OA
ATOM     25  O   UNL     1      -1.409  -3.351   0.368  0.00  0.00    -0.126 OA
ENDBRANCH   8  23
BRANCH  11  26
ATOM     26  O   UNL     1       2.161   1.804  -0.260  0.00  0.00    -0.493 OA
ATOM     27  C   UNL     1       1.598   3.110  -0.401  0.00  0.00    +0.277 C 
ENDBRANCH  11  26
TORSDOF 4
