REMARK  Name = ZINC13643568
REMARK  3 active torsions:
REMARK  status: ('A' for Active; 'I' for Inactive)
REMARK    1  A    between atoms: C_1  and  C_2
REMARK    2  A    between atoms: C_4  and  C_19
REMARK    3  A    between atoms: C_13  and  C_18
REMARK                            x       y       z     vdW  Elec       q    Type
REMARK                         _______ _______ _______ _____ _____    ______ ____
ROOT
ATOM      1  C   UNL     1       3.672   2.150  -0.021  0.00  0.00    +0.044 C 
ATOM      2  C   UNL     1       2.380   1.375  -0.014  0.00  0.00    -0.037 A 
ATOM      3  C   UNL     1       1.170   2.032   0.002  0.00  0.00    +0.036 A 
ATOM      4  C   UNL     1      -0.016   1.315   0.009  0.00  0.00    +0.145 A 
ATOM      5  N   UNL     1       0.002  -0.004   0.002  0.00  0.00    -0.235 NA
ATOM      6  C   UNL     1       1.135  -0.674  -0.012  0.00  0.00    +0.112 A 
ATOM      7  C   UNL     1       2.390  -0.039  -0.021  0.00  0.00    +0.037 A 
ATOM      8  C   UNL     1       3.565  -0.930  -0.037  0.00  0.00    +0.093 A 
ATOM      9  C   UNL     1       3.293  -2.296  -0.042  0.00  0.00    +0.084 A 
ATOM     10  S   UNL     1       1.524  -2.406  -0.025  0.00  0.00    -0.063 S 
ATOM     11  C   UNL     1       4.330  -3.240  -0.057  0.00  0.00    +0.173 A 
ATOM     12  N   UNL     1       4.389  -4.562  -0.064  0.00  0.00    -0.210 NA
ATOM     13  C   UNL     1       5.657  -4.954  -0.078  0.00  0.00    +0.149 A 
ATOM     14  N   UNL     1       6.444  -3.904  -0.081  0.00  0.00    -0.149 NA
ATOM     15  N   UNL     1       5.620  -2.773  -0.067  0.00  0.00    -0.201 N 
ATOM     16  C   UNL     1       5.842  -1.433  -0.063  0.00  0.00    +0.225 A 
ATOM     17  N   UNL     1       4.879  -0.566  -0.049  0.00  0.00    -0.234 NA
ATOM     18  C   UNL     1       6.122  -6.388  -0.089  0.00  0.00    +0.090 C 
ENDROOT
BRANCH   4  19
ATOM     19  C   UNL     1      -1.333   2.047   0.019  0.00  0.00    +0.434 C 
ATOM     20  F   UNL     1      -2.378   1.123   0.134  0.00  0.00    -0.164 F 
ATOM     21  F   UNL     1      -1.369   2.929   1.105  0.00  0.00    -0.164 F 
ATOM     22  F   UNL     1      -1.476   2.767  -1.171  0.00  0.00    -0.164 F 
ENDBRANCH   4  19
TORSDOF 1
