REMARK  Name = ZINC37091032
REMARK  7 active torsions:
REMARK  status: ('A' for Active; 'I' for Inactive)
REMARK    1  A    between atoms: C_1  and  C_2
REMARK    2  A    between atoms: C_7  and  N_8
REMARK    3  A    between atoms: N_8  and  C_9
REMARK    4  A    between atoms: C_9  and  C_11
REMARK    5  A    between atoms: C_9  and  C_12
REMARK    6  A    between atoms: C_15  and  C_21
REMARK    7  A    between atoms: C_16  and  N_18
REMARK                            x       y       z     vdW  Elec       q    Type
REMARK                         _______ _______ _______ _____ _____    ______ ____
ROOT
ATOM      1  C   UNL     1       0.047  -0.581   3.553  0.00  0.00    +0.098 C 
ATOM      2  C   UNL     1       1.399  -1.161   3.972  0.00  0.00    +0.033 C 
ENDROOT
BRANCH   1   3
ATOM      3  C   UNL     1      -0.555   0.175   4.709  0.00  0.00    -0.025 A 
ATOM      4  C   UNL     1      -0.135   1.462   4.987  0.00  0.00    +0.006 A 
ATOM      5  C   UNL     1      -0.688   2.155   6.048  0.00  0.00    +0.006 A 
ATOM      6  C   UNL     1      -1.661   1.562   6.830  0.00  0.00    -0.020 A 
ATOM      7  C   UNL     1      -2.082   0.275   6.551  0.00  0.00    +0.129 A 
ATOM      8  C   UNL     1      -1.532  -0.417   5.488  0.00  0.00    +0.038 A 
ATOM      9  C   UNL     1      -2.263   2.318   7.986  0.00  0.00    +0.046 C 
BRANCH   7  10
ATOM     10  N   UNL     1      -3.124  -0.360   7.388  0.00  0.00    +0.057 N 
ATOM     11  O   UNL     1      -3.061  -1.541   7.639  0.00  0.00    -0.126 OA
ATOM     12  O   UNL     1      -4.038   0.302   7.822  0.00  0.00    -0.126 OA
ENDBRANCH   7  10
ENDBRANCH   1   3
BRANCH   1  13
ATOM     13  N   UNL     1       0.235   0.328   2.420  0.00  0.00    -0.337 N 
ATOM     14  H   UNL     1       0.335   1.280   2.574  0.00  0.00    +0.147 HD
BRANCH  13  21
ATOM     15  C   UNL     1       0.605   2.164   0.279  0.00  0.00    +0.045 C 
ATOM     16  C   UNL     1       0.450   0.684   0.043  0.00  0.00    -0.030 A 
ATOM     17  C   UNL     1       0.491   0.181  -1.243  0.00  0.00    +0.006 A 
ATOM     18  C   UNL     1       0.349  -1.177  -1.462  0.00  0.00    +0.015 A 
ATOM     19  C   UNL     1       0.165  -2.037  -0.393  0.00  0.00    +0.020 A 
ATOM     20  C   UNL     1       0.123  -1.540   0.896  0.00  0.00    +0.038 A 
ATOM     21  C   UNL     1       0.272  -0.177   1.118  0.00  0.00    +0.032 A 
ATOM     22 BR   UNL     1      -0.029  -3.893  -0.697  0.00  0.00    -0.050 Br
ENDBRANCH  13  21
ENDBRANCH   1  13
TORSDOF 4
