REMARK  Name = ZINC04263348
REMARK  6 active torsions:
REMARK  status: ('A' for Active; 'I' for Inactive)
REMARK    1  A    between atoms: C_1  and  C_2
REMARK    2  A    between atoms: C_2  and  O_3
REMARK    3  A    between atoms: O_3  and  C_4
REMARK    4  A    between atoms: C_4  and  C_5
REMARK    5  A    between atoms: C_6  and  C_19
REMARK    6  A    between atoms: C_17  and  C_18
REMARK                            x       y       z     vdW  Elec       q    Type
REMARK                         _______ _______ _______ _____ _____    ______ ____
ROOT
ATOM      1  C   UNL     1      -2.796  -2.431   0.221  0.00  0.00    +0.065 C 
ATOM      2  C   UNL     1      -3.976  -1.515   0.366  0.00  0.00    +0.097 C 
ATOM      3  C   UNL     1      -5.249  -2.299   0.508  0.00  0.00    +0.069 A 
ATOM      4  C   UNL     1      -5.297  -3.656   0.171  0.00  0.00    +0.137 A 
ATOM      5  N   UNL     1      -6.435  -4.329   0.300  0.00  0.00    -0.178 NA
ATOM      6  C   UNL     1      -7.534  -3.730   0.751  0.00  0.00    +0.350 A 
ATOM      7  N   UNL     1      -7.528  -2.427   1.089  0.00  0.00    -0.273 N 
ATOM      8  C   UNL     1      -6.383  -1.692   0.972  0.00  0.00    +0.260 A 
ATOM      9  O   UNL     1      -6.371  -0.384   1.309  0.00  0.00    -0.267 OA
ATOM     10  O   UNL     1      -8.565  -4.372   0.859  0.00  0.00    -0.245 OA
ATOM     11  N   UNL     1      -4.161  -4.291  -0.290  0.00  0.00    -0.302 N 
ATOM     12  C   UNL     1      -2.931  -3.727  -0.098  0.00  0.00    +0.017 C 
ATOM     13  C   UNL     1      -1.698  -4.582  -0.241  0.00  0.00    +0.061 C 
ATOM     14  H   UNL     1      -4.236  -5.139  -0.756  0.00  0.00    +0.153 HD
ATOM     15  H   UNL     1      -8.340  -2.010   1.417  0.00  0.00    +0.173 HD
ENDROOT
BRANCH   2  16
ATOM     16  C   UNL     1      -4.072  -0.634  -0.853  0.00  0.00    -0.017 A 
ATOM     17  C   UNL     1      -4.240  -1.199  -2.103  0.00  0.00    +0.006 A 
ATOM     18  C   UNL     1      -4.328  -0.391  -3.221  0.00  0.00    +0.000 A 
ATOM     19  C   UNL     1      -4.247   0.983  -3.090  0.00  0.00    +0.001 A 
ATOM     20  C   UNL     1      -4.079   1.549  -1.840  0.00  0.00    +0.020 A 
ATOM     21  C   UNL     1      -3.997   0.741  -0.720  0.00  0.00    +0.045 A 
ATOM     22 CL   UNL     1      -3.792   1.452   0.850  0.00  0.00    -0.083 Cl
ENDBRANCH   2  16
BRANCH   1  23
ATOM     23  C   UNL     1      -1.497  -1.909   0.422  0.00  0.00    +0.338 C 
ATOM     24  O   UNL     1      -1.064  -1.773   1.551  0.00  0.00    -0.245 OA
BRANCH  23  25
ATOM     25  O   UNL     1      -0.738  -1.561  -0.638  0.00  0.00    -0.462 OA
BRANCH  25  27
ATOM     26  C   UNL     1       1.269  -0.705  -1.677  0.00  0.00    +0.048 C 
ATOM     27  C   UNL     1       0.563  -1.040  -0.361  0.00  0.00    +0.229 C 
ENDBRANCH  25  27
ENDBRANCH  23  25
ENDBRANCH   1  23
TORSDOF 4
