REMARK  Name = ZINC63258395
REMARK  5 active torsions:
REMARK  status: ('A' for Active; 'I' for Inactive)
REMARK    1  A    between atoms: C_3  and  S_8
REMARK    2  A    between atoms: S_8  and  N_11
REMARK    3  A    between atoms: N_11  and  C_12
REMARK    4  A    between atoms: N_15  and  C_18
REMARK    5  A    between atoms: C_22  and  N_23
REMARK                            x       y       z     vdW  Elec       q    Type
REMARK                         _______ _______ _______ _____ _____    ______ ____
ROOT
ATOM      1  C   UNL     1       4.669   1.413   2.405  0.00  0.00    +0.079 C 
ATOM      2  C   UNL     1       3.433   0.974   3.194  0.00  0.00    +0.039 C 
ATOM      3  C   UNL     1       3.787  -0.243   4.054  0.00  0.00    +0.107 C 
ATOM      4  N   UNL     1       4.949   0.090   4.890  0.00  0.00    -0.328 N 
ATOM      5  C   UNL     1       6.161   0.608   4.240  0.00  0.00    +0.107 C 
ATOM      6  C   UNL     1       5.780   1.815   3.378  0.00  0.00    +0.039 C 
ENDROOT
BRANCH   4   7
ATOM      7  C   UNL     1       4.901  -0.084   6.286  0.00  0.00    +0.068 A 
ATOM      8  C   UNL     1       5.291  -1.282   6.861  0.00  0.00    +0.033 A 
ATOM      9  C   UNL     1       5.232  -1.414   8.209  0.00  0.00    +0.049 A 
ATOM     10  S   UNL     1       4.612   0.183   8.712  0.00  0.00    -0.071 S 
ATOM     11  C   UNL     1       4.477   0.924   7.094  0.00  0.00    +0.184 A 
BRANCH  11  12
ATOM     12  N   UNL     1       4.019   2.283   6.726  0.00  0.00    +0.065 N 
ATOM     13  O   UNL     1       3.990   2.618   5.565  0.00  0.00    -0.126 OA
ATOM     14  O   UNL     1       3.674   3.058   7.588  0.00  0.00    -0.126 OA
ENDBRANCH  11  12
ENDBRANCH   4   7
BRANCH   1  15
ATOM     15  N   UNL     1       4.326   2.557   1.556  0.00  0.00    -0.187 NA
ATOM     16  H   UNL     1       4.354   3.456   1.919  0.00  0.00    +0.148 HD
BRANCH  15  17
ATOM     17  S   UNL     1       3.891   2.315  -0.023  0.00  0.00    +0.059 S 
ATOM     18  O   UNL     1       4.872   1.456  -0.588  0.00  0.00    -0.153 OA
ATOM     19  O   UNL     1       3.597   3.595  -0.564  0.00  0.00    -0.153 OA
BRANCH  17  22
ATOM     20  C   UNL     1      -0.017   1.380   0.010  0.00  0.00    +0.040 A 
ATOM     21  C   UNL     1       1.171   2.087   0.002  0.00  0.00    +0.031 A 
ATOM     22  C   UNL     1       2.377   1.412  -0.013  0.00  0.00    +0.105 A 
ATOM     23  C   UNL     1       2.397   0.030  -0.021  0.00  0.00    +0.031 A 
ATOM     24  C   UNL     1       1.211  -0.679  -0.014  0.00  0.00    +0.040 A 
ATOM     25  C   UNL     1       0.002  -0.004   0.002  0.00  0.00    +0.124 A 
ATOM     26  F   UNL     1      -1.158  -0.696   0.009  0.00  0.00    -0.205 F 
ENDBRANCH  17  22
ENDBRANCH  15  17
ENDBRANCH   1  15
TORSDOF 5
