REMARK  Name = ZINC20431834
REMARK  5 active torsions:
REMARK  status: ('A' for Active; 'I' for Inactive)
REMARK    1  A    between atoms: C_1  and  C_2
REMARK    2  A    between atoms: C_6  and  N_9
REMARK    3  A    between atoms: C_7  and  C_8
REMARK    4  A    between atoms: N_9  and  S_10
REMARK    5  A    between atoms: S_10  and  C_13
REMARK                            x       y       z     vdW  Elec       q    Type
REMARK                         _______ _______ _______ _____ _____    ______ ____
ROOT
ATOM      1  S   UNL     1      -1.609   2.333  -0.003  0.00  0.00    +0.072 S 
ATOM      2  O   UNL     1      -1.427   3.655  -0.493  0.00  0.00    -0.150 OA
ATOM      3  O   UNL     1      -2.563   1.439  -0.559  0.00  0.00    -0.150 OA
ENDROOT
BRANCH   1   4
ATOM      4  C   UNL     1      -0.043   1.534  -0.116  0.00  0.00    +0.109 A 
ATOM      5  C   UNL     1       1.119   2.284  -0.135  0.00  0.00    +0.030 A 
ATOM      6  C   UNL     1       2.345   1.662  -0.229  0.00  0.00    +0.025 A 
ATOM      7  C   UNL     1       2.425   0.270  -0.307  0.00  0.00    +0.031 A 
ATOM      8  C   UNL     1       1.255  -0.473  -0.287  0.00  0.00    -0.023 A 
ATOM      9  C   UNL     1       0.028   0.155  -0.193  0.00  0.00    +0.034 A 
ATOM     10  C   UNL     1       1.614  -1.938  -0.384  0.00  0.00    +0.055 C 
ATOM     11  C   UNL     1       3.149  -1.955  -0.462  0.00  0.00    +0.106 C 
ATOM     12  N   UNL     1       3.552  -0.547  -0.407  0.00  0.00    -0.343 N 
ATOM     13  H   UNL     1       4.618  -0.278  -0.446  0.00  0.00    +0.146 HD
ENDBRANCH   1   4
BRANCH   1  14
ATOM     14  N   UNL     1      -1.973   2.471   1.607  0.00  0.00    -0.216 N 
ATOM     15  H   UNL     1      -2.876   1.991   2.010  0.00  0.00    +0.174 HD
BRANCH  14  21
ATOM     16  C   UNL     1       0.114   3.052   6.018  0.00  0.00    +0.044 C 
ATOM     17  C   UNL     1      -0.102   3.503   4.597  0.00  0.00    -0.046 A 
ATOM     18  C   UNL     1       0.533   4.640   4.129  0.00  0.00    +0.004 A 
ATOM     19  C   UNL     1       0.337   5.057   2.825  0.00  0.00    +0.002 A 
ATOM     20  C   UNL     1      -0.493   4.340   1.986  0.00  0.00    +0.025 A 
ATOM     21  C   UNL     1      -1.132   3.199   2.453  0.00  0.00    +0.051 A 
ATOM     22  C   UNL     1      -0.938   2.785   3.765  0.00  0.00    -0.025 A 
ATOM     23  C   UNL     1      -1.633   1.550   4.277  0.00  0.00    +0.046 C 
ENDBRANCH  14  21
ENDBRANCH   1  14
TORSDOF 3
