REMARK  Name = ZINC00371689
REMARK  5 active torsions:
REMARK  status: ('A' for Active; 'I' for Inactive)
REMARK    1  A    between atoms: C_1  and  C_2
REMARK    2  A    between atoms: C_4  and  C_8
REMARK    3  A    between atoms: N_5  and  C_7
REMARK    4  A    between atoms: N_10  and  N_11
REMARK    5  A    between atoms: C_12  and  C_13
REMARK                            x       y       z     vdW  Elec       q    Type
REMARK                         _______ _______ _______ _____ _____    ______ ____
ROOT
ATOM      1  C   UNL     1       0.083  -3.354  -1.439  0.00  0.00    +0.283 C 
ATOM      2  O   UNL     1      -0.001  -3.300  -2.651  0.00  0.00    -0.267 OA
ATOM      3  N   UNL     1       0.201  -4.548  -0.824  0.00  0.00    -0.202 N 
ATOM      4  H   UNL     1       0.195  -4.598   0.145  0.00  0.00    +0.178 HD
ENDROOT
BRANCH   1   8
ATOM      5  C   UNL     1       1.389   0.839   1.099  0.00  0.00    +0.069 C 
ATOM      6  C   UNL     1       0.609  -0.285   0.467  0.00  0.00    +0.079 A 
ATOM      7  C   UNL     1       1.145  -1.345  -0.271  0.00  0.00    +0.094 A 
ATOM      8  C   UNL     1       0.057  -2.118  -0.644  0.00  0.00    +0.143 A 
ATOM      9  N   UNL     1      -1.047  -1.499  -0.125  0.00  0.00    -0.261 N 
ATOM     10  N   UNL     1      -0.689  -0.446   0.516  0.00  0.00    -0.175 NA
ATOM     11  C   UNL     1      -2.426  -1.970  -0.273  0.00  0.00    +0.173 C 
ATOM     12 CL   UNL     1       2.816  -1.631  -0.641  0.00  0.00    -0.079 Cl
ENDBRANCH   1   8
BRANCH   3  13
ATOM     13  N   UNL     1       0.332  -5.718  -1.584  0.00  0.00    -0.187 NA
ATOM     14  C   UNL     1       0.446  -6.869  -0.992  0.00  0.00    +0.139 C 
BRANCH  14  15
ATOM     15  C   UNL     1       0.583  -8.096  -1.790  0.00  0.00    +0.002 A 
ATOM     16  C   UNL     1       0.818  -9.320  -1.175  0.00  0.00    +0.010 A 
ATOM     17  C   UNL     1       0.947 -10.477  -1.930  0.00  0.00    +0.001 A 
ATOM     18  C   UNL     1       0.851 -10.462  -3.288  0.00  0.00    +0.008 A 
ATOM     19  C   UNL     1       0.614  -9.261  -3.977  0.00  0.00    -0.017 A 
ATOM     20  C   UNL     1       0.470  -8.056  -3.247  0.00  0.00    -0.009 A 
ATOM     21  C   UNL     1       0.230  -6.858  -3.929  0.00  0.00    +0.009 A 
ATOM     22  C   UNL     1       0.132  -6.865  -5.289  0.00  0.00    +0.001 A 
ATOM     23  C   UNL     1       0.267  -8.049  -6.010  0.00  0.00    +0.001 A 
ATOM     24  C   UNL     1       0.513  -9.230  -5.379  0.00  0.00    +0.008 A 
ENDBRANCH  14  15
ENDBRANCH   3  13
TORSDOF 3
