REMARK  Name = ZINC09323112
REMARK  7 active torsions:
REMARK  status: ('A' for Active; 'I' for Inactive)
REMARK    1  A    between atoms: C_6  and  C_11
REMARK    2  A    between atoms: C_11  and  O_12
REMARK    3  A    between atoms: O_12  and  C_13
REMARK    4  A    between atoms: C_16  and  C_19
REMARK    5  A    between atoms: N_20  and  N_21
REMARK    6  A    between atoms: C_22  and  C_24
REMARK    7  A    between atoms: C_27  and  C_31
REMARK                            x       y       z     vdW  Elec       q    Type
REMARK                         _______ _______ _______ _____ _____    ______ ____
ROOT
ATOM      1  C   UNL     1       1.004   9.277  -1.487  0.00  0.00    +0.121 A 
ATOM      2  C   UNL     1       0.997  10.116  -0.380  0.00  0.00    +0.046 A 
ATOM      3  C   UNL     1       0.983  11.483  -0.549  0.00  0.00    +0.013 A 
ATOM      4  C   UNL     1       0.963  12.026  -1.837  0.00  0.00    -0.005 A 
ATOM      5  C   UNL     1       0.964  11.178  -2.948  0.00  0.00    +0.013 A 
ATOM      6  C   UNL     1       0.985   9.812  -2.769  0.00  0.00    +0.046 A 
ENDROOT
BRANCH   4   7
ATOM      7  C   UNL     1       0.942  13.488  -2.023  0.00  0.00    +0.138 C 
ATOM      8  N   UNL     1       0.941  14.274  -0.990  0.00  0.00    -0.187 NA
BRANCH   8   9
ATOM      9  N   UNL     1       0.921  15.664  -1.166  0.00  0.00    -0.203 N 
ATOM     10  C   UNL     1       0.920  16.479  -0.093  0.00  0.00    +0.266 C 
ATOM     11  O   UNL     1       0.937  16.009   1.028  0.00  0.00    -0.268 OA
ATOM     12  H   UNL     1       0.907  16.039  -2.061  0.00  0.00    +0.178 HD
BRANCH  10  13
ATOM     13  C   UNL     1       0.899  17.944  -0.280  0.00  0.00    +0.074 A 
ATOM     14  C   UNL     1       0.879  18.485  -1.568  0.00  0.00    +0.017 A 
ATOM     15  C   UNL     1       0.859  19.850  -1.742  0.00  0.00    +0.020 A 
ATOM     16  C   UNL     1       0.857  20.698  -0.631  0.00  0.00    +0.055 A 
ATOM     17  C   UNL     1       0.877  20.161   0.657  0.00  0.00    +0.058 A 
ATOM     18  C   UNL     1       0.892  18.791   0.834  0.00  0.00    +0.137 A 
ATOM     19  F   UNL     1       0.905  18.270   2.080  0.00  0.00    -0.205 F 
BRANCH  16  20
ATOM     20  C   UNL     1       0.835  22.118  -0.814  0.00  0.00    +0.099 C 
ATOM     21  N   UNL     1       0.817  23.244  -0.960  0.00  0.00    -0.191 NA
ENDBRANCH  16  20
ENDBRANCH  10  13
ENDBRANCH   8   9
ENDBRANCH   4   7
BRANCH   1  22
ATOM     22  O   UNL     1       1.024   7.930  -1.316  0.00  0.00    -0.487 OA
BRANCH  22  23
ATOM     23  C   UNL     1       1.044   7.447   0.029  0.00  0.00    +0.264 C 
BRANCH  23  29
ATOM     24  C   UNL     1      -0.013   1.076   0.008  0.00  0.00    +0.001 A 
ATOM     25  C   UNL     1      -1.235   1.746   0.017  0.00  0.00    +0.001 A 
ATOM     26  C   UNL     1      -1.288   3.106   0.031  0.00  0.00    +0.008 A 
ATOM     27  C   UNL     1      -0.096   3.849   0.023  0.00  0.00    -0.018 A 
ATOM     28  C   UNL     1      -0.111   5.254   0.029  0.00  0.00    +0.015 A 
ATOM     29  C   UNL     1       1.064   5.940   0.022  0.00  0.00    -0.010 A 
ATOM     30  C   UNL     1       2.286   5.270   0.007  0.00  0.00    +0.007 A 
ATOM     31  C   UNL     1       2.340   3.910  -0.000  0.00  0.00    +0.009 A 
ATOM     32  C   UNL     1       1.147   3.167   0.008  0.00  0.00    -0.018 A 
ATOM     33  C   UNL     1       1.163   1.762   0.000  0.00  0.00    +0.008 A 
ENDBRANCH  23  29
ENDBRANCH  22  23
ENDBRANCH   1  22
TORSDOF 7
