REMARK  Name = ZINC43198468
REMARK  10 active torsions:
REMARK  status: ('A' for Active; 'I' for Inactive)
REMARK    1  A    between atoms: C_1  and  C_2
REMARK    2  A    between atoms: C_9  and  C_10
REMARK    3  A    between atoms: C_9  and  C_11
REMARK    4  A    between atoms: C_12  and  S_17
REMARK    5  A    between atoms: N_15  and  O_16
REMARK    6  A    between atoms: S_17  and  N_20
REMARK    7  A    between atoms: N_20  and  C_21
REMARK    8  A    between atoms: C_21  and  C_22
REMARK    9  A    between atoms: C_21  and  C_23
REMARK   10  A    between atoms: C_21  and  C_24
REMARK                            x       y       z     vdW  Elec       q    Type
REMARK                         _______ _______ _______ _____ _____    ______ ____
ROOT
ATOM      1  C   UNL     1       0.400   2.084   1.131  0.00  0.00    +0.009 C 
ATOM      2  C   UNL     1       0.369   0.588   0.815  0.00  0.00    +0.001 C 
ATOM      3  C   UNL     1       1.208   0.284  -0.463  0.00  0.00    +0.042 C 
ATOM      4  C   UNL     1       2.644   0.149   0.156  0.00  0.00    +0.016 C 
ATOM      5  C   UNL     1       2.253  -0.933   1.225  0.00  0.00    +0.027 C 
ATOM      6  C   UNL     1       1.062  -0.216   1.940  0.00  0.00    -0.027 C 
ATOM      7  C   UNL     1       0.098  -1.243   2.535  0.00  0.00    +0.011 C 
ATOM      8  C   UNL     1       1.581   0.727   3.028  0.00  0.00    +0.011 C 
ATOM      9  C   UNL     1       1.569  -1.993   0.308  0.00  0.00    +0.199 C 
ATOM     10  C   UNL     1       0.881  -1.177  -0.802  0.00  0.00    +0.087 C 
ATOM     11  N   UNL     1       0.197  -1.608  -1.794  0.00  0.00    -0.094 NA
ENDROOT
BRANCH   9  12
ATOM     12  S   UNL     1       2.810  -3.111  -0.398  0.00  0.00    +0.038 S 
ATOM     13  O   UNL     1       2.176  -4.247  -0.970  0.00  0.00    -0.158 OA
ATOM     14  O   UNL     1       3.773  -2.371  -1.135  0.00  0.00    -0.158 OA
BRANCH  12  15
ATOM     15  N   UNL     1       3.641  -3.703   0.907  0.00  0.00    -0.189 NA
ATOM     16  H   UNL     1       4.547  -3.405   1.080  0.00  0.00    +0.148 HD
BRANCH  15  17
ATOM     17  C   UNL     1       3.006  -4.677   1.799  0.00  0.00    +0.031 C 
ATOM     18  C   UNL     1       2.799  -5.995   1.050  0.00  0.00    +0.029 C 
ATOM     19  C   UNL     1       3.905  -4.917   3.014  0.00  0.00    +0.029 C 
ATOM     20  C   UNL     1       1.653  -4.136   2.264  0.00  0.00    +0.029 C 
ENDBRANCH  15  17
ENDBRANCH  12  15
ENDBRANCH   9  12
BRANCH  11  21
ATOM     21  O   UNL     1      -0.111  -2.987  -1.895  0.00  0.00    -0.409 OA
ATOM     22  H   UNL     1      -0.694  -3.206  -2.635  0.00  0.00    +0.328 HD
ENDBRANCH  11  21
TORSDOF 4
