REMARK  Name = ZINC08726658
REMARK  6 active torsions:
REMARK  status: ('A' for Active; 'I' for Inactive)
REMARK    1  A    between atoms: C_4  and  O_7
REMARK    2  A    between atoms: O_7  and  C_8
REMARK    3  A    between atoms: C_8  and  C_9
REMARK    4  A    between atoms: C_12  and  C_14
REMARK    5  A    between atoms: N_19  and  S_22
REMARK    6  A    between atoms: S_22  and  C_25
REMARK                            x       y       z     vdW  Elec       q    Type
REMARK                         _______ _______ _______ _____ _____    ______ ____
ROOT
ATOM      1  C   UNL     1       1.436   4.427   0.012  0.00  0.00    +0.282 C 
ATOM      2  O   UNL     1       2.644   4.356   0.139  0.00  0.00    -0.267 OA
ATOM      3  N   UNL     1       0.838   5.631  -0.078  0.00  0.00    -0.292 N 
ATOM      4  C   UNL     1      -0.628   5.740  -0.072  0.00  0.00    +0.125 C 
ATOM      5  C   UNL     1      -1.039   6.699   1.058  0.00  0.00    +0.128 C 
ATOM      6  N   UNL     1      -0.238   7.926   0.946  0.00  0.00    -0.173 NA
ATOM      7  C   UNL     1       1.228   7.816   0.934  0.00  0.00    +0.128 C 
ATOM      8  C   UNL     1       1.639   6.858  -0.190  0.00  0.00    +0.125 C 
ENDROOT
BRANCH   1  12
ATOM      9  C   UNL     1      -1.081   1.852  -0.287  0.00  0.00    +0.143 A 
ATOM     10  C   UNL     1      -0.017   1.078   0.023  0.00  0.00    +0.049 A 
ATOM     11  C   UNL     1       1.085   1.933   0.177  0.00  0.00    +0.055 A 
ATOM     12  C   UNL     1       0.631   3.202  -0.043  0.00  0.00    +0.190 A 
ATOM     13  O   UNL     1      -0.687   3.131  -0.321  0.00  0.00    -0.452 OA
BRANCH   9  14
ATOM     14  C   UNL     1      -2.479   1.356  -0.549  0.00  0.00    +0.303 C 
BRANCH  14  15
ATOM     15  O   UNL     1      -3.212   1.326   0.678  0.00  0.00    -0.484 OA
BRANCH  15  19
ATOM     16  C   UNL     1      -7.125   0.033   0.493  0.00  0.00    +0.000 A 
ATOM     17  C   UNL     1      -6.580   0.412   1.705  0.00  0.00    +0.004 A 
ATOM     18  C   UNL     1      -5.270   0.846   1.770  0.00  0.00    +0.045 A 
ATOM     19  C   UNL     1      -4.501   0.900   0.617  0.00  0.00    +0.121 A 
ATOM     20  C   UNL     1      -5.051   0.525  -0.600  0.00  0.00    +0.045 A 
ATOM     21  C   UNL     1      -6.360   0.086  -0.658  0.00  0.00    +0.004 A 
ENDBRANCH  15  19
ENDBRANCH  14  15
ENDBRANCH   9  14
ENDBRANCH   1  12
BRANCH   6  22
ATOM     22  S   UNL     1      -0.973   9.405   0.834  0.00  0.00    +0.067 S 
ATOM     23  O   UNL     1      -2.261   9.263   1.417  0.00  0.00    -0.152 OA
ATOM     24  O   UNL     1      -0.030  10.363   1.295  0.00  0.00    -0.152 OA
BRANCH  22  25
ATOM     25  C   UNL     1      -1.228   9.732  -0.878  0.00  0.00    +0.143 A 
ATOM     26  C   UNL     1      -2.293   9.421  -1.657  0.00  0.00    +0.036 A 
ATOM     27  C   UNL     1      -2.276   9.784  -2.991  0.00  0.00    +0.010 A 
ATOM     28  C   UNL     1      -1.192  10.431  -3.483  0.00  0.00    +0.047 A 
ATOM     29  S   UNL     1      -0.148  10.552  -2.039  0.00  0.00    -0.077 S 
ENDBRANCH  22  25
ENDBRANCH   6  22
TORSDOF 6
