REMARK  Name = ZINC19714637
REMARK  8 active torsions:
REMARK  status: ('A' for Active; 'I' for Inactive)
REMARK    1  A    between atoms: C_1  and  C_2
REMARK    2  A    between atoms: C_4  and  C_30
REMARK    3  A    between atoms: C_7  and  C_12
REMARK    4  A    between atoms: N_14  and  C_15
REMARK    5  A    between atoms: C_18  and  C_21
REMARK    6  A    between atoms: C_21  and  C_23
REMARK    7  A    between atoms: C_21  and  O_29
REMARK    8  A    between atoms: C_23  and  N_24
REMARK                            x       y       z     vdW  Elec       q    Type
REMARK                         _______ _______ _______ _____ _____    ______ ____
ROOT
ATOM      1  C   UNL     1       5.565   4.309   0.372  0.00  0.00    +0.265 C 
ATOM      2  O   UNL     1       4.671   4.995   0.830  0.00  0.00    -0.268 OA
ATOM      3  N   UNL     1       5.309   3.049  -0.032  0.00  0.00    -0.280 N 
ATOM      4  H   UNL     1       6.132   2.400  -0.364  0.00  0.00    +0.155 HD
ENDROOT
BRANCH   1  11
ATOM      5  C   UNL     1      12.781   5.709  -0.771  0.00  0.00    +0.044 C 
ATOM      6  C   UNL     1      11.338   5.885  -0.375  0.00  0.00    -0.048 A 
ATOM      7  C   UNL     1      10.915   7.093   0.165  0.00  0.00    +0.007 A 
ATOM      8  C   UNL     1       9.612   7.274   0.530  0.00  0.00    -0.041 A 
ATOM      9  C   UNL     1       8.690   6.233   0.359  0.00  0.00    +0.003 A 
ATOM     10  C   UNL     1       7.307   6.105   0.630  0.00  0.00    +0.041 A 
ATOM     11  C   UNL     1       6.926   4.855   0.259  0.00  0.00    +0.103 A 
ATOM     12  N   UNL     1       8.022   4.176  -0.237  0.00  0.00    -0.351 N 
ATOM     13  H   UNL     1       7.915   3.138  -0.585  0.00  0.00    +0.166 HD
ATOM     14  C   UNL     1       9.117   5.007  -0.189  0.00  0.00    +0.048 A 
ATOM     15  C   UNL     1      10.451   4.847  -0.553  0.00  0.00    +0.029 A 
ATOM     16  C   UNL     1       9.167   8.589   1.115  0.00  0.00    +0.044 C 
ENDBRANCH   1  11
BRANCH   3  17
ATOM     17  C   UNL     1       3.996   2.567  -0.028  0.00  0.00    +0.034 A 
ATOM     18  C   UNL     1       3.747   1.228   0.245  0.00  0.00    +0.023 A 
ATOM     19  C   UNL     1       2.450   0.755   0.248  0.00  0.00    +0.008 A 
ATOM     20  C   UNL     1       1.399   1.614  -0.019  0.00  0.00    -0.017 A 
ATOM     21  C   UNL     1       1.644   2.946  -0.296  0.00  0.00    +0.008 A 
ATOM     22  C   UNL     1       2.938   3.426  -0.296  0.00  0.00    +0.023 A 
BRANCH  20  23
ATOM     23  C   UNL     1      -0.016   1.094  -0.014  0.00  0.00    +0.166 C 
BRANCH  23  24
ATOM     24  O   UNL     1      -0.892   2.103   0.492  0.00  0.00    -0.385 OA
ATOM     25  H   UNL     1      -1.971   1.906   0.571  0.00  0.00    +0.210 HD
ENDBRANCH  23  24
BRANCH  23  26
ATOM     26  C   UNL     1      -0.430   0.729  -1.441  0.00  0.00    +0.181 C 
BRANCH  26  27
ATOM     27  N   UNL     1      -1.759   0.114  -1.421  0.00  0.00    -0.249 N 
ATOM     28  C   UNL     1      -2.839   0.505  -2.120  0.00  0.00    +0.219 A 
ATOM     29  N   UNL     1      -3.827  -0.301  -1.827  0.00  0.00    -0.223 NA
ATOM     30  C   UNL     1      -3.418  -1.215  -0.948  0.00  0.00    +0.244 A 
ATOM     31  N   UNL     1      -2.158  -1.006  -0.673  0.00  0.00    -0.158 NA
ENDBRANCH  26  27
ENDBRANCH  23  26
ENDBRANCH  20  23
ENDBRANCH   3  17
TORSDOF 6
