REMARK  Name = ZINC43754531
REMARK  5 active torsions:
REMARK  status: ('A' for Active; 'I' for Inactive)
REMARK    1  A    between atoms: C_1  and  N_2
REMARK    2  A    between atoms: N_2  and  C_3
REMARK    3  A    between atoms: N_2  and  C_18
REMARK    4  A    between atoms: C_3  and  C_4
REMARK    5  A    between atoms: C_18  and  C_19
REMARK                            x       y       z     vdW  Elec       q    Type
REMARK                         _______ _______ _______ _____ _____    ______ ____
ROOT
ATOM      1  C   UNL     1       0.684  -0.946  -1.028  0.00  0.00    -0.002 C 
ENDROOT
BRANCH   1   2
ATOM      2  C   UNL     1       2.186  -0.863  -0.938  0.00  0.00    +0.118 A 
ATOM      3  N   UNL     1       2.799   0.194  -1.438  0.00  0.00    -0.193 NA
ATOM      4  C   UNL     1       4.119   0.316  -1.384  0.00  0.00    +0.316 A 
ATOM      5  O   UNL     1       4.734   1.408  -1.901  0.00  0.00    -0.262 OA
ATOM      6  C   UNL     1       4.865  -0.702  -0.783  0.00  0.00    +0.220 A 
ATOM      7  C   UNL     1       4.171  -1.804  -0.267  0.00  0.00    +0.124 A 
ATOM      8  N   UNL     1       2.845  -1.844  -0.359  0.00  0.00    -0.230 NA
ATOM      9  C   UNL     1       5.202  -2.696   0.291  0.00  0.00    +0.046 A 
ATOM     10  C   UNL     1       5.170  -3.929   0.935  0.00  0.00    +0.014 A 
ATOM     11  C   UNL     1       6.346  -4.517   1.347  0.00  0.00    +0.001 A 
ATOM     12  C   UNL     1       7.558  -3.882   1.123  0.00  0.00    +0.004 A 
ATOM     13  C   UNL     1       7.603  -2.660   0.487  0.00  0.00    +0.047 A 
ATOM     14  C   UNL     1       6.427  -2.051   0.063  0.00  0.00    +0.138 A 
ATOM     15  O   UNL     1       6.184  -0.883  -0.571  0.00  0.00    -0.448 OA
ENDBRANCH   1   2
BRANCH   1  17
ATOM     16  C   UNL     1       0.397   1.110   0.174  0.00  0.00    -0.096 C 
ATOM     17  N   UNL     1       0.087  -0.326   0.162  0.00  0.00    +0.383 N 
ATOM     18  H   UNL     1       0.465  -0.759   0.992  0.00  0.00    -0.082 HD
BRANCH  17  19
ATOM     19  C   UNL     1      -1.370  -0.513   0.133  0.00  0.00    -0.072 C 
BRANCH  19  20
ATOM     20  C   UNL     1      -1.974  -0.018   1.449  0.00  0.00    -0.043 C 
ATOM     21  C   UNL     1      -3.354  -0.648   1.645  0.00  0.00    +0.008 C 
ATOM     22  C   UNL     1      -3.958  -0.154   2.961  0.00  0.00    -0.010 C 
ATOM     23  C   UNL     1      -4.094   1.370   2.919  0.00  0.00    +0.007 C 
ATOM     24  C   UNL     1      -2.713   2.000   2.723  0.00  0.00    -0.010 C 
ATOM     25  C   UNL     1      -2.110   1.505   1.407  0.00  0.00    +0.008 C 
ATOM     26  C   UNL     1      -1.801   1.601   3.885  0.00  0.00    +0.007 C 
ATOM     27  C   UNL     1      -1.665   0.077   3.926  0.00  0.00    -0.010 C 
ATOM     28  C   UNL     1      -3.046  -0.553   4.123  0.00  0.00    +0.007 C 
ATOM     29  C   UNL     1      -1.061  -0.417   2.611  0.00  0.00    +0.008 C 
ENDBRANCH  19  20
ENDBRANCH  17  19
ENDBRANCH   1  17
TORSDOF 4
