REMARK  Name = ZINC20568352
REMARK  5 active torsions:
REMARK  status: ('A' for Active; 'I' for Inactive)
REMARK    1  A    between atoms: C_1  and  C_2
REMARK    2  A    between atoms: C_2  and  C_25
REMARK    3  A    between atoms: C_6  and  C_16
REMARK    4  A    between atoms: C_8  and  C_14
REMARK    5  A    between atoms: C_10  and  N_13
REMARK                            x       y       z     vdW  Elec       q    Type
REMARK                         _______ _______ _______ _____ _____    ______ ____
ROOT
ATOM      1  C   UNL     1       1.001  -0.730   4.173  0.00  0.00    +0.012 C 
ATOM      2  C   UNL     1       2.193  -1.350   3.442  0.00  0.00    -0.021 C 
ATOM      3  C   UNL     1       2.891  -0.283   2.596  0.00  0.00    +0.081 C 
ATOM      4  C   UNL     1       1.925   0.265   1.570  0.00  0.00    +0.108 C 
ATOM      5  C   UNL     1       0.965  -0.517   1.048  0.00  0.00    +0.041 C 
ATOM      6  C   UNL     1       0.002  -0.004   0.002  0.00  0.00    +0.077 C 
ATOM      7  C   UNL     1      -0.019   1.525   0.010  0.00  0.00    +0.159 C 
ATOM      8  C   UNL     1       1.435   2.017  -0.001  0.00  0.00    +0.257 C 
ATOM      9  O   UNL     1       2.070   1.559   1.220  0.00  0.00    -0.477 OA
ATOM     10  C   UNL     1       0.814  -1.858   1.458  0.00  0.00    +0.164 C 
ATOM     11  O   UNL     1      -0.055  -2.540   0.952  0.00  0.00    -0.292 OA
ATOM     12  C   UNL     1       1.705  -2.462   2.507  0.00  0.00    +0.086 C 
ATOM     13  C   UNL     1       3.179  -1.928   4.459  0.00  0.00    +0.012 C 
ENDROOT
BRANCH   6  14
ATOM     14  C   UNL     1      -1.381  -0.524   0.298  0.00  0.00    -0.038 A 
ATOM     15  C   UNL     1      -1.997  -0.208   1.495  0.00  0.00    +0.004 A 
ATOM     16  C   UNL     1      -3.267  -0.681   1.764  0.00  0.00    +0.000 A 
ATOM     17  C   UNL     1      -3.918  -1.478   0.842  0.00  0.00    +0.000 A 
ATOM     18  C   UNL     1      -3.300  -1.799  -0.353  0.00  0.00    +0.000 A 
ATOM     19  C   UNL     1      -2.032  -1.322  -0.625  0.00  0.00    +0.004 A 
ENDBRANCH   6  14
BRANCH   8  20
ATOM     20  N   UNL     1       2.139   1.463  -1.165  0.00  0.00    -0.295 NA
ATOM     21  H   UNL     1       3.180   1.819  -1.168  0.00  0.00    +0.122 HD
ATOM     22  H   UNL     1       2.127   0.364  -1.112  0.00  0.00    +0.122 HD
ENDBRANCH   8  20
BRANCH   7  23
ATOM     23  C   UNL     1      -0.698   2.007   1.224  0.00  0.00    +0.072 C 
ATOM     24  N   UNL     1      -1.223   2.379   2.160  0.00  0.00    -0.196 NA
ENDBRANCH   7  23
TORSDOF 3
