REMARK  Name = ZINC29725679
REMARK  8 active torsions:
REMARK  status: ('A' for Active; 'I' for Inactive)
REMARK    1  A    between atoms: C_1  and  C_2
REMARK    2  A    between atoms: C_2  and  C_4
REMARK    3  A    between atoms: C_2  and  N_7
REMARK    4  A    between atoms: N_7  and  C_8
REMARK    5  A    between atoms: N_7  and  C_29
REMARK    6  A    between atoms: C_8  and  C_9
REMARK    7  A    between atoms: C_18  and  S_20
REMARK    8  A    between atoms: S_20  and  N_23
REMARK                            x       y       z     vdW  Elec       q    Type
REMARK                         _______ _______ _______ _____ _____    ______ ____
ROOT
ATOM      1  C   UNL     1       2.621   4.016  -0.255  0.00  0.00    +0.203 C 
ATOM      2  O   UNL     1       3.605   3.316  -0.363  0.00  0.00    -0.277 OA
ATOM      3  N   UNL     1       2.745   5.359  -0.267  0.00  0.00    -0.272 N 
ATOM      4  C   UNL     1       1.633   6.306  -0.151  0.00  0.00    +0.118 C 
ATOM      5  C   UNL     1       2.282   7.698  -0.212  0.00  0.00    +0.056 C 
ATOM      6  C   UNL     1       3.760   7.423  -0.373  0.00  0.00    -0.023 A 
ATOM      7  C   UNL     1       3.953   6.051  -0.396  0.00  0.00    +0.040 A 
ATOM      8  C   UNL     1       5.249   5.551  -0.538  0.00  0.00    +0.026 A 
ATOM      9  C   UNL     1       6.318   6.414  -0.653  0.00  0.00    +0.030 A 
ATOM     10  C   UNL     1       6.115   7.782  -0.629  0.00  0.00    +0.106 A 
ATOM     11  C   UNL     1       4.834   8.284  -0.489  0.00  0.00    +0.034 A 
ENDROOT
BRANCH  10  12
ATOM     12  S   UNL     1       7.484   8.881  -0.775  0.00  0.00    +0.061 S 
ATOM     13  O   UNL     1       7.086  10.107  -0.176  0.00  0.00    -0.153 OA
ATOM     14  O   UNL     1       8.631   8.160  -0.347  0.00  0.00    -0.153 OA
BRANCH  12  15
ATOM     15  N   UNL     1       7.694   9.189  -2.389  0.00  0.00    -0.177 NA
ATOM     16  C   UNL     1       8.577   8.344  -3.204  0.00  0.00    +0.109 C 
ATOM     17  C   UNL     1       7.786   7.841  -4.421  0.00  0.00    +0.017 C 
ATOM     18  C   UNL     1       7.197   9.038  -5.170  0.00  0.00    +0.003 C 
ATOM     19  C   UNL     1       6.235   9.794  -4.250  0.00  0.00    +0.017 C 
ATOM     20  C   UNL     1       7.004  10.316  -3.032  0.00  0.00    +0.109 C 
ENDBRANCH  12  15
ENDBRANCH  10  12
BRANCH   1  21
ATOM     21  C   UNL     1       1.260   3.387  -0.109  0.00  0.00    +0.020 C 
BRANCH  21  22
ATOM     22  N   UNL     1       1.403   1.927  -0.024  0.00  0.00    +0.389 N 
ATOM     23  H   UNL     1       2.261   1.708   0.628  0.00  0.00    -0.080 HD
BRANCH  22  24
ATOM     24  C   UNL     1       0.210   1.316   0.578  0.00  0.00    -0.068 C 
ATOM     25  C   UNL     1      -1.023   2.203   0.760  0.00  0.00    -0.017 C 
ATOM     26  C   UNL     1      -0.194   1.785   1.977  0.00  0.00    -0.017 C 
ENDBRANCH  22  24
BRANCH  22  28
ATOM     27  C   UNL     1       0.474   1.566  -2.262  0.00  0.00    -0.013 C 
ATOM     28  C   UNL     1       1.680   1.348  -1.345  0.00  0.00    -0.068 C 
BRANCH  28  29
ATOM     29  C   UNL     1       1.945  -0.152  -1.199  0.00  0.00    -0.025 C 
ATOM     30  C   UNL     1       3.369  -0.647  -1.461  0.00  0.00    +0.002 C 
ATOM     31  C   UNL     1       2.258  -0.941  -2.472  0.00  0.00    +0.002 C 
ENDBRANCH  28  29
ENDBRANCH  22  28
ENDBRANCH  21  22
ENDBRANCH   1  21
TORSDOF 7
