REMARK  Name = ZINC50585800
REMARK  7 active torsions:
REMARK  status: ('A' for Active; 'I' for Inactive)
REMARK    1  A    between atoms: C_1  and  C_2
REMARK    2  A    between atoms: C_4  and  C_21
REMARK    3  A    between atoms: N_5  and  C_7
REMARK    4  A    between atoms: C_7  and  C_9
REMARK    5  A    between atoms: C_7  and  C_10
REMARK    6  A    between atoms: N_12  and  C_13
REMARK    7  A    between atoms: C_18  and  N_19
REMARK                            x       y       z     vdW  Elec       q    Type
REMARK                         _______ _______ _______ _____ _____    ______ ____
ROOT
ATOM      1  C   UNL     1       1.291  -3.268   2.348  0.00  0.00    +0.242 C 
ATOM      2  O   UNL     1       2.073  -2.345   2.258  0.00  0.00    -0.273 OA
ATOM      3  N   UNL     1       1.520  -4.263   3.227  0.00  0.00    -0.282 N 
ATOM      4  H   UNL     1       0.857  -4.959   3.357  0.00  0.00    +0.155 HD
ENDROOT
BRANCH   3   5
ATOM      5  C   UNL     1       2.719  -4.293   3.956  0.00  0.00    +0.054 A 
ATOM      6  C   UNL     1       3.850  -3.665   3.458  0.00  0.00    +0.028 A 
ATOM      7  C   UNL     1       5.030  -3.694   4.176  0.00  0.00    +0.040 A 
ATOM      8  C   UNL     1       5.087  -4.350   5.395  0.00  0.00    +0.125 A 
ATOM      9  C   UNL     1       3.962  -4.979   5.899  0.00  0.00    +0.063 A 
ATOM     10  C   UNL     1       2.773  -4.948   5.185  0.00  0.00    +0.049 A 
ATOM     11  F   UNL     1       6.244  -4.376   6.093  0.00  0.00    -0.205 F 
BRANCH  10  12
ATOM     12  N   UNL     1       1.633  -5.578   5.695  0.00  0.00    -0.356 N 
ATOM     13  H   UNL     1       0.803  -5.559   5.194  0.00  0.00    +0.142 HD
ATOM     14  H   UNL     1       1.672  -6.034   6.551  0.00  0.00    +0.142 HD
ENDBRANCH  10  12
ENDBRANCH   3   5
BRANCH   1  15
ATOM     15  C   UNL     1       0.062  -3.303   1.475  0.00  0.00    +0.190 C 
ATOM     16  C   UNL     1      -1.189  -3.313   2.356  0.00  0.00    +0.042 C 
BRANCH  15  21
ATOM     17  C   UNL     1      -0.022   1.493  -0.006  0.00  0.00    +0.069 C 
ATOM     18  C   UNL     1       0.005  -0.014  -0.013  0.00  0.00    +0.078 A 
ATOM     19  C   UNL     1       0.022  -0.829  -1.150  0.00  0.00    +0.084 A 
ATOM     20  C   UNL     1       0.045  -2.119  -0.737  0.00  0.00    +0.056 A 
ATOM     21  N   UNL     1       0.042  -2.118   0.613  0.00  0.00    -0.255 N 
ATOM     22  N   UNL     1       0.022  -0.786   1.044  0.00  0.00    -0.174 NA
ATOM     23  C   UNL     1       0.069  -3.336  -1.626  0.00  0.00    +0.067 C 
ATOM     24 CL   UNL     1       0.015  -0.284  -2.798  0.00  0.00    -0.080 Cl
ENDBRANCH  15  21
ENDBRANCH   1  15
TORSDOF 4
