REMARK  Name = ZINC22263783
REMARK  2 active torsions:
REMARK  status: ('A' for Active; 'I' for Inactive)
REMARK    1  A    between atoms: C_1  and  C_2
REMARK    2  A    between atoms: C_12  and  C_14
REMARK                            x       y       z     vdW  Elec       q    Type
REMARK                         _______ _______ _______ _____ _____    ______ ____
ROOT
ATOM      1  C   UNL     1       2.202   1.069  -1.073  0.00  0.00    +0.029 C 
ATOM      2  C   UNL     1       2.427   0.082   0.075  0.00  0.00    +0.083 C 
ATOM      3  C   UNL     1       1.094  -0.552   0.503  0.00  0.00    +0.059 C 
ATOM      4  C   UNL     1       1.280  -2.032   0.256  0.00  0.00    -0.024 A 
ATOM      5  C   UNL     1       0.423  -3.099   0.452  0.00  0.00    +0.005 A 
ATOM      6  C   UNL     1       0.832  -4.383   0.145  0.00  0.00    +0.000 A 
ATOM      7  C   UNL     1       2.101  -4.599  -0.360  0.00  0.00    +0.002 A 
ATOM      8  C   UNL     1       2.959  -3.538  -0.557  0.00  0.00    +0.024 A 
ATOM      9  C   UNL     1       2.554  -2.238  -0.249  0.00  0.00    +0.040 A 
ATOM     10  N   UNL     1       3.260  -1.037  -0.372  0.00  0.00    -0.265 N 
ATOM     11  C   UNL     1       4.521  -0.926  -0.834  0.00  0.00    +0.262 C 
ATOM     12  O   UNL     1       5.158  -1.923  -1.103  0.00  0.00    -0.271 OA
ENDROOT
BRANCH  11  13
ATOM     13  C   UNL     1       5.139   0.436  -1.017  0.00  0.00    +0.276 C 
ATOM     14  C   UNL     1       5.353   1.092   0.354  0.00  0.00    +0.155 C 
ATOM     15  N   UNL     1       6.002   2.394   0.128  0.00  0.00    -0.337 N 
ATOM     16  C   UNL     1       7.030   2.454  -0.826  0.00  0.00    +0.070 A 
ATOM     17  C   UNL     1       7.864   3.561  -0.881  0.00  0.00    +0.026 A 
ATOM     18  C   UNL     1       8.873   3.617  -1.825  0.00  0.00    +0.002 A 
ATOM     19  C   UNL     1       9.050   2.571  -2.712  0.00  0.00    +0.004 A 
ATOM     20  C   UNL     1       8.222   1.465  -2.660  0.00  0.00    +0.047 A 
ATOM     21  C   UNL     1       7.209   1.399  -1.716  0.00  0.00    +0.142 A 
ATOM     22  O   UNL     1       6.405   0.304  -1.668  0.00  0.00    -0.476 OA
ATOM     23  H   UNL     1       5.677   3.277   0.699  0.00  0.00    +0.146 HD
ENDBRANCH  11  13
TORSDOF 1
