REMARK  Name = ZINC10152613
REMARK  9 active torsions:
REMARK  status: ('A' for Active; 'I' for Inactive)
REMARK    1  A    between atoms: C_1  and  C_2
REMARK    2  A    between atoms: C_5  and  N_9
REMARK    3  A    between atoms: C_7  and  C_8
REMARK    4  A    between atoms: C_11  and  C_16
REMARK    5  A    between atoms: N_18  and  N_19
REMARK    6  A    between atoms: C_20  and  C_21
REMARK    7  A    between atoms: C_20  and  C_22
REMARK    8  A    between atoms: C_25  and  O_29
REMARK    9  A    between atoms: C_27  and  O_28
REMARK                            x       y       z     vdW  Elec       q    Type
REMARK                         _______ _______ _______ _____ _____    ______ ____
ROOT
ATOM      1  C   UNL     1      -0.359   6.777  -0.390  0.00  0.00    +0.237 C 
ATOM      2  O   UNL     1      -1.220   6.468  -1.187  0.00  0.00    -0.274 OA
ATOM      3  N   UNL     1      -0.043   8.075  -0.209  0.00  0.00    -0.206 N 
ATOM      4  H   UNL     1       0.645   8.322   0.427  0.00  0.00    +0.177 HD
ENDROOT
BRANCH   1   7
ATOM      5  N   UNL     1       1.162   3.485   0.009  0.00  0.00    -0.271 N 
ATOM      6  C   UNL     1      -0.055   4.300  -0.087  0.00  0.00    +0.127 C 
ATOM      7  C   UNL     1       0.357   5.710   0.397  0.00  0.00    +0.103 C 
ATOM      8  C   UNL     1       1.872   5.718   0.088  0.00  0.00    +0.110 C 
ATOM      9  C   UNL     1       2.260   4.255   0.099  0.00  0.00    +0.221 C 
ATOM     10  O   UNL     1       3.396   3.839   0.177  0.00  0.00    -0.275 OA
BRANCH   5  15
ATOM     11  C   UNL     1       1.225  -2.188  -0.018  0.00  0.00    +0.044 C 
ATOM     12  C   UNL     1       1.208  -0.681  -0.011  0.00  0.00    -0.047 A 
ATOM     13  C   UNL     1       2.399   0.023  -0.035  0.00  0.00    +0.005 A 
ATOM     14  C   UNL     1       2.387   1.404  -0.028  0.00  0.00    +0.024 A 
ATOM     15  C   UNL     1       1.177   2.086   0.002  0.00  0.00    +0.037 A 
ATOM     16  C   UNL     1      -0.016   1.377   0.025  0.00  0.00    +0.027 A 
ATOM     17  C   UNL     1       0.003  -0.004   0.019  0.00  0.00    -0.046 A 
ATOM     18  C   UNL     1      -1.292  -0.775   0.046  0.00  0.00    +0.044 C 
ENDBRANCH   5  15
ENDBRANCH   1   7
BRANCH   3  19
ATOM     19  N   UNL     1      -0.709   9.067  -0.942  0.00  0.00    -0.184 NA
ATOM     20  C   UNL     1      -0.404  10.317  -0.767  0.00  0.00    +0.067 C 
ATOM     21  C   UNL     1       0.665  10.701   0.222  0.00  0.00    +0.068 C 
BRANCH  20  22
ATOM     22  C   UNL     1      -1.104  11.359  -1.537  0.00  0.00    +0.039 A 
ATOM     23  C   UNL     1      -0.779  12.706  -1.352  0.00  0.00    +0.017 A 
ATOM     24  C   UNL     1      -1.436  13.678  -2.074  0.00  0.00    +0.046 A 
ATOM     25  C   UNL     1      -2.422  13.324  -2.987  0.00  0.00    +0.120 A 
ATOM     26  C   UNL     1      -2.753  11.991  -3.178  0.00  0.00    +0.091 A 
ATOM     27  C   UNL     1      -2.096  11.005  -2.463  0.00  0.00    +0.129 A 
BRANCH  27  28
ATOM     28  O   UNL     1      -2.415   9.698  -2.653  0.00  0.00    -0.506 OA
ATOM     29  H   UNL     1      -3.119   9.377  -2.074  0.00  0.00    +0.292 HD
ENDBRANCH  27  28
BRANCH  25  30
ATOM     30  O   UNL     1      -3.065  14.289  -3.696  0.00  0.00    -0.507 OA
ATOM     31  H   UNL     1      -2.640  14.508  -4.537  0.00  0.00    +0.292 HD
ENDBRANCH  25  30
ENDBRANCH  20  22
ENDBRANCH   3  19
TORSDOF 6
