REMARK  Name = ZINC06866401
REMARK  9 active torsions:
REMARK  status: ('A' for Active; 'I' for Inactive)
REMARK    1  A    between atoms: C_1  and  C_2
REMARK    2  A    between atoms: C_7  and  S_17
REMARK    3  A    between atoms: C_12  and  C_14
REMARK    4  A    between atoms: S_17  and  N_20
REMARK    5  A    between atoms: N_20  and  C_21
REMARK    6  A    between atoms: C_24  and  O_29
REMARK    7  A    between atoms: C_26  and  O_27
REMARK    8  A    between atoms: O_27  and  C_28
REMARK    9  A    between atoms: O_29  and  C_30
REMARK                            x       y       z     vdW  Elec       q    Type
REMARK                         _______ _______ _______ _____ _____    ______ ____
ROOT
ATOM      1  C   UNL     1       0.465  -1.727   1.767  0.00  0.00    +0.029 C 
ATOM      2  C   UNL     1       0.262  -0.971   0.453  0.00  0.00    +0.083 C 
ATOM      3  C   UNL     1      -1.130  -0.319   0.422  0.00  0.00    +0.059 C 
ATOM      4  C   UNL     1      -0.854   1.163   0.306  0.00  0.00    -0.022 A 
ATOM      5  C   UNL     1      -1.714   2.243   0.241  0.00  0.00    +0.034 A 
ATOM      6  C   UNL     1      -1.211   3.526   0.132  0.00  0.00    +0.109 A 
ATOM      7  C   UNL     1       0.157   3.728   0.099  0.00  0.00    +0.030 A 
ATOM      8  C   UNL     1       1.019   2.655   0.168  0.00  0.00    +0.026 A 
ATOM      9  C   UNL     1       0.518   1.355   0.273  0.00  0.00    +0.040 A 
ATOM     10  N   UNL     1       1.210   0.143   0.356  0.00  0.00    -0.268 N 
ATOM     11  C   UNL     1       2.552   0.017   0.348  0.00  0.00    +0.223 C 
ATOM     12  O   UNL     1       3.252   0.993   0.179  0.00  0.00    -0.275 OA
ENDROOT
BRANCH  11  13
ATOM     13  C   UNL     1       3.183  -1.337   0.549  0.00  0.00    +0.076 C 
ATOM     14  C   UNL     1       4.059  -1.531   1.789  0.00  0.00    +0.013 C 
ATOM     15  C   UNL     1       4.702  -1.437   0.404  0.00  0.00    +0.013 C 
ENDBRANCH  11  13
BRANCH   6  16
ATOM     16  S   UNL     1      -2.309   4.901   0.043  0.00  0.00    +0.072 S 
ATOM     17  O   UNL     1      -3.529   4.486   0.643  0.00  0.00    -0.150 OA
ATOM     18  O   UNL     1      -1.582   6.032   0.500  0.00  0.00    -0.150 OA
BRANCH  16  19
ATOM     19  N   UNL     1      -2.636   5.164  -1.559  0.00  0.00    -0.213 N 
ATOM     20  H   UNL     1      -2.405   6.013  -1.968  0.00  0.00    +0.174 HD
BRANCH  19  21
ATOM     21  C   UNL     1      -3.246   4.160  -2.325  0.00  0.00    +0.090 A 
ATOM     22  C   UNL     1      -4.199   3.332  -1.750  0.00  0.00    +0.032 A 
ATOM     23  C   UNL     1      -4.804   2.345  -2.506  0.00  0.00    +0.048 A 
ATOM     24  C   UNL     1      -4.451   2.174  -3.837  0.00  0.00    +0.124 A 
ATOM     25  C   UNL     1      -3.495   2.996  -4.414  0.00  0.00    +0.093 A 
ATOM     26  C   UNL     1      -2.891   3.989  -3.660  0.00  0.00    +0.146 A 
BRANCH  26  27
ATOM     27  O   UNL     1      -1.953   4.796  -4.225  0.00  0.00    -0.493 OA
ATOM     28  C   UNL     1      -1.639   4.564  -5.599  0.00  0.00    +0.277 C 
ENDBRANCH  26  27
BRANCH  24  29
ATOM     29  O   UNL     1      -5.044   1.199  -4.576  0.00  0.00    -0.495 OA
ATOM     30  C   UNL     1      -6.021   0.389  -3.919  0.00  0.00    +0.277 C 
ENDBRANCH  24  29
ENDBRANCH  19  21
ENDBRANCH  16  19
ENDBRANCH   6  16
TORSDOF 6
