REMARK  Name = ZINC05027853
REMARK  3 active torsions:
REMARK  status: ('A' for Active; 'I' for Inactive)
REMARK    1  A    between atoms: C_3  and  N_24
REMARK    2  A    between atoms: C_6  and  C_7
REMARK    3  A    between atoms: C_7  and  N_8
REMARK                            x       y       z     vdW  Elec       q    Type
REMARK                         _______ _______ _______ _____ _____    ______ ____
ROOT
ATOM      1  N   UNL     1      -1.725  -1.018  -1.368  0.00  0.00    -0.237 N 
ATOM      2  C   UNL     1      -2.510  -0.168  -2.040  0.00  0.00    +0.226 C 
ATOM      3  O   UNL     1      -2.947   0.875  -1.604  0.00  0.00    -0.275 OA
ATOM      4  C   UNL     1      -2.767  -0.709  -3.428  0.00  0.00    +0.095 C 
ATOM      5  C   UNL     1      -2.011   0.192  -4.453  0.00  0.00    +0.025 C 
ATOM      6  C   UNL     1      -1.600  -0.880  -5.528  0.00  0.00    +0.016 C 
ATOM      7  C   UNL     1      -0.825  -1.763  -4.484  0.00  0.00    +0.025 C 
ATOM      8  C   UNL     1      -1.977  -2.052  -3.440  0.00  0.00    +0.095 C 
ATOM      9  C   UNL     1      -1.363  -2.104  -2.059  0.00  0.00    +0.226 C 
ATOM     10  O   UNL     1      -0.654  -2.995  -1.643  0.00  0.00    -0.275 OA
ATOM     11  C   UNL     1       0.037  -0.684  -3.816  0.00  0.00    -0.027 C 
ATOM     12  C   UNL     1      -0.655   0.461  -3.788  0.00  0.00    -0.027 C 
ENDROOT
BRANCH   1  13
ATOM     13  C   UNL     1      -1.293  -0.775   0.010  0.00  0.00    +0.151 C 
BRANCH  13  19
ATOM     14  C   UNL     1      -0.017   1.378   0.010  0.00  0.00    +0.007 A 
ATOM     15  C   UNL     1       1.171   2.086   0.002  0.00  0.00    +0.033 A 
ATOM     16  C   UNL     1       2.377   1.411  -0.013  0.00  0.00    +0.126 A 
ATOM     17  C   UNL     1       2.396   0.029  -0.020  0.00  0.00    +0.033 A 
ATOM     18  C   UNL     1       1.208  -0.679  -0.012  0.00  0.00    +0.007 A 
ATOM     19  C   UNL     1       0.002  -0.004   0.002  0.00  0.00    -0.029 A 
BRANCH  16  20
ATOM     20  N   UNL     1       3.649   2.168  -0.022  0.00  0.00    +0.056 N 
ATOM     21  O   UNL     1       3.633   3.377  -0.016  0.00  0.00    -0.126 OA
ATOM     22  O   UNL     1       4.704   1.578  -0.035  0.00  0.00    -0.126 OA
ENDBRANCH  16  20
ENDBRANCH  13  19
ENDBRANCH   1  13
TORSDOF 3
