REMARK  Name = ZINC13958088
REMARK  3 active torsions:
REMARK  status: ('A' for Active; 'I' for Inactive)
REMARK    1  A    between atoms: C_2  and  C_26
REMARK    2  A    between atoms: C_7  and  C_9
REMARK    3  A    between atoms: C_18  and  N_21
REMARK                            x       y       z     vdW  Elec       q    Type
REMARK                         _______ _______ _______ _____ _____    ______ ____
ROOT
ATOM      1  C   UNL     1      -2.917   4.295  -7.281  0.00  0.00    +0.072 A 
ATOM      2  C   UNL     1      -2.487   5.332  -6.521  0.00  0.00    +0.057 A 
ATOM      3  N   UNL     1      -1.827   5.066  -5.411  0.00  0.00    -0.229 NA
ATOM      4  C   UNL     1      -1.587   3.823  -5.040  0.00  0.00    +0.165 A 
ATOM      5  S   UNL     1      -2.320   2.910  -6.322  0.00  0.00    -0.060 S 
ATOM      6  N   UNL     1      -0.914   3.363  -3.914  0.00  0.00    -0.264 N 
ATOM      7  C   UNL     1      -0.771   2.038  -3.709  0.00  0.00    +0.225 C 
ATOM      8  O   UNL     1      -1.229   1.248  -4.507  0.00  0.00    -0.275 OA
ATOM      9  H   UNL     1      -0.499   4.079  -3.190  0.00  0.00    +0.157 HD
ENDROOT
BRANCH   7  10
ATOM     10  C   UNL     1      -0.043   1.539  -2.488  0.00  0.00    +0.050 C 
ATOM     11  C   UNL     1       1.393   2.069  -2.499  0.00  0.00    +0.020 C 
ATOM     12  C   UNL     1       2.133   1.562  -1.259  0.00  0.00    -0.007 C 
ATOM     13  C   UNL     1       1.417   2.055  -0.000  0.00  0.00    +0.007 C 
ATOM     14  C   UNL     1      -0.019   1.526   0.010  0.00  0.00    -0.007 C 
ATOM     15  C   UNL     1      -0.759   2.033  -1.229  0.00  0.00    +0.020 C 
ATOM     16  C   UNL     1       0.002  -0.004   0.002  0.00  0.00    +0.035 C 
ATOM     17  C   UNL     1       0.718  -0.497  -1.257  0.00  0.00    +0.086 C 
ATOM     18  C   UNL     1       2.154   0.032  -1.268  0.00  0.00    +0.035 C 
ATOM     19  C   UNL     1      -0.022   0.009  -2.496  0.00  0.00    +0.048 C 
BRANCH  17  20
ATOM     20  N   UNL     1       0.738  -1.962  -1.265  0.00  0.00    -0.157 N 
ATOM     21  N   UNL     1       1.286  -2.707  -0.367  0.00  0.00    -0.139 NA
ATOM     22  C   UNL     1       1.099  -3.958  -0.712  0.00  0.00    +0.270 A 
ATOM     23  N   UNL     1       0.421  -3.946  -1.860  0.00  0.00    -0.116 NA
ATOM     24  N   UNL     1       0.215  -2.711  -2.173  0.00  0.00    -0.046 NA
ENDBRANCH  17  20
ENDBRANCH   7  10
BRANCH   2  25
ATOM     25  C   UNL     1      -2.755   6.755  -6.937  0.00  0.00    +0.014 C 
ATOM     26  C   UNL     1      -4.210   6.888  -7.392  0.00  0.00    +0.016 C 
ATOM     27  C   UNL     1      -4.482   8.333  -7.813  0.00  0.00    -0.010 C 
ATOM     28  C   UNL     1      -4.232   9.266  -6.627  0.00  0.00    +0.007 C 
ATOM     29  C   UNL     1      -2.777   9.133  -6.172  0.00  0.00    -0.010 C 
ATOM     30  C   UNL     1      -2.504   7.688  -5.750  0.00  0.00    +0.016 C 
ATOM     31  C   UNL     1      -1.845   9.513  -7.325  0.00  0.00    +0.007 C 
ATOM     32  C   UNL     1      -2.096   8.580  -8.511  0.00  0.00    -0.010 C 
ATOM     33  C   UNL     1      -3.551   8.713  -8.966  0.00  0.00    +0.007 C 
ATOM     34  C   UNL     1      -1.823   7.134  -8.090  0.00  0.00    +0.016 C 
ENDBRANCH   2  25
TORSDOF 3
