REMARK  Name = ZINC04483483
REMARK  3 active torsions:
REMARK  status: ('A' for Active; 'I' for Inactive)
REMARK    1  A    between atoms: C_6  and  C_7
REMARK    2  A    between atoms: C_7  and  N_8
REMARK    3  A    between atoms: N_15  and  C_18
REMARK                            x       y       z     vdW  Elec       q    Type
REMARK                         _______ _______ _______ _____ _____    ______ ____
ROOT
ATOM      1  N   UNL     1      -1.726  -1.017  -1.368  0.00  0.00    -0.219 N 
ATOM      2  C   UNL     1      -1.409  -2.152  -2.219  0.00  0.00    +0.216 C 
ATOM      3  C   UNL     1      -2.801  -2.176  -2.956  0.00  0.00    +0.246 C 
ATOM      4  C   UNL     1      -2.777  -3.475  -3.587  0.00  0.00    +0.255 C 
ATOM      5  O   UNL     1      -3.274  -3.788  -4.647  0.00  0.00    -0.272 OA
ATOM      6  N   UNL     1      -2.071  -4.278  -2.726  0.00  0.00    -0.207 N 
ATOM      7  C   UNL     1      -1.437  -3.564  -1.725  0.00  0.00    +0.251 C 
ATOM      8  O   UNL     1      -1.002  -3.981  -0.673  0.00  0.00    -0.273 OA
ATOM      9  N   UNL     1      -3.107  -0.831  -3.130  0.00  0.00    -0.156 NA
ATOM     10  N   UNL     1      -2.557  -0.199  -2.180  0.00  0.00    -0.082 NA
ENDROOT
BRANCH   6  11
ATOM     11  C   UNL     1      -1.988  -5.673  -2.851  0.00  0.00    +0.044 A 
ATOM     12  C   UNL     1      -1.255  -6.411  -1.932  0.00  0.00    +0.027 A 
ATOM     13  C   UNL     1      -1.175  -7.784  -2.057  0.00  0.00    +0.040 A 
ATOM     14  C   UNL     1      -1.824  -8.424  -3.099  0.00  0.00    +0.124 A 
ATOM     15  C   UNL     1      -2.555  -7.689  -4.018  0.00  0.00    +0.040 A 
ATOM     16  C   UNL     1      -2.643  -6.317  -3.892  0.00  0.00    +0.027 A 
ATOM     17  F   UNL     1      -1.743  -9.767  -3.221  0.00  0.00    -0.205 F 
ENDBRANCH   6  11
BRANCH   1  18
ATOM     18  C   UNL     1      -1.293  -0.775   0.010  0.00  0.00    +0.163 C 
BRANCH  18  24
ATOM     19  C   UNL     1      -0.017   1.378   0.010  0.00  0.00    +0.008 A 
ATOM     20  C   UNL     1       1.170   2.086   0.002  0.00  0.00    +0.038 A 
ATOM     21  C   UNL     1       2.379   1.410  -0.013  0.00  0.00    +0.123 A 
ATOM     22  C   UNL     1       2.396   0.026  -0.021  0.00  0.00    +0.038 A 
ATOM     23  C   UNL     1       1.208  -0.680  -0.013  0.00  0.00    +0.008 A 
ATOM     24  C   UNL     1       0.002  -0.004   0.002  0.00  0.00    -0.028 A 
ATOM     25  F   UNL     1       3.540   2.101  -0.021  0.00  0.00    -0.205 F 
ENDBRANCH  18  24
ENDBRANCH   1  18
TORSDOF 3
