REMARK  Name = ZINC08503362
REMARK  6 active torsions:
REMARK  status: ('A' for Active; 'I' for Inactive)
REMARK    1  A    between atoms: C_1  and  C_2
REMARK    2  A    between atoms: C_2  and  C_3
REMARK    3  A    between atoms: C_2  and  C_4
REMARK    4  A    between atoms: C_4  and  N_5
REMARK    5  A    between atoms: C_8  and  C_12
REMARK    6  A    between atoms: C_8  and  C_13
REMARK                            x       y       z     vdW  Elec       q    Type
REMARK                         _______ _______ _______ _____ _____    ______ ____
ROOT
ATOM      1  N   UNL     1       1.809   8.691   1.786  0.00  0.00    -0.224 N 
ATOM      2  C   UNL     1       2.272   7.994   0.729  0.00  0.00    +0.251 C 
ATOM      3  O   UNL     1       3.430   7.837   0.406  0.00  0.00    -0.272 OA
ATOM      4  C   UNL     1       1.044   7.447   0.029  0.00  0.00    +0.135 C 
ATOM      5  N   UNL     1      -0.074   7.946   0.849  0.00  0.00    -0.281 N 
ATOM      6  C   UNL     1       0.473   8.660   1.850  0.00  0.00    +0.310 C 
ATOM      7  O   UNL     1      -0.175   9.216   2.715  0.00  0.00    -0.252 OA
ATOM      8  C   UNL     1       0.952   7.989  -1.399  0.00  0.00    +0.047 C 
ATOM      9  H   UNL     1      -1.019   7.790   0.697  0.00  0.00    +0.152 HD
ENDROOT
BRANCH   4  10
ATOM     10  C   UNL     1       1.064   5.940   0.022  0.00  0.00    -0.015 A 
ATOM     11  C   UNL     1       2.286   5.270   0.007  0.00  0.00    +0.007 A 
ATOM     12  C   UNL     1       2.340   3.910  -0.000  0.00  0.00    +0.009 A 
ATOM     13  C   UNL     1       1.147   3.167   0.008  0.00  0.00    -0.018 A 
ATOM     14  C   UNL     1       1.163   1.762   0.000  0.00  0.00    +0.008 A 
ATOM     15  C   UNL     1      -0.013   1.076   0.008  0.00  0.00    +0.001 A 
ATOM     16  C   UNL     1      -1.235   1.746   0.017  0.00  0.00    +0.001 A 
ATOM     17  C   UNL     1      -1.288   3.106   0.031  0.00  0.00    +0.008 A 
ATOM     18  C   UNL     1      -0.096   3.849   0.023  0.00  0.00    -0.018 A 
ATOM     19  C   UNL     1      -0.111   5.254   0.030  0.00  0.00    +0.014 A 
ENDBRANCH   4  10
BRANCH   1  20
ATOM     20  C   UNL     1       2.663   9.395   2.745  0.00  0.00    +0.121 C 
BRANCH  20  22
ATOM     21  C   UNL     1       1.566  11.589   2.272  0.00  0.00    +0.009 C 
ATOM     22  C   UNL     1       2.894  10.829   2.266  0.00  0.00    +0.001 C 
ATOM     23  C   UNL     1       3.885  11.526   3.200  0.00  0.00    +0.009 C 
ENDBRANCH  20  22
ENDBRANCH   1  20
TORSDOF 3
