REMARK  Name = ZINC12909445
REMARK  8 active torsions:
REMARK  status: ('A' for Active; 'I' for Inactive)
REMARK    1  A    between atoms: C_1  and  C_2
REMARK    2  A    between atoms: C_2  and  C_3
REMARK    3  A    between atoms: C_3  and  N_4
REMARK    4  A    between atoms: C_5  and  N_25
REMARK    5  A    between atoms: C_6  and  C_13
REMARK    6  A    between atoms: C_13  and  C_15
REMARK    7  A    between atoms: C_15  and  O_16
REMARK    8  A    between atoms: O_16  and  C_17
REMARK                            x       y       z     vdW  Elec       q    Type
REMARK                         _______ _______ _______ _____ _____    ______ ____
ROOT
ATOM      1  N   UNL     1       2.362   1.420   0.005  0.00  0.00    -0.281 N 
ATOM      2  C   UNL     1       1.212   2.117   0.241  0.00  0.00    +0.116 A 
ATOM      3  C   UNL     1      -0.015   1.430   0.228  0.00  0.00    +0.123 A 
ATOM      4  C   UNL     1       0.010  -0.013  -0.043  0.00  0.00    +0.266 A 
ATOM      5  O   UNL     1      -1.022  -0.658  -0.066  0.00  0.00    -0.267 OA
ATOM      6  N   UNL     1       1.200  -0.609  -0.264  0.00  0.00    -0.274 N 
ATOM      7  H   UNL     1       1.233  -1.591  -0.449  0.00  0.00    +0.173 HD
ATOM      8  C   UNL     1       2.340   0.100  -0.239  0.00  0.00    +0.331 A 
ATOM      9  O   UNL     1       3.391  -0.475  -0.444  0.00  0.00    -0.246 OA
ENDROOT
BRANCH   2  10
ATOM     10  N   UNL     1       1.252   3.455   0.485  0.00  0.00    -0.344 N 
ATOM     11  H   UNL     1       0.538   3.878   0.988  0.00  0.00    +0.144 HD
ATOM     12  H   UNL     1       1.995   3.986   0.157  0.00  0.00    +0.144 HD
ENDBRANCH   2  10
BRANCH   3  13
ATOM     13  C   UNL     1      -1.231   2.107   0.461  0.00  0.00    +0.209 C 
ATOM     14  O   UNL     1      -1.242   3.317   0.570  0.00  0.00    -0.288 OA
BRANCH  13  15
ATOM     15  C   UNL     1      -2.517   1.329   0.574  0.00  0.00    +0.308 C 
BRANCH  15  16
ATOM     16  O   UNL     1      -3.600   2.230   0.808  0.00  0.00    -0.483 OA
BRANCH  16  17
ATOM     17  C   UNL     1      -4.839   1.686   0.936  0.00  0.00    +0.135 A 
ATOM     18  C   UNL     1      -5.008   0.313   0.837  0.00  0.00    +0.048 A 
ATOM     19  C   UNL     1      -6.268  -0.238   0.967  0.00  0.00    +0.023 A 
ATOM     20  C   UNL     1      -7.362   0.578   1.196  0.00  0.00    +0.042 A 
ATOM     21  C   UNL     1      -7.196   1.948   1.294  0.00  0.00    +0.039 A 
ATOM     22  C   UNL     1      -5.936   2.503   1.170  0.00  0.00    +0.061 A 
ATOM     23 BR   UNL     1      -5.709   4.375   1.312  0.00  0.00    -0.046 Br
ATOM     24 CL   UNL     1      -8.944  -0.118   1.358  0.00  0.00    -0.084 Cl
ENDBRANCH  16  17
ENDBRANCH  15  16
ENDBRANCH  13  15
ENDBRANCH   3  13
BRANCH   1  25
ATOM     25  C   UNL     1       3.645   2.127   0.016  0.00  0.00    +0.128 C 
BRANCH  25  27
ATOM     26  C   UNL     1       5.300   3.373  -1.381  0.00  0.00    +0.005 C 
ATOM     27  C   UNL     1       3.959   2.635  -1.392  0.00  0.00    +0.018 C 
ENDBRANCH  25  27
ENDBRANCH   1  25
TORSDOF 7
