REMARK  Name = ZINC67203906
REMARK  8 active torsions:
REMARK  status: ('A' for Active; 'I' for Inactive)
REMARK    1  A    between atoms: C_1  and  N_2
REMARK    2  A    between atoms: N_2  and  C_3
REMARK    3  A    between atoms: N_2  and  C_4
REMARK    4  A    between atoms: C_15  and  C_17
REMARK    5  A    between atoms: C_17  and  C_18
REMARK    6  A    between atoms: C_18  and  C_19
REMARK    7  A    between atoms: C_19  and  C_20
REMARK    8  A    between atoms: C_22  and  C_25
REMARK                            x       y       z     vdW  Elec       q    Type
REMARK                         _______ _______ _______ _____ _____    ______ ____
ROOT
ATOM      1  C   UNL     1      -1.393  -0.523   0.042  0.00  0.00    -0.047 C 
ATOM      2  C   UNL     1      -1.367  -2.051  -0.000  0.00  0.00    +0.023 C 
ATOM      3  C   UNL     1      -2.751  -2.596  -0.234  0.00  0.00    -0.027 A 
ATOM      4  C   UNL     1      -3.023  -3.908   0.117  0.00  0.00    +0.005 A 
ATOM      5  C   UNL     1      -4.282  -4.437  -0.088  0.00  0.00    +0.000 A 
ATOM      6  C   UNL     1      -5.280  -3.659  -0.647  0.00  0.00    +0.002 A 
ATOM      7  C   UNL     1      -5.018  -2.351  -0.999  0.00  0.00    +0.024 A 
ATOM      8  C   UNL     1      -3.752  -1.815  -0.791  0.00  0.00    +0.039 A 
ATOM      9  N   UNL     1      -3.507  -0.482  -1.148  0.00  0.00    -0.273 N 
ATOM     10  C   UNL     1      -2.120  -0.003  -1.205  0.00  0.00    +0.099 C 
ATOM     11  C   UNL     1      -4.530   0.349  -1.433  0.00  0.00    +0.220 C 
ATOM     12  O   UNL     1      -5.667  -0.071  -1.446  0.00  0.00    -0.275 OA
ENDROOT
BRANCH   1  14
ATOM     13  C   UNL     1      -0.044   1.460   0.094  0.00  0.00    -0.096 C 
ATOM     14  N   UNL     1      -0.017  -0.008   0.060  0.00  0.00    +0.379 N 
ATOM     15  C   UNL     1       0.679  -0.513   1.251  0.00  0.00    -0.096 C 
ATOM     16  H   UNL     1       0.469  -0.316  -0.769  0.00  0.00    -0.082 HD
ENDBRANCH   1  14
BRANCH  11  17
ATOM     17  C   UNL     1      -4.259   1.801  -1.734  0.00  0.00    +0.097 C 
BRANCH  17  18
ATOM     18  C   UNL     1      -5.587   2.543  -1.899  0.00  0.00    +0.019 C 
BRANCH  18  19
ATOM     19  C   UNL     1      -5.312   4.017  -2.205  0.00  0.00    +0.099 C 
BRANCH  19  20
ATOM     20  C   UNL     1      -6.619   4.749  -2.368  0.00  0.00    +0.228 A 
ATOM     21  N   UNL     1      -7.284   5.338  -1.416  0.00  0.00    -0.191 NA
ATOM     22  C   UNL     1      -8.407   5.892  -1.912  0.00  0.00    +0.209 A 
ATOM     23  N   UNL     1      -8.458   5.650  -3.201  0.00  0.00    -0.056 NA
ATOM     24  O   UNL     1      -7.290   4.906  -3.516  0.00  0.00    -0.338 OA
BRANCH  22  25
ATOM     25  C   UNL     1      -9.413   6.645  -1.135  0.00  0.00    +0.060 A 
ATOM     26  C   UNL     1     -10.575   7.228  -1.565  0.00  0.00    +0.019 A 
ATOM     27  C   UNL     1     -11.365   7.885  -0.649  0.00  0.00    +0.008 A 
ATOM     28  C   UNL     1     -10.970   7.934   0.650  0.00  0.00    +0.046 A 
ATOM     29  S   UNL     1      -9.434   7.025   0.609  0.00  0.00    -0.093 S 
ENDBRANCH  22  25
ENDBRANCH  19  20
ENDBRANCH  18  19
ENDBRANCH  17  18
ENDBRANCH  11  17
TORSDOF 6
