REMARK  Name = ZINC41421436
REMARK  3 active torsions:
REMARK  status: ('A' for Active; 'I' for Inactive)
REMARK    1  A    between atoms: C_1  and  C_2
REMARK    2  A    between atoms: C_7  and  C_10
REMARK    3  A    between atoms: C_16  and  C_18
REMARK                            x       y       z     vdW  Elec       q    Type
REMARK                         _______ _______ _______ _____ _____    ______ ____
ROOT
ATOM      1  C   UNL     1      -0.042   1.543  -0.033  0.00  0.00    +0.039 C 
ATOM      2  C   UNL     1      -0.005   0.014  -0.056  0.00  0.00    +0.133 C 
ATOM      3  C   UNL     1      -1.435  -0.534   0.010  0.00  0.00    +0.139 C 
ATOM      4  N   UNL     1      -1.366  -1.995   0.175  0.00  0.00    -0.290 N 
ATOM      5  C   UNL     1      -0.505  -2.530   1.243  0.00  0.00    +0.144 C 
ATOM      6  C   UNL     1       0.879  -1.885   1.117  0.00  0.00    +0.166 C 
ATOM      7  O   UNL     1       0.735  -0.463   1.070  0.00  0.00    -0.366 OA
ATOM      8  C   UNL     1      -2.069  -2.818  -0.627  0.00  0.00    +0.282 C 
ATOM      9  O   UNL     1      -2.827  -2.356  -1.459  0.00  0.00    -0.267 OA
ENDROOT
BRANCH   6  10
ATOM     10  C   UNL     1       1.723  -2.267   2.305  0.00  0.00    -0.017 A 
ATOM     11  C   UNL     1       1.559  -1.609   3.510  0.00  0.00    +0.006 A 
ATOM     12  C   UNL     1       2.333  -1.960   4.600  0.00  0.00    +0.000 A 
ATOM     13  C   UNL     1       3.271  -2.970   4.486  0.00  0.00    +0.000 A 
ATOM     14  C   UNL     1       3.434  -3.628   3.281  0.00  0.00    +0.000 A 
ATOM     15  C   UNL     1       2.657  -3.280   2.192  0.00  0.00    +0.006 A 
ENDBRANCH   6  10
BRANCH   8  16
ATOM     16  C   UNL     1      -1.921  -4.272  -0.496  0.00  0.00    +0.189 A 
ATOM     17  C   UNL     1      -2.468  -5.211  -1.323  0.00  0.00    +0.054 A 
ATOM     18  C   UNL     1      -2.070  -6.463  -0.830  0.00  0.00    +0.042 A 
ATOM     19  C   UNL     1      -1.308  -6.236   0.263  0.00  0.00    +0.196 A 
ATOM     20  O   UNL     1      -1.216  -4.914   0.457  0.00  0.00    -0.458 OA
ENDBRANCH   8  16
TORSDOF 2
