REMARK  Name = ZINC21637043
REMARK  6 active torsions:
REMARK  status: ('A' for Active; 'I' for Inactive)
REMARK    1  A    between atoms: C_1  and  C_2
REMARK    2  A    between atoms: C_5  and  N_9
REMARK    3  A    between atoms: C_7  and  C_8
REMARK    4  A    between atoms: N_9  and  S_10
REMARK    5  A    between atoms: S_10  and  C_13
REMARK    6  A    between atoms: N_15  and  C_18
REMARK                            x       y       z     vdW  Elec       q    Type
REMARK                         _______ _______ _______ _____ _____    ______ ____
ROOT
ATOM      1  S   UNL     1       0.062  -4.987  -1.460  0.00  0.00    +0.108 S 
ATOM      2  O   UNL     1      -1.190  -4.727  -2.079  0.00  0.00    -0.147 OA
ATOM      3  O   UNL     1       1.300  -4.694  -2.091  0.00  0.00    -0.147 OA
ENDROOT
BRANCH   1   4
ATOM      4  C   UNL     1       0.087  -6.708  -1.079  0.00  0.00    +0.195 A 
ATOM      5  C   UNL     1       1.187  -7.465  -0.907  0.00  0.00    +0.134 A 
ATOM      6  N   UNL     1       0.756  -8.733  -0.627  0.00  0.00    -0.340 N 
ATOM      7  C   UNL     1      -0.594  -8.707  -0.637  0.00  0.00    +0.175 A 
ATOM      8  N   UNL     1      -0.988  -7.491  -0.902  0.00  0.00    -0.330 N 
ATOM      9  C   UNL     1       1.601  -9.901  -0.366  0.00  0.00    +0.150 C 
ATOM     10  H   UNL     1      -1.911  -7.201  -0.965  0.00  0.00    +0.168 HD
ENDBRANCH   1   4
BRANCH   1  11
ATOM     11  N   UNL     1       0.058  -4.167  -0.021  0.00  0.00    -0.096 NA
BRANCH  11  16
ATOM     12  C   UNL     1      -0.018   1.503   0.010  0.00  0.00    +0.044 C 
ATOM     13  C   UNL     1       0.002  -0.004   0.002  0.00  0.00    -0.047 A 
ATOM     14  C   UNL     1       0.006  -0.687  -1.200  0.00  0.00    +0.005 A 
ATOM     15  C   UNL     1       0.024  -2.068  -1.212  0.00  0.00    +0.027 A 
ATOM     16  C   UNL     1       0.040  -2.771  -0.013  0.00  0.00    +0.075 A 
ATOM     17  C   UNL     1       0.036  -2.081   1.192  0.00  0.00    +0.030 A 
ATOM     18  C   UNL     1       0.023  -0.700   1.196  0.00  0.00    -0.046 A 
ATOM     19  C   UNL     1       0.025   0.049   2.504  0.00  0.00    +0.044 C 
ENDBRANCH  11  16
ENDBRANCH   1  11
TORSDOF 3
