REMARK  Name = ZINC04334796
REMARK  4 active torsions:
REMARK  status: ('A' for Active; 'I' for Inactive)
REMARK    1  A    between atoms: C_1  and  C_2
REMARK    2  A    between atoms: C_5  and  C_8
REMARK    3  A    between atoms: C_10  and  C_24
REMARK    4  A    between atoms: C_24  and  C_26
REMARK                            x       y       z     vdW  Elec       q    Type
REMARK                         _______ _______ _______ _____ _____    ______ ____
ROOT
ATOM      1  C   UNL     1       3.724  -0.729  -0.040  0.00  0.00    +0.137 C 
ATOM      2  C   UNL     1       4.593  -0.297   1.129  0.00  0.00    +0.139 C 
ATOM      3  N   UNL     1       5.519   0.489   0.670  0.00  0.00    -0.083 NA
ATOM      4  O   UNL     1       5.428   0.691  -0.729  0.00  0.00    -0.370 OA
ATOM      5  C   UNL     1       4.579  -0.332  -1.255  0.00  0.00    +0.273 C 
ATOM      6  C   UNL     1       3.728   0.166  -2.386  0.00  0.00    +0.219 C 
ATOM      7  O   UNL     1       2.957   1.101  -2.353  0.00  0.00    -0.287 OA
ATOM      8  C   UNL     1       4.009  -0.703  -3.547  0.00  0.00    +0.033 A 
ATOM      9  C   UNL     1       3.493  -0.685  -4.844  0.00  0.00    +0.012 A 
ATOM     10  C   UNL     1       3.917  -1.618  -5.771  0.00  0.00    +0.001 A 
ATOM     11  C   UNL     1       4.855  -2.574  -5.424  0.00  0.00    +0.001 A 
ATOM     12  C   UNL     1       5.379  -2.609  -4.146  0.00  0.00    +0.012 A 
ATOM     13  C   UNL     1       4.963  -1.677  -3.193  0.00  0.00    +0.033 A 
ATOM     14  C   UNL     1       5.360  -1.500  -1.782  0.00  0.00    +0.219 C 
ATOM     15  O   UNL     1       6.162  -2.170  -1.167  0.00  0.00    -0.287 OA
ENDROOT
BRANCH   1  20
ATOM     16  C   UNL     1      -1.298   2.130  -0.040  0.00  0.00    +0.044 C 
ATOM     17  C   UNL     1       0.012   1.384  -0.035  0.00  0.00    -0.050 A 
ATOM     18  C   UNL     1       1.205   2.083  -0.044  0.00  0.00    +0.003 A 
ATOM     19  C   UNL     1       2.406   1.399  -0.047  0.00  0.00    +0.005 A 
ATOM     20  C   UNL     1       2.415   0.016  -0.039  0.00  0.00    -0.033 A 
ATOM     21  C   UNL     1       1.222  -0.682  -0.030  0.00  0.00    +0.005 A 
ATOM     22  C   UNL     1       0.020   0.002  -0.028  0.00  0.00    +0.003 A 
ENDBRANCH   1  20
BRANCH   2  23
ATOM     23  C   UNL     1       4.413  -0.701   2.535  0.00  0.00    +0.211 C 
ATOM     24  O   UNL     1       3.450  -1.369   2.857  0.00  0.00    -0.285 OA
BRANCH  23  25
ATOM     25  C   UNL     1       5.404  -0.294   3.553  0.00  0.00    +0.024 A 
ATOM     26  C   UNL     1       6.448   0.569   3.211  0.00  0.00    +0.012 A 
ATOM     27  C   UNL     1       7.365   0.949   4.168  0.00  0.00    +0.001 A 
ATOM     28  C   UNL     1       7.261   0.468   5.461  0.00  0.00    +0.000 A 
ATOM     29  C   UNL     1       6.233  -0.392   5.806  0.00  0.00    +0.001 A 
ATOM     30  C   UNL     1       5.304  -0.776   4.861  0.00  0.00    +0.012 A 
ENDBRANCH  23  25
ENDBRANCH   2  23
TORSDOF 3
