REMARK  Name = ZINC08698477
REMARK  5 active torsions:
REMARK  status: ('A' for Active; 'I' for Inactive)
REMARK    1  A    between atoms: C_1  and  C_2
REMARK    2  A    between atoms: C_2  and  C_3
REMARK    3  A    between atoms: C_2  and  C_4
REMARK    4  A    between atoms: C_2  and  O_5
REMARK    5  A    between atoms: O_5  and  C_6
REMARK                            x       y       z     vdW  Elec       q    Type
REMARK                         _______ _______ _______ _____ _____    ______ ____
ROOT
ATOM      1  C   UNL     1       1.172   1.612   0.005  0.00  0.00    +0.406 C 
ATOM      2  O   UNL     1       1.202   2.824  -0.078  0.00  0.00    -0.226 OA
ATOM      3  N   UNL     1      -0.011   0.966   0.007  0.00  0.00    -0.234 N 
ATOM      4  C   UNL     1      -1.202   1.691   0.017  0.00  0.00    +0.146 A 
ATOM      5  C   UNL     1      -2.421   1.029   0.128  0.00  0.00    +0.156 A 
ATOM      6  N   UNL     1      -3.546   1.720   0.142  0.00  0.00    -0.243 NA
ATOM      7  C   UNL     1      -3.516   3.038   0.041  0.00  0.00    +0.124 A 
ATOM      8  C   UNL     1      -2.306   3.699  -0.075  0.00  0.00    +0.148 A 
ATOM      9  N   UNL     1      -1.175   3.013  -0.084  0.00  0.00    -0.236 NA
ATOM     10 BR   UNL     1      -5.130   4.023   0.055  0.00  0.00    -0.027 Br
ATOM     11  H   UNL     1      -0.034  -0.004  -0.002  0.00  0.00    +0.160 HD
ENDROOT
BRANCH   1  12
ATOM     12  O   UNL     1       2.320   0.914   0.093  0.00  0.00    -0.444 OA
BRANCH  12  14
ATOM     13  C   UNL     1       3.569   2.642   1.271  0.00  0.00    +0.055 C 
ATOM     14  C   UNL     1       3.556   1.676   0.084  0.00  0.00    +0.107 C 
ATOM     15  C   UNL     1       4.745   0.719   0.193  0.00  0.00    +0.055 C 
ATOM     16  C   UNL     1       3.657   2.470  -1.220  0.00  0.00    +0.055 C 
ENDBRANCH  12  14
ENDBRANCH   1  12
TORSDOF 2
