REMARK  Name = ZINC60362908
REMARK  8 active torsions:
REMARK  status: ('A' for Active; 'I' for Inactive)
REMARK    1  A    between atoms: C_1  and  C_2
REMARK    2  A    between atoms: C_2  and  C_3
REMARK    3  A    between atoms: C_2  and  N_4
REMARK    4  A    between atoms: C_6  and  N_11
REMARK    5  A    between atoms: N_11  and  C_12
REMARK    6  A    between atoms: C_15  and  C_21
REMARK    7  A    between atoms: C_17  and  N_18
REMARK    8  A    between atoms: C_21  and  C_23
REMARK                            x       y       z     vdW  Elec       q    Type
REMARK                         _______ _______ _______ _____ _____    ______ ____
ROOT
ATOM      1  C   UNL     1      -4.971  -3.306  -1.062  0.00  0.00    +0.058 A 
ATOM      2  C   UNL     1      -5.206  -4.078   0.073  0.00  0.00    +0.026 A 
ATOM      3  C   UNL     1      -6.268  -4.936   0.110  0.00  0.00    +0.013 A 
ATOM      4  C   UNL     1      -7.121  -5.039  -0.994  0.00  0.00    +0.025 A 
ATOM      5  C   UNL     1      -6.883  -4.261  -2.133  0.00  0.00    +0.046 A 
ATOM      6  C   UNL     1      -5.822  -3.401  -2.161  0.00  0.00    +0.148 A 
ENDROOT
BRANCH   6   7
ATOM      7  N   UNL     1      -5.572  -2.575  -3.363  0.00  0.00    +0.058 N 
ATOM      8  O   UNL     1      -6.501  -2.115  -3.984  0.00  0.00    -0.126 OA
ATOM      9  O   UNL     1      -4.438  -2.359  -3.723  0.00  0.00    -0.126 OA
ENDBRANCH   6   7
BRANCH   1  10
ATOM     10  N   UNL     1      -3.889  -2.434  -1.096  0.00  0.00    -0.337 N 
ATOM     11  H   UNL     1      -3.702  -1.925  -1.900  0.00  0.00    +0.146 HD
BRANCH  10  14
ATOM     12  N   UNL     1      -1.191  -0.900   0.750  0.00  0.00    -0.297 N 
ATOM     13  C   UNL     1      -1.618  -1.810  -0.321  0.00  0.00    +0.130 C 
ATOM     14  C   UNL     1      -3.031  -2.285   0.082  0.00  0.00    +0.096 C 
ATOM     15  C   UNL     1      -3.514  -1.119   0.975  0.00  0.00    +0.119 C 
ATOM     16  C   UNL     1      -2.236  -0.497   1.493  0.00  0.00    +0.218 C 
ATOM     17  O   UNL     1      -2.165   0.258   2.439  0.00  0.00    -0.276 OA
BRANCH  12  19
ATOM     18  C   UNL     1       0.304   1.031   0.863  0.00  0.00    +0.028 C 
ATOM     19  C   UNL     1       0.196  -0.490   0.982  0.00  0.00    +0.070 C 
ATOM     20  C   UNL     1       0.628  -0.925   2.383  0.00  0.00    +0.028 C 
ENDBRANCH  12  19
ENDBRANCH  10  14
ENDBRANCH   1  10
BRANCH   4  21
ATOM     21  C   UNL     1      -8.268  -5.964  -0.958  0.00  0.00    +0.193 C 
ATOM     22  O   UNL     1      -8.757  -6.285   0.108  0.00  0.00    -0.287 OA
BRANCH  21  23
ATOM     23  C   UNL     1      -8.824  -6.501  -2.218  0.00  0.00    +0.022 A 
ATOM     24  C   UNL     1      -8.059  -6.482  -3.386  0.00  0.00    +0.012 A 
ATOM     25  C   UNL     1      -8.584  -6.986  -4.559  0.00  0.00    +0.001 A 
ATOM     26  C   UNL     1      -9.865  -7.508  -4.578  0.00  0.00    +0.000 A 
ATOM     27  C   UNL     1     -10.629  -7.529  -3.424  0.00  0.00    +0.001 A 
ATOM     28  C   UNL     1     -10.114  -7.035  -2.244  0.00  0.00    +0.012 A 
ENDBRANCH  21  23
ENDBRANCH   4  21
TORSDOF 6
