REMARK  Name = ZINC45976485
REMARK  5 active torsions:
REMARK  status: ('A' for Active; 'I' for Inactive)
REMARK    1  A    between atoms: C_1  and  C_2
REMARK    2  A    between atoms: C_7  and  C_10
REMARK    3  A    between atoms: C_14  and  C_17
REMARK    4  A    between atoms: C_17  and  N_18
REMARK    5  A    between atoms: N_21  and  C_22
REMARK                            x       y       z     vdW  Elec       q    Type
REMARK                         _______ _______ _______ _____ _____    ______ ____
ROOT
ATOM      1  C   UNL     1      -0.079   1.566  -0.018  0.00  0.00    +0.039 C 
ATOM      2  C   UNL     1      -0.101   0.037  -0.052  0.00  0.00    +0.133 C 
ATOM      3  C   UNL     1       0.598  -0.457  -1.324  0.00  0.00    +0.137 C 
ATOM      4  N   UNL     1       2.030  -0.133  -1.222  0.00  0.00    -0.312 N 
ATOM      5  C   UNL     1       2.743  -0.527   0.003  0.00  0.00    +0.137 C 
ATOM      6  C   UNL     1       1.940  -0.030   1.210  0.00  0.00    +0.133 C 
ATOM      7  O   UNL     1       0.586  -0.476   1.092  0.00  0.00    -0.371 OA
ATOM      8  C   UNL     1       2.552  -0.588   2.497  0.00  0.00    +0.039 C 
ATOM      9  C   UNL     1       2.689   0.525  -2.254  0.00  0.00    +0.099 A 
ATOM     10  C   UNL     1       2.021   0.783  -3.446  0.00  0.00    +0.042 A 
ATOM     11  C   UNL     1       2.689   1.438  -4.464  0.00  0.00    +0.010 A 
ATOM     12  C   UNL     1       4.009   1.816  -4.255  0.00  0.00    -0.014 A 
ATOM     13  C   UNL     1       4.611   1.528  -3.047  0.00  0.00    +0.089 A 
ATOM     14  N   UNL     1       3.947   0.906  -2.091  0.00  0.00    -0.349 N 
ATOM     15  H   UNL     1       4.393   0.719  -1.250  0.00  0.00    +0.167 HD
ENDROOT
BRANCH  12  16
ATOM     16  C   UNL     1       4.777   2.531  -5.337  0.00  0.00    +0.142 C 
BRANCH  16  17
ATOM     17  N   UNL     1       4.599   3.978  -5.186  0.00  0.00    -0.295 N 
ATOM     18  C   UNL     1       5.198   4.824  -6.047  0.00  0.00    +0.304 C 
ATOM     19  O   UNL     1       5.886   4.387  -6.949  0.00  0.00    -0.252 OA
ATOM     20  N   UNL     1       5.034   6.154  -5.908  0.00  0.00    -0.267 N 
ATOM     21  H   UNL     1       4.050   4.327  -4.466  0.00  0.00    +0.151 HD
ATOM     22  H   UNL     1       4.557   6.507  -5.141  0.00  0.00    +0.156 HD
BRANCH  20  23
ATOM     23  C   UNL     1       5.553   7.028  -6.872  0.00  0.00    +0.072 A 
ATOM     24  C   UNL     1       5.593   6.647  -8.206  0.00  0.00    +0.046 A 
ATOM     25  C   UNL     1       6.106   7.512  -9.156  0.00  0.00    +0.043 A 
ATOM     26  C   UNL     1       6.579   8.756  -8.777  0.00  0.00    +0.023 A 
ATOM     27  C   UNL     1       6.541   9.139  -7.449  0.00  0.00    +0.041 A 
ATOM     28  C   UNL     1       6.024   8.281  -6.496  0.00  0.00    +0.145 A 
ATOM     29  F   UNL     1       5.981   8.658  -5.199  0.00  0.00    -0.204 F 
ATOM     30 CL   UNL     1       6.156   7.036 -10.824  0.00  0.00    -0.083 Cl
ENDBRANCH  20  23
ENDBRANCH  16  17
ENDBRANCH  12  16
TORSDOF 3
