REMARK  Name = ZINC12713692
REMARK  14 active torsions:
REMARK  status: ('A' for Active; 'I' for Inactive)
REMARK    1  A    between atoms: C_1  and  C_2
REMARK    2  A    between atoms: C_2  and  C_3
REMARK    3  A    between atoms: C_2  and  C_4
REMARK    4  A    between atoms: C_2  and  N_5
REMARK    5  A    between atoms: C_6  and  C_8
REMARK    6  A    between atoms: C_8  and  C_10
REMARK    7  A    between atoms: C_8  and  N_17
REMARK    8  A    between atoms: N_17  and  C_18
REMARK    9  A    between atoms: C_21  and  O_26
REMARK   10  A    between atoms: C_22  and  O_24
REMARK   11  A    between atoms: O_24  and  C_25
REMARK   12  A    between atoms: O_26  and  C_27
REMARK   13  A    between atoms: C_28  and  C_30
REMARK   14  A    between atoms: C_30  and  N_31
REMARK                            x       y       z     vdW  Elec       q    Type
REMARK                         _______ _______ _______ _____ _____    ______ ____
ROOT
ATOM      1  N   UNL     1      -5.892   3.226  -1.788  0.00  0.00    -0.254 N 
ATOM      2  C   UNL     1      -4.836   3.903  -2.283  0.00  0.00    +0.242 C 
ATOM      3  O   UNL     1      -4.746   4.098  -3.477  0.00  0.00    -0.273 OA
ENDROOT
BRANCH   1   4
ATOM      4  C   UNL     1      -6.793   2.601  -2.659  0.00  0.00    +0.041 A 
ATOM      5  C   UNL     1      -7.953   2.023  -2.161  0.00  0.00    +0.027 A 
ATOM      6  C   UNL     1      -8.844   1.406  -3.019  0.00  0.00    +0.051 A 
ATOM      7  C   UNL     1      -8.582   1.364  -4.378  0.00  0.00    +0.162 A 
ATOM      8  C   UNL     1      -7.420   1.942  -4.881  0.00  0.00    +0.163 A 
ATOM      9  C   UNL     1      -6.530   2.564  -4.022  0.00  0.00    +0.073 A 
BRANCH   8  10
ATOM     10  O   UNL     1      -7.162   1.901  -6.216  0.00  0.00    -0.491 OA
ATOM     11  C   UNL     1      -5.951   2.515  -6.662  0.00  0.00    +0.277 C 
ENDBRANCH   8  10
BRANCH   7  12
ATOM     12  O   UNL     1      -9.460   0.757  -5.222  0.00  0.00    -0.491 OA
ATOM     13  C   UNL     1     -10.632   0.185  -4.637  0.00  0.00    +0.277 C 
ENDBRANCH   7  12
ENDBRANCH   1   4
BRANCH   1  14
ATOM     14  C   UNL     1      -6.096   3.143  -0.340  0.00  0.00    +0.200 C 
BRANCH  14  15
ATOM     15  C   UNL     1      -7.338   3.908   0.036  0.00  0.00    +0.017 A 
ATOM     16  C   UNL     1      -8.283   4.209  -0.926  0.00  0.00    +0.009 A 
ATOM     17  C   UNL     1      -9.424   4.910  -0.581  0.00  0.00    +0.001 A 
ATOM     18  C   UNL     1      -9.621   5.311   0.727  0.00  0.00    +0.003 A 
ATOM     19  C   UNL     1      -8.677   5.011   1.692  0.00  0.00    +0.039 A 
ATOM     20  C   UNL     1      -7.537   4.304   1.348  0.00  0.00    +0.129 A 
ATOM     21  F   UNL     1      -6.617   4.005   2.291  0.00  0.00    -0.205 F 
ENDBRANCH  14  15
BRANCH  14  23
ATOM     22  N   UNL     1      -6.367   1.373   1.366  0.00  0.00    -0.309 N 
ATOM     23  C   UNL     1      -6.252   1.700   0.064  0.00  0.00    +0.239 C 
ATOM     24  O   UNL     1      -6.275   0.832  -0.783  0.00  0.00    -0.273 OA
ATOM     25  H   UNL     1      -6.349   2.067   2.044  0.00  0.00    +0.149 HD
BRANCH  22  27
ATOM     26  C   UNL     1      -5.303  -0.827   1.284  0.00  0.00    +0.031 C 
ATOM     27  C   UNL     1      -6.520  -0.030   1.759  0.00  0.00    +0.026 C 
ATOM     28  C   UNL     1      -6.628  -0.124   3.282  0.00  0.00    +0.031 C 
ATOM     29  C   UNL     1      -7.786  -0.603   1.121  0.00  0.00    +0.031 C 
ENDBRANCH  22  27
ENDBRANCH  14  23
ENDBRANCH   1  14
BRANCH   2  30
ATOM     30  C   UNL     1      -3.768   4.418  -1.352  0.00  0.00    +0.242 C 
BRANCH  30  31
ATOM     31  N   UNL     1      -2.680   5.008  -2.136  0.00  0.00    -0.235 N 
ATOM     32  C   UNL     1      -1.566   4.360  -2.614  0.00  0.00    +0.090 A 
ATOM     33  C   UNL     1      -1.106   3.049  -2.546  0.00  0.00    +0.029 A 
ATOM     34  C   UNL     1       0.078   2.713  -3.139  0.00  0.00    +0.002 A 
ATOM     35  C   UNL     1       0.824   3.667  -3.819  0.00  0.00    +0.002 A 
ATOM     36  C   UNL     1       0.393   4.958  -3.905  0.00  0.00    +0.032 A 
ATOM     37  C   UNL     1      -0.816   5.330  -3.301  0.00  0.00    +0.113 A 
ATOM     38  N   UNL     1      -1.484   6.498  -3.218  0.00  0.00    -0.129 NA
ATOM     39  N   UNL     1      -2.571   6.344  -2.548  0.00  0.00    -0.064 NA
ENDBRANCH  30  31
ENDBRANCH   2  30
TORSDOF 9
