REMARK  Name = ZINC27500775
REMARK  7 active torsions:
REMARK  status: ('A' for Active; 'I' for Inactive)
REMARK    1  A    between atoms: C_1  and  C_2
REMARK    2  A    between atoms: C_2  and  O_3
REMARK    3  A    between atoms: O_3  and  C_4
REMARK    4  A    between atoms: C_4  and  C_6
REMARK    5  A    between atoms: C_10  and  N_11
REMARK    6  A    between atoms: C_12  and  C_14
REMARK    7  A    between atoms: C_16  and  N_21
REMARK                            x       y       z     vdW  Elec       q    Type
REMARK                         _______ _______ _______ _____ _____    ______ ____
ROOT
ATOM      1  C   UNL     1      -6.349  -2.268   0.016  0.00  0.00    +0.091 A 
ATOM      2  C   UNL     1      -7.718  -2.756   0.026  0.00  0.00    -0.021 A 
ATOM      3  C   UNL     1      -8.670  -1.799   0.035  0.00  0.00    -0.004 A 
ATOM      4  S   UNL     1      -7.776  -0.271   0.038  0.00  0.00    -0.077 S 
ATOM      5  C   UNL     1      -6.159  -0.892   0.028  0.00  0.00    +0.087 A 
ATOM      6  C   UNL     1     -10.154  -2.001   0.039  0.00  0.00    +0.043 C 
ATOM      7  C   UNL     1     -10.445  -3.459  -0.346  0.00  0.00    +0.005 C 
ATOM      8  C   UNL     1      -9.541  -4.377   0.482  0.00  0.00    +0.005 C 
ATOM      9  C   UNL     1      -8.090  -4.234   0.020  0.00  0.00    +0.037 C 
ENDROOT
BRANCH   5  10
ATOM     10  N   UNL     1      -4.967  -0.187   0.025  0.00  0.00    -0.275 N 
ATOM     11  C   UNL     1      -4.980   1.160   0.033  0.00  0.00    +0.250 C 
ATOM     12  O   UNL     1      -6.039   1.758   0.041  0.00  0.00    -0.270 OA
ATOM     13  H   UNL     1      -4.008  -0.728   0.018  0.00  0.00    +0.156 HD
BRANCH  11  14
ATOM     14  C   UNL     1      -3.708   1.912   0.030  0.00  0.00    +0.053 A 
ATOM     15  C   UNL     1      -2.490   1.229   0.021  0.00  0.00    +0.047 A 
ATOM     16  C   UNL     1      -1.306   1.936   0.019  0.00  0.00    +0.127 A 
ATOM     17  C   UNL     1      -1.323   3.320   0.032  0.00  0.00    +0.034 A 
ATOM     18  C   UNL     1      -2.525   4.004   0.036  0.00  0.00    +0.018 A 
ATOM     19  C   UNL     1      -3.718   3.309   0.038  0.00  0.00    +0.030 A 
ATOM     20 BR   UNL     1      -5.361   4.245   0.050  0.00  0.00    -0.050 Br
BRANCH  16  21
ATOM     21  N   UNL     1      -0.014   1.214   0.009  0.00  0.00    +0.056 N 
ATOM     22  O   UNL     1       0.002  -0.004   0.002  0.00  0.00    -0.126 OA
ATOM     23  O   UNL     1       1.032   1.837   0.002  0.00  0.00    -0.126 OA
ENDBRANCH  16  21
ENDBRANCH  11  14
ENDBRANCH   5  10
BRANCH   1  24
ATOM     24  C   UNL     1      -5.213  -3.191  -0.001  0.00  0.00    +0.342 C 
ATOM     25  O   UNL     1      -4.733  -3.585   1.045  0.00  0.00    -0.245 OA
BRANCH  24  26
ATOM     26  O   UNL     1      -4.698  -3.605  -1.177  0.00  0.00    -0.461 OA
BRANCH  26  28
ATOM     27  C   UNL     1      -3.128  -4.875  -2.539  0.00  0.00    +0.048 C 
ATOM     28  C   UNL     1      -3.572  -4.520  -1.118  0.00  0.00    +0.229 C 
ENDBRANCH  26  28
ENDBRANCH  24  26
ENDBRANCH   1  24
TORSDOF 6
