REMARK  Name = ZINC62385277
REMARK  3 active torsions:
REMARK  status: ('A' for Active; 'I' for Inactive)
REMARK    1  A    between atoms: C_6  and  N_7
REMARK    2  A    between atoms: C_14  and  C_16
REMARK    3  A    between atoms: N_18  and  C_19
REMARK                            x       y       z     vdW  Elec       q    Type
REMARK                         _______ _______ _______ _____ _____    ______ ____
ROOT
ATOM      1  N   UNL     1      -1.208  -0.719  -0.051  0.00  0.00    -0.269 N 
ATOM      2  C   UNL     1      -2.374  -0.068   0.127  0.00  0.00    +0.306 C 
ATOM      3  O   UNL     1      -2.389   1.147   0.189  0.00  0.00    -0.252 OA
ATOM      4  N   UNL     1      -3.525  -0.761   0.236  0.00  0.00    -0.285 N 
ATOM      5  C   UNL     1      -3.507  -2.227   0.346  0.00  0.00    +0.109 C 
ATOM      6  C   UNL     1      -4.303  -2.638   1.588  0.00  0.00    +0.020 C 
ATOM      7  C   UNL     1      -5.706  -2.029   1.516  0.00  0.00    +0.016 C 
ATOM      8  C   UNL     1      -5.601  -0.503   1.492  0.00  0.00    +0.092 C 
ATOM      9  C   UNL     1      -4.819  -0.067   0.255  0.00  0.00    +0.122 C 
ATOM     10  H   UNL     1      -1.208  -1.673  -0.230  0.00  0.00    +0.156 HD
ENDROOT
BRANCH   1  16
ATOM     11  C   UNL     1       0.034   1.344  -0.233  0.00  0.00    +0.025 A 
ATOM     12  C   UNL     1       1.228   2.034  -0.161  0.00  0.00    +0.025 A 
ATOM     13  C   UNL     1       2.398   1.363   0.167  0.00  0.00    +0.037 A 
ATOM     14  C   UNL     1       2.367  -0.002   0.422  0.00  0.00    -0.024 A 
ATOM     15  C   UNL     1       1.174  -0.692   0.349  0.00  0.00    +0.028 A 
ATOM     16  C   UNL     1       0.003  -0.020   0.022  0.00  0.00    +0.035 A 
ATOM     17  C   UNL     1       3.639  -0.727   0.779  0.00  0.00    +0.046 C 
ATOM     18  C   UNL     1       4.814  -0.098   0.029  0.00  0.00    +0.101 C 
ATOM     19  C   UNL     1       4.781   1.399   0.187  0.00  0.00    +0.218 C 
ATOM     20  O   UNL     1       5.822   2.016   0.268  0.00  0.00    -0.275 OA
ATOM     21  N   UNL     1       3.610   2.060   0.241  0.00  0.00    -0.285 N 
ATOM     22  H   UNL     1       3.606   3.026   0.332  0.00  0.00    +0.155 HD
ENDBRANCH   1  16
BRANCH   8  23
ATOM     23  C   UNL     1      -6.983   0.096   1.453  0.00  0.00    +0.218 C 
ATOM     24  O   UNL     1      -7.957  -0.627   1.445  0.00  0.00    -0.275 OA
ATOM     25  N   UNL     1      -7.137   1.435   1.428  0.00  0.00    -0.312 N 
ATOM     26  H   UNL     1      -6.359   2.013   1.435  0.00  0.00    +0.149 HD
BRANCH  25  27
ATOM     27  C   UNL     1      -8.481   2.017   1.390  0.00  0.00    +0.073 C 
ATOM     28  C   UNL     1      -8.969   2.080  -0.059  0.00  0.00    +0.022 C 
ATOM     29  C   UNL     1     -10.372   2.688  -0.099  0.00  0.00    +0.002 C 
ATOM     30  C   UNL     1     -10.333   4.100   0.488  0.00  0.00    +0.000 C 
ATOM     31  C   UNL     1      -9.846   4.037   1.937  0.00  0.00    +0.002 C 
ATOM     32  C   UNL     1      -8.442   3.429   1.977  0.00  0.00    +0.022 C 
ENDBRANCH  25  27
ENDBRANCH   8  23
TORSDOF 3
