REMARK  Name = ZINC18205879
REMARK  5 active torsions:
REMARK  status: ('A' for Active; 'I' for Inactive)
REMARK    1  A    between atoms: C_1  and  C_2
REMARK    2  A    between atoms: C_3  and  N_9
REMARK    3  A    between atoms: C_14  and  C_16
REMARK    4  A    between atoms: C_16  and  C_18
REMARK    5  A    between atoms: N_21  and  C_24
REMARK                            x       y       z     vdW  Elec       q    Type
REMARK                         _______ _______ _______ _____ _____    ______ ____
ROOT
ATOM      1  N   UNL     1      -0.010   0.008  -2.411  0.00  0.00    -0.211 N 
ATOM      2  C   UNL     1       0.940  -0.127  -3.502  0.00  0.00    +0.202 C 
ATOM      3  C   UNL     1      -0.104   0.106  -4.661  0.00  0.00    +0.161 C 
ATOM      4  C   UNL     1      -0.958   1.106  -4.091  0.00  0.00    +0.116 C 
ATOM      5  N   UNL     1      -0.885   0.908  -2.776  0.00  0.00    -0.179 NA
ATOM      6  C   UNL     1       0.611  -0.361  -5.812  0.00  0.00    +0.238 C 
ATOM      7  O   UNL     1       0.530   0.057  -6.947  0.00  0.00    -0.274 OA
ATOM      8  N   UNL     1       1.408  -1.382  -5.355  0.00  0.00    -0.207 N 
ATOM      9  C   UNL     1       1.433  -1.463  -3.967  0.00  0.00    +0.250 C 
ATOM     10  O   UNL     1       1.778  -2.398  -3.277  0.00  0.00    -0.273 OA
ENDROOT
BRANCH   1  13
ATOM     11  C   UNL     1      -0.018   1.503   0.010  0.00  0.00    +0.047 C 
ATOM     12  C   UNL     1       0.002  -0.004   0.002  0.00  0.00    -0.009 A 
ATOM     13  C   UNL     1       0.006  -0.693  -1.205  0.00  0.00    +0.057 A 
ATOM     14  C   UNL     1       0.025  -2.083  -1.208  0.00  0.00    +0.025 A 
ATOM     15  C   UNL     1       0.040  -2.775  -0.012  0.00  0.00    +0.003 A 
ATOM     16  C   UNL     1       0.036  -2.087   1.187  0.00  0.00    +0.020 A 
ATOM     17  C   UNL     1       0.023  -0.702   1.194  0.00  0.00    +0.046 A 
ATOM     18 CL   UNL     1       0.026   0.157   2.703  0.00  0.00    -0.083 Cl
ENDBRANCH   1  13
BRANCH   8  19
ATOM     19  C   UNL     1       2.124  -2.249  -6.194  0.00  0.00    +0.062 A 
ATOM     20  C   UNL     1       3.421  -1.935  -6.575  0.00  0.00    +0.025 A 
ATOM     21  C   UNL     1       4.123  -2.790  -7.401  0.00  0.00    +0.002 A 
ATOM     22  C   UNL     1       3.536  -3.959  -7.849  0.00  0.00    +0.002 A 
ATOM     23  C   UNL     1       2.244  -4.276  -7.472  0.00  0.00    +0.022 A 
ATOM     24  C   UNL     1       1.538  -3.427  -6.640  0.00  0.00    +0.063 A 
ATOM     25 CL   UNL     1      -0.082  -3.828  -6.161  0.00  0.00    -0.082 Cl
ENDBRANCH   8  19
BRANCH   4  26
ATOM     26  C   UNL     1      -1.712   2.080  -4.772  0.00  0.00    +0.176 C 
ATOM     27  O   UNL     1      -1.680   2.134  -5.986  0.00  0.00    -0.291 OA
ATOM     28  C   UNL     1      -2.560   3.056  -3.997  0.00  0.00    +0.093 C 
ENDBRANCH   4  26
TORSDOF 3
