REMARK  Name = ZINC62522614
REMARK  5 active torsions:
REMARK  status: ('A' for Active; 'I' for Inactive)
REMARK    1  A    between atoms: C_1  and  N_2
REMARK    2  A    between atoms: C_5  and  C_9
REMARK    3  A    between atoms: N_11  and  C_12
REMARK    4  A    between atoms: C_15  and  N_18
REMARK    5  A    between atoms: N_21  and  C_22
REMARK                            x       y       z     vdW  Elec       q    Type
REMARK                         _______ _______ _______ _____ _____    ______ ____
ROOT
ATOM      1  C   UNL     1       0.172  -6.284  -1.321  0.00  0.00    +0.034 A 
ATOM      2  C   UNL     1       0.189  -7.049  -0.162  0.00  0.00    +0.025 A 
ATOM      3  C   UNL     1       0.297  -8.423  -0.244  0.00  0.00    +0.025 A 
ATOM      4  C   UNL     1       0.390  -9.040  -1.485  0.00  0.00    +0.035 A 
ATOM      5  C   UNL     1       0.374  -8.274  -2.644  0.00  0.00    +0.025 A 
ATOM      6  C   UNL     1       0.259  -6.901  -2.562  0.00  0.00    +0.025 A 
ENDROOT
BRANCH   4   7
ATOM      7  N   UNL     1       0.501 -10.434  -1.568  0.00  0.00    -0.269 N 
ATOM      8  C   UNL     1       1.253 -10.994  -2.536  0.00  0.00    +0.308 C 
ATOM      9  O   UNL     1       1.767 -10.294  -3.387  0.00  0.00    -0.252 OA
ATOM     10  N   UNL     1       1.435 -12.329  -2.560  0.00  0.00    -0.269 N 
ATOM     11  H   UNL     1       0.036 -10.996  -0.928  0.00  0.00    +0.156 HD
ATOM     12  H   UNL     1       0.963 -12.894  -1.929  0.00  0.00    +0.156 HD
BRANCH  10  13
ATOM     13  C   UNL     1       2.305 -12.900  -3.496  0.00  0.00    +0.035 A 
ATOM     14  C   UNL     1       3.459 -12.226  -3.874  0.00  0.00    +0.025 A 
ATOM     15  C   UNL     1       4.316 -12.791  -4.798  0.00  0.00    +0.022 A 
ATOM     16  C   UNL     1       4.026 -14.028  -5.347  0.00  0.00    +0.041 A 
ATOM     17  C   UNL     1       2.876 -14.701  -4.972  0.00  0.00    +0.022 A 
ATOM     18  C   UNL     1       2.019 -14.143  -4.044  0.00  0.00    +0.025 A 
ATOM     19 CL   UNL     1       5.104 -14.735  -6.509  0.00  0.00    -0.084 Cl
ENDBRANCH  10  13
ENDBRANCH   4   7
BRANCH   1  22
ATOM     20  C   UNL     1       0.652  -4.228  -0.224  0.00  0.00    +0.248 C 
ATOM     21  O   UNL     1       1.208  -4.844   0.663  0.00  0.00    -0.270 OA
ATOM     22  N   UNL     1       0.062  -4.891  -1.238  0.00  0.00    -0.281 N 
ATOM     23  H   UNL     1      -0.438  -4.403  -1.911  0.00  0.00    +0.155 HD
BRANCH  20  28
ATOM     24  C   UNL     1       0.513   1.474  -0.142  0.00  0.00    +0.152 C 
ATOM     25  N   UNL     1       0.554   0.010  -0.155  0.00  0.00    -0.318 N 
ATOM     26  C   UNL     1      -0.037  -0.665  -1.173  0.00  0.00    +0.089 A 
ATOM     27  C   UNL     1      -0.019  -2.017  -1.217  0.00  0.00    +0.031 A 
ATOM     28  C   UNL     1       0.624  -2.744  -0.192  0.00  0.00    +0.044 A 
ATOM     29  C   UNL     1       1.225  -2.052   0.844  0.00  0.00    +0.083 A 
ATOM     30  C   UNL     1       1.182  -0.643   0.840  0.00  0.00    +0.252 A 
ATOM     31  O   UNL     1       1.711  -0.015   1.743  0.00  0.00    -0.268 OA
ENDBRANCH  20  28
ENDBRANCH   1  22
TORSDOF 4
