REMARK  Name = ZINC42891730
REMARK  10 active torsions:
REMARK  status: ('A' for Active; 'I' for Inactive)
REMARK    1  A    between atoms: C_4  and  C_7
REMARK    2  A    between atoms: C_7  and  C_11
REMARK    3  A    between atoms: C_11  and  N_12
REMARK    4  A    between atoms: N_15  and  C_16
REMARK    5  A    between atoms: C_16  and  C_18
REMARK    6  A    between atoms: C_16  and  C_20
REMARK    7  A    between atoms: C_18  and  O_19
REMARK    8  A    between atoms: C_20  and  C_22
REMARK    9  A    between atoms: C_20  and  O_31
REMARK   10  A    between atoms: C_25  and  N_28
REMARK                            x       y       z     vdW  Elec       q    Type
REMARK                         _______ _______ _______ _____ _____    ______ ____
ROOT
ATOM      1  N   UNK A   0       5.324   0.872  -1.210  0.00  0.00    -0.299 N 
ATOM      2  C   UNK A   0       5.876   1.641  -2.169  0.00  0.00    +0.300 C 
ATOM      3  O   UNK A   0       6.356   1.126  -3.160  0.00  0.00    -0.253 OA
ATOM      4  N   UNK A   1       5.894   2.982  -2.030  0.00  0.00    -0.292 N 
ATOM      5  H   UNK A   0       4.940   1.282  -0.419  0.00  0.00    +0.150 HD
ATOM      6  H   UNK A   1       5.511   3.392  -1.239  0.00  0.00    +0.151 HD
ENDROOT
BRANCH   1   7
ATOM      7  C   UNK A   0       5.303  -0.586  -1.361  0.00  0.00    +0.117 C 
BRANCH   7   8
ATOM      8  C   UNK A   0       4.510  -1.207  -0.210  0.00  0.00    +0.011 C 
ATOM      9  C   UNK A   0       5.238  -1.151   1.143  0.00  0.00    +0.013 C 
ATOM     10  C   UNK A   0       5.864  -2.506   0.773  0.00  0.00    +0.002 C 
ATOM     11  C   UNK A   0       4.640  -2.737  -0.128  0.00  0.00    +0.013 C 
BRANCH   8  15
ATOM     12  C   UNK A   0       0.473   0.178  -0.038  0.00  0.00    +0.000 A 
ATOM     13  C   UNK A   0       0.840  -0.765  -0.980  0.00  0.00    +0.000 A 
ATOM     14  C   UNK A   0       2.147  -1.213  -1.036  0.00  0.00    +0.004 A 
ATOM     15  C   UNK A   0       3.086  -0.718  -0.150  0.00  0.00    -0.040 A 
ATOM     16  C   UNK A   0       2.718   0.226   0.791  0.00  0.00    +0.004 A 
ATOM     17  C   UNK A   0       1.411   0.673   0.848  0.00  0.00    +0.000 A 
ENDBRANCH   8  15
ENDBRANCH   7   8
ENDBRANCH   1   7
BRANCH   4  18
ATOM     18  C   UNK A   1       6.494   3.818  -3.072  0.00  0.00    +0.133 C 
BRANCH  18  19
ATOM     19  C   UNK A   1       5.458   4.093  -4.164  0.00  0.00    +0.181 C 
BRANCH  19  20
ATOM     20  O   UNK A   1       4.384   4.861  -3.619  0.00  0.00    -0.393 OA
ATOM     21  H   UNK A   1       3.688   5.073  -4.257  0.00  0.00    +0.209 HD
ENDBRANCH  19  20
ENDBRANCH  18  19
BRANCH  18  22
ATOM     22  C   UNK A   1       6.955   5.143  -2.461  0.00  0.00    +0.167 C 
BRANCH  22  23
ATOM     23  C   UNK A   1       7.959   4.871  -1.370  0.00  0.00    -0.017 A 
ATOM     24  C   UNK A   1       9.295   4.711  -1.685  0.00  0.00    +0.008 A 
ATOM     25  C   UNK A   1      10.216   4.461  -0.685  0.00  0.00    +0.033 A 
ATOM     26  C   UNK A   1       9.801   4.372   0.630  0.00  0.00    +0.126 A 
ATOM     27  C   UNK A   1       8.464   4.534   0.946  0.00  0.00    +0.033 A 
ATOM     28  C   UNK A   1       7.544   4.787  -0.054  0.00  0.00    +0.008 A 
BRANCH  26  29
ATOM     29  N   UNK A   1      10.787   4.104   1.701  0.00  0.00    +0.056 N 
ATOM     30  O   UNK A   1      11.955   3.963   1.425  0.00  0.00    -0.126 OA
ATOM     31  O   UNK A   1      10.424   4.027   2.852  0.00  0.00    -0.126 OA
ENDBRANCH  26  29
ENDBRANCH  22  23
BRANCH  22  32
ATOM     32  O   UNK A   1       7.558   5.950  -3.473  0.00  0.00    -0.385 OA
ATOM     33  H   UNK A   1       8.263   5.505  -3.963  0.00  0.00    +0.210 HD
ENDBRANCH  22  32
ENDBRANCH  18  22
ENDBRANCH   4  18
TORSDOF 10
