REMARK  Name = ZINC10523241
REMARK  9 active torsions:
REMARK  status: ('A' for Active; 'I' for Inactive)
REMARK    1  A    between atoms: C_1  and  C_2
REMARK    2  A    between atoms: C_2  and  C_3
REMARK    3  A    between atoms: C_3  and  C_4
REMARK    4  A    between atoms: C_4  and  C_5
REMARK    5  A    between atoms: C_5  and  C_6
REMARK    6  A    between atoms: C_6  and  N_7
REMARK    7  A    between atoms: C_8  and  C_22
REMARK    8  A    between atoms: C_11  and  S_12
REMARK    9  A    between atoms: S_12  and  C_13
REMARK                            x       y       z     vdW  Elec       q    Type
REMARK                         _______ _______ _______ _____ _____    ______ ____
ROOT
ATOM      1  N   UNL     1      -1.663   0.604   5.150  0.00  0.00    -0.302 N 
ATOM      2  C   UNL     1      -2.554   1.488   5.715  0.00  0.00    +0.165 A 
ATOM      3  N   UNL     1      -2.704   2.479   4.868  0.00  0.00    -0.128 NA
ATOM      4  N   UNL     1      -1.975   2.281   3.828  0.00  0.00    -0.122 NA
ATOM      5  C   UNL     1      -1.314   1.151   3.948  0.00  0.00    +0.193 A 
ENDROOT
BRANCH   2   6
ATOM      6  C   UNL     1      -3.220   1.345   7.027  0.00  0.00    +0.019 A 
ATOM      7  C   UNL     1      -4.373   2.079   7.311  0.00  0.00    +0.013 A 
ATOM      8  C   UNL     1      -4.993   1.938   8.535  0.00  0.00    +0.021 A 
ATOM      9  C   UNL     1      -4.469   1.077   9.485  0.00  0.00    +0.041 A 
ATOM     10  C   UNL     1      -3.322   0.350   9.211  0.00  0.00    +0.021 A 
ATOM     11  C   UNL     1      -2.696   0.479   7.989  0.00  0.00    +0.013 A 
ATOM     12 CL   UNL     1      -5.252   0.909  11.025  0.00  0.00    -0.084 Cl
ENDBRANCH   2   6
BRANCH   1  13
ATOM     13  C   UNL     1      -1.187  -0.659   5.720  0.00  0.00    +0.126 C 
BRANCH  13  14
ATOM     14  C   UNL     1       0.121  -0.416   6.475  0.00  0.00    +0.022 C 
BRANCH  14  15
ATOM     15  C   UNL     1       0.619  -1.734   7.070  0.00  0.00    +0.002 C 
BRANCH  15  16
ATOM     16  C   UNL     1       1.927  -1.492   7.825  0.00  0.00    -0.000 C 
BRANCH  16  18
ATOM     17  C   UNL     1       3.733  -2.567   9.176  0.00  0.00    +0.004 C 
ATOM     18  C   UNL     1       2.425  -2.810   8.420  0.00  0.00    -0.003 C 
ENDBRANCH  16  18
ENDBRANCH  15  16
ENDBRANCH  14  15
ENDBRANCH  13  14
ENDBRANCH   1  13
BRANCH   5  19
ATOM     19  S   UNL     1      -0.193   0.466   2.774  0.00  0.00    -0.073 S 
BRANCH  19  20
ATOM     20  C   UNL     1      -0.270   1.737   1.488  0.00  0.00    +0.140 C 
ATOM     21  C   UNL     1       0.552   1.292   0.276  0.00  0.00    +0.024 C 
ATOM     22  C   UNL     1       0.056   1.971  -0.988  0.00  0.00    +0.003 C 
ATOM     23  C   UNL     1       0.288   3.471  -1.009  0.00  0.00    +0.019 C 
ATOM     24  C   UNL     1      -0.565   4.170   0.051  0.00  0.00    +0.104 C 
ATOM     25  N   UNL     1       0.170   4.163   1.326  0.00  0.00    -0.314 N 
ATOM     26  C   UNL     1       0.316   3.031   2.016  0.00  0.00    +0.226 C 
ATOM     27  O   UNL     1       0.918   3.037   3.068  0.00  0.00    -0.275 OA
ATOM     28  H   UNL     1       0.551   4.987   1.668  0.00  0.00    +0.149 HD
ENDBRANCH  19  20
ENDBRANCH   5  19
TORSDOF 8
