REMARK  Name = ZINC36581474
REMARK  12 active torsions:
REMARK  status: ('A' for Active; 'I' for Inactive)
REMARK    1  A    between atoms: C_1  and  C_2
REMARK    2  A    between atoms: C_4  and  C_15
REMARK    3  A    between atoms: C_12  and  C_13
REMARK    4  A    between atoms: C_12  and  C_14
REMARK    5  A    between atoms: N_17  and  C_18
REMARK    6  A    between atoms: N_17  and  C_34
REMARK    7  A    between atoms: C_18  and  C_20
REMARK    8  A    between atoms: C_18  and  C_25
REMARK    9  A    between atoms: N_27  and  C_28
REMARK   10  A    between atoms: C_34  and  C_35
REMARK   11  A    between atoms: C_34  and  C_36
REMARK   12  A    between atoms: C_34  and  C_37
REMARK                            x       y       z     vdW  Elec       q    Type
REMARK                         _______ _______ _______ _____ _____    ______ ____
ROOT
ATOM      1  C   UNL     1      -0.306  -1.920  -1.918  0.00  0.00    +0.220 C 
ATOM      2  O   UNL     1      -1.426  -2.105  -1.489  0.00  0.00    -0.275 OA
ATOM      3  N   UNL     1       0.123  -2.604  -2.997  0.00  0.00    -0.278 N 
ENDROOT
BRANCH   1   6
ATOM      4  C   UNL     1       0.201   1.557  -1.008  0.00  0.00    +0.008 C 
ATOM      5  C   UNL     1      -0.201   0.161  -0.544  0.00  0.00    +0.001 C 
ATOM      6  C   UNL     1       0.605  -0.926  -1.243  0.00  0.00    +0.079 C 
ATOM      7  C   UNL     1       1.585  -1.635  -0.316  0.00  0.00    +0.017 C 
ATOM      8  C   UNL     1       1.145  -1.568   1.148  0.00  0.00    -0.004 C 
ATOM      9  C   UNL     1      -0.379  -1.492   1.331  0.00  0.00    +0.008 C 
ATOM     10  C   UNL     1      -0.199   0.007   0.972  0.00  0.00    -0.001 C 
ATOM     11  C   UNL     1       1.153  -0.116   1.670  0.00  0.00    -0.029 C 
ATOM     12  C   UNL     1       1.063  -0.034   3.206  0.00  0.00    +0.011 C 
ATOM     13  C   UNL     1       2.300   0.742   1.146  0.00  0.00    +0.011 C 
ENDBRANCH   1   6
BRANCH   3  14
ATOM     14  C   UNL     1       1.542  -2.580  -3.362  0.00  0.00    +0.030 C 
ATOM     15  C   UNL     1       2.298  -3.625  -2.538  0.00  0.00    +0.031 C 
ATOM     16  C   UNL     1       1.691  -2.900  -4.851  0.00  0.00    +0.031 C 
ATOM     17  C   UNL     1       2.119  -1.192  -3.078  0.00  0.00    +0.031 C 
ENDBRANCH   3  14
BRANCH   3  18
ATOM     18  C   UNL     1      -0.828  -3.370  -3.806  0.00  0.00    +0.229 C 
BRANCH  18  19
ATOM     19  C   UNL     1      -0.405  -4.815  -3.845  0.00  0.00    +0.134 A 
ATOM     20  C   UNL     1      -1.216  -5.877  -3.694  0.00  0.00    +0.047 A 
ATOM     21  C   UNL     1      -0.406  -7.031  -3.801  0.00  0.00    +0.041 A 
ATOM     22  C   UNL     1       0.853  -6.605  -4.010  0.00  0.00    +0.195 A 
ATOM     23  O   UNL     1       0.847  -5.262  -4.042  0.00  0.00    -0.465 OA
ENDBRANCH  18  19
BRANCH  18  24
ATOM     24  C   UNL     1      -0.856  -2.817  -5.207  0.00  0.00    +0.241 C 
ATOM     25  O   UNL     1      -0.217  -1.822  -5.480  0.00  0.00    -0.273 OA
ATOM     26  N   UNL     1      -1.591  -3.426  -6.158  0.00  0.00    -0.311 N 
ATOM     27  H   UNL     1      -2.103  -4.222  -5.940  0.00  0.00    +0.149 HD
BRANCH  26  28
ATOM     28  C   UNL     1      -1.619  -2.889  -7.520  0.00  0.00    +0.073 C 
ATOM     29  C   UNL     1      -2.679  -1.789  -7.614  0.00  0.00    +0.022 C 
ATOM     30  C   UNL     1      -2.707  -1.227  -9.036  0.00  0.00    +0.002 C 
ATOM     31  C   UNL     1      -3.047  -2.348 -10.020  0.00  0.00    +0.000 C 
ATOM     32  C   UNL     1      -1.988  -3.448  -9.927  0.00  0.00    +0.002 C 
ATOM     33  C   UNL     1      -1.959  -4.010  -8.504  0.00  0.00    +0.022 C 
ENDBRANCH  26  28
ENDBRANCH  18  24
ENDBRANCH   3  18
TORSDOF 6
