REMARK  Name = ZINC12332370
REMARK  9 active torsions:
REMARK  status: ('A' for Active; 'I' for Inactive)
REMARK    1  A    between atoms: C_1  and  O_2
REMARK    2  A    between atoms: O_2  and  C_3
REMARK    3  A    between atoms: C_8  and  C_9
REMARK    4  A    between atoms: C_9  and  N_57
REMARK    5  A    between atoms: C_16  and  C_21
REMARK    6  A    between atoms: C_18  and  O_19
REMARK    7  A    between atoms: O_19  and  C_20
REMARK    8  A    between atoms: C_26  and  O_27
REMARK    9  A    between atoms: O_27  and  C_28
REMARK                            x       y       z     vdW  Elec       q    Type
REMARK                         _______ _______ _______ _____ _____    ______ ____
ROOT
ATOM      1  C   UNL     1      -7.974   0.027  -0.276  0.00  0.00    -0.036 C 
ATOM      2  C   UNL     1      -7.460   0.594   1.029  0.00  0.00    +0.211 C 
ATOM      3  O   UNL     1      -6.414   1.544   0.792  0.00  0.00    -0.490 OA
ATOM      4  C   UNL     1      -5.165   1.017   0.663  0.00  0.00    +0.163 A 
ATOM      5  C   UNL     1      -4.850   0.251  -0.442  0.00  0.00    -0.018 A 
ATOM      6  C   UNL     1      -3.601  -0.319  -0.570  0.00  0.00    +0.014 A 
ATOM      7  C   UNL     1      -2.644  -0.114   0.425  0.00  0.00    -0.010 A 
ATOM      8  C   UNL     1      -2.954   0.669   1.535  0.00  0.00    +0.058 A 
ATOM      9  C   UNL     1      -4.213   1.231   1.658  0.00  0.00    +0.162 A 
ATOM     10  C   UNL     1      -5.888   0.059  -1.532  0.00  0.00    -0.039 C 
ATOM     11  N   UNL     1      -6.968  -0.795  -0.984  0.00  0.00    +0.387 N 
ATOM     12  H   UNL     1      -6.557  -1.459  -0.317  0.00  0.00    -0.081 HD
ENDROOT
BRANCH   7  13
ATOM     13  C   UNL     1      -1.298  -0.723   0.297  0.00  0.00    +0.025 A 
ATOM     14  C   UNL     1      -1.168  -2.080   0.008  0.00  0.00    +0.032 A 
ATOM     15  C   UNL     1       0.088  -2.642  -0.110  0.00  0.00    +0.042 A 
ATOM     16  C   UNL     1       1.219  -1.861   0.057  0.00  0.00    +0.023 A 
ATOM     17  C   UNL     1       1.101  -0.513   0.338  0.00  0.00    +0.047 A 
ATOM     18  C   UNL     1      -0.153   0.062   0.465  0.00  0.00    +0.128 A 
ATOM     19 CL   UNL     1       0.248  -4.333  -0.469  0.00  0.00    -0.084 Cl
BRANCH  18  20
ATOM     20  O   UNL     1      -0.270   1.386   0.747  0.00  0.00    -0.495 OA
ATOM     21  C   UNL     1       0.942   2.125   0.906  0.00  0.00    +0.277 C 
ENDBRANCH  18  20
ENDBRANCH   7  13
BRANCH   9  22
ATOM     22  O   UNL     1      -4.519   1.989   2.744  0.00  0.00    -0.491 OA
ATOM     23  C   UNL     1      -3.492   2.165   3.723  0.00  0.00    +0.277 C 
ENDBRANCH   9  22
BRANCH  11  24
ATOM     24  C   UNL     1      -7.614  -1.549  -2.070  0.00  0.00    -0.039 C 
BRANCH  24  30
ATOM     25  C   UNL     1      -6.438  -3.738  -1.736  0.00  0.00    +0.121 A 
ATOM     26  C   UNL     1      -5.566  -4.728  -2.166  0.00  0.00    +0.046 A 
ATOM     27  C   UNL     1      -4.918  -4.597  -3.379  0.00  0.00    +0.004 A 
ATOM     28  C   UNL     1      -5.141  -3.483  -4.167  0.00  0.00    +0.000 A 
ATOM     29  C   UNL     1      -6.013  -2.497  -3.744  0.00  0.00    +0.005 A 
ATOM     30  C   UNL     1      -6.664  -2.623  -2.531  0.00  0.00    -0.022 A 
BRANCH  25  32
ATOM     31  C   UNL     1      -6.791  -5.035   0.224  0.00  0.00    +0.277 C 
ATOM     32  O   UNL     1      -7.072  -3.861  -0.541  0.00  0.00    -0.495 OA
ENDBRANCH  25  32
ENDBRANCH  24  30
ENDBRANCH  11  24
TORSDOF 6
