REMARK  Name = ZINC65832957
REMARK  4 active torsions:
REMARK  status: ('A' for Active; 'I' for Inactive)
REMARK    1  A    between atoms: C_5  and  S_8
REMARK    2  A    between atoms: S_8  and  N_11
REMARK    3  A    between atoms: N_11  and  N_12
REMARK    4  A    between atoms: N_15  and  C_16
REMARK                            x       y       z     vdW  Elec       q    Type
REMARK                         _______ _______ _______ _____ _____    ______ ____
ROOT
ATOM      1  N   UNL     1       1.257  -2.941   1.556  0.00  0.00    -0.107 NA
ATOM      2  H   UNL     1       1.995  -3.477   1.884  0.00  0.00    +0.172 HD
ENDROOT
BRANCH   1   3
ATOM      3  N   UNL     1       0.210  -2.588   2.417  0.00  0.00    -0.216 N 
ATOM      4  C   UNL     1      -0.464  -3.544   3.086  0.00  0.00    +0.315 C 
ATOM      5  O   UNL     1      -1.372  -3.238   3.834  0.00  0.00    -0.251 OA
ATOM      6  N   UNL     1      -0.130  -4.840   2.926  0.00  0.00    -0.296 N 
ATOM      7  H   UNL     1      -0.030  -1.655   2.532  0.00  0.00    +0.172 HD
ATOM      8  H   UNL     1       0.594  -5.085   2.330  0.00  0.00    +0.151 HD
BRANCH   6   9
ATOM      9  C   UNL     1      -0.863  -5.880   3.653  0.00  0.00    +0.074 C 
ATOM     10  C   UNL     1      -0.220  -6.111   5.036  0.00  0.00    +0.022 C 
ATOM     11  C   UNL     1      -0.339  -7.638   5.261  0.00  0.00    +0.002 C 
ATOM     12  C   UNL     1      -0.074  -8.213   3.847  0.00  0.00    +0.002 C 
ATOM     13  C   UNL     1      -0.770  -7.217   2.897  0.00  0.00    +0.022 C 
ENDBRANCH   6   9
ENDBRANCH   1   3
BRANCH   1  14
ATOM     14  S   UNL     1       1.234  -2.442  -0.023  0.00  0.00    +0.079 S 
ATOM     15  O   UNL     1      -0.011  -2.861  -0.564  0.00  0.00    -0.152 OA
ATOM     16  O   UNL     1       2.479  -2.828  -0.589  0.00  0.00    -0.152 OA
BRANCH  14  21
ATOM     17  C   UNL     1      -0.017   1.380   0.010  0.00  0.00    +0.078 A 
ATOM     18  C   UNL     1       1.173   2.088   0.002  0.00  0.00    +0.129 A 
ATOM     19  C   UNL     1       2.381   1.413  -0.013  0.00  0.00    +0.078 A 
ATOM     20  C   UNL     1       2.400   0.029  -0.021  0.00  0.00    +0.155 A 
ATOM     21  C   UNL     1       1.210  -0.680  -0.013  0.00  0.00    +0.177 A 
ATOM     22  C   UNL     1       0.002  -0.004   0.002  0.00  0.00    +0.155 A 
ATOM     23  F   UNL     1      -1.159  -0.695   0.009  0.00  0.00    -0.203 F 
ATOM     24  F   UNL     1       3.579  -0.631  -0.036  0.00  0.00    -0.203 F 
ATOM     25  F   UNL     1       1.154   3.439   0.009  0.00  0.00    -0.205 F 
ENDBRANCH  14  21
ENDBRANCH   1  14
TORSDOF 4
