REMARK  Name = ZINC35208302
REMARK  4 active torsions:
REMARK  status: ('A' for Active; 'I' for Inactive)
REMARK    1  A    between atoms: C_1  and  C_2
REMARK    2  A    between atoms: C_6  and  C_10
REMARK    3  A    between atoms: C_11  and  C_13
REMARK    4  A    between atoms: C_18  and  O_19
REMARK                            x       y       z     vdW  Elec       q    Type
REMARK                         _______ _______ _______ _____ _____    ______ ____
ROOT
ATOM      1  C   UNL     1       0.890   1.730  -0.408  0.00  0.00    +0.039 C 
ATOM      2  C   UNL     1       0.666   0.223  -0.260  0.00  0.00    +0.133 C 
ATOM      3  C   UNL     1       1.169  -0.495  -1.518  0.00  0.00    +0.139 C 
ATOM      4  N   UNL     1       1.117  -1.945  -1.276  0.00  0.00    -0.290 N 
ATOM      5  C   UNL     1       1.734  -2.464  -0.044  0.00  0.00    +0.099 C 
ATOM      6  C   UNL     1       1.204  -1.650   1.142  0.00  0.00    +0.182 C 
ATOM      7  O   UNL     1       1.388  -0.257   0.877  0.00  0.00    -0.373 OA
ATOM      8  C   UNL     1       3.255  -2.320  -0.131  0.00  0.00    +0.030 C 
ATOM      9  C   UNL     1       0.523  -2.775  -2.156  0.00  0.00    +0.251 C 
ATOM     10  O   UNL     1       0.554  -3.977  -1.975  0.00  0.00    -0.270 OA
ENDROOT
BRANCH   9  11
ATOM     11  C   UNL     1      -0.166  -2.224  -3.339  0.00  0.00    +0.080 A 
ATOM     12  C   UNL     1       0.498  -1.333  -4.187  0.00  0.00    +0.036 A 
ATOM     13  C   UNL     1      -0.151  -0.823  -5.291  0.00  0.00    +0.042 A 
ATOM     14  C   UNL     1      -1.460  -1.189  -5.564  0.00  0.00    +0.023 A 
ATOM     15  C   UNL     1      -2.127  -2.068  -4.734  0.00  0.00    +0.047 A 
ATOM     16  C   UNL     1      -1.487  -2.596  -3.622  0.00  0.00    +0.129 A 
ATOM     17 CL   UNL     1       0.674   0.284  -6.343  0.00  0.00    -0.084 Cl
BRANCH  16  18
ATOM     18  O   UNL     1      -2.139  -3.465  -2.809  0.00  0.00    -0.506 OA
ATOM     19  H   UNL     1      -2.622  -3.041  -2.087  0.00  0.00    +0.292 HD
ENDBRANCH  16  18
ENDBRANCH   9  11
TORSDOF 2
