REMARK  Name = ZINC57406508
REMARK  10 active torsions:
REMARK  status: ('A' for Active; 'I' for Inactive)
REMARK    1  A    between atoms: C_1  and  C_2
REMARK    2  A    between atoms: C_2  and  C_4
REMARK    3  A    between atoms: C_2  and  N_15
REMARK    4  A    between atoms: N_6  and  C_7
REMARK    5  A    between atoms: C_7  and  C_13
REMARK    6  A    between atoms: N_15  and  C_16
REMARK    7  A    between atoms: N_15  and  C_17
REMARK    8  A    between atoms: C_17  and  C_18
REMARK    9  A    between atoms: C_21  and  O_24
REMARK   10  A    between atoms: O_24  and  C_25
REMARK                            x       y       z     vdW  Elec       q    Type
REMARK                         _______ _______ _______ _____ _____    ______ ____
ROOT
ATOM      1  C   UNL     1       0.165   1.360   0.725  0.00  0.00    -0.004 C 
ATOM      2  C   UNL     1       0.063   0.071  -0.093  0.00  0.00    +0.016 C 
ENDROOT
BRANCH   2   3
ATOM      3  C   UNL     1      -1.385  -0.325  -0.227  0.00  0.00    +0.200 C 
ATOM      4  O   UNL     1      -1.879  -1.094   0.570  0.00  0.00    -0.278 OA
ATOM      5  N   UNL     1      -2.131   0.175  -1.232  0.00  0.00    -0.299 N 
ATOM      6  H   UNL     1      -1.736   0.790  -1.869  0.00  0.00    +0.150 HD
BRANCH   5   7
ATOM      7  C   UNL     1      -3.538  -0.211  -1.362  0.00  0.00    +0.121 C 
ATOM      8  C   UNL     1      -3.637  -1.726  -1.547  0.00  0.00    +0.041 C 
ATOM      9  C   UNL     1      -5.107  -2.128  -1.682  0.00  0.00    +0.003 C 
ATOM     10  C   UNL     1      -5.718  -1.425  -2.896  0.00  0.00    +0.000 C 
ATOM     11  C   UNL     1      -5.619   0.090  -2.711  0.00  0.00    +0.003 C 
ATOM     12  C   UNL     1      -4.149   0.492  -2.575  0.00  0.00    +0.041 C 
BRANCH   7  13
ATOM     13  C   UNL     1      -4.269   0.184  -0.146  0.00  0.00    +0.088 C 
ATOM     14  N   UNL     1      -4.833   0.489   0.791  0.00  0.00    -0.194 NA
ENDBRANCH   7  13
ENDBRANCH   5   7
ENDBRANCH   2   3
BRANCH   2  15
ATOM     15  N   UNL     1       0.803  -1.001   0.587  0.00  0.00    +0.388 N 
ATOM     16  C   UNL     1       2.203  -0.593   0.763  0.00  0.00    -0.095 C 
ATOM     17  H   UNL     1       0.388  -1.176   1.489  0.00  0.00    -0.081 HD
BRANCH  15  18
ATOM     18  C   UNL     1       0.748  -2.224  -0.224  0.00  0.00    -0.042 C 
BRANCH  18  19
ATOM     19  C   UNL     1       1.384  -3.360   0.536  0.00  0.00    -0.064 A 
ATOM     20  C   UNL     1       2.739  -3.604   0.405  0.00  0.00    +0.005 A 
ATOM     21  C   UNL     1       3.324  -4.644   1.100  0.00  0.00    +0.046 A 
ATOM     22  C   UNL     1       2.552  -5.444   1.930  0.00  0.00    +0.127 A 
ATOM     23  C   UNL     1       1.193  -5.196   2.060  0.00  0.00    +0.046 A 
ATOM     24  C   UNL     1       0.613  -4.152   1.366  0.00  0.00    +0.005 A 
BRANCH  22  25
ATOM     25  O   UNL     1       3.126  -6.468   2.615  0.00  0.00    -0.434 OA
BRANCH  25  26
ATOM     26  C   UNL     1       2.270  -7.250   3.450  0.00  0.00    +0.541 C 
ATOM     27  F   UNL     1       1.688  -6.427   4.422  0.00  0.00    -0.166 F 
ATOM     28  F   UNL     1       1.265  -7.834   2.672  0.00  0.00    -0.166 F 
ENDBRANCH  25  26
ENDBRANCH  22  25
ENDBRANCH  18  19
ENDBRANCH  15  18
ENDBRANCH   2  15
TORSDOF 8
