REMARK  Name = ZINC13643819
REMARK  5 active torsions:
REMARK  status: ('A' for Active; 'I' for Inactive)
REMARK    1  A    between atoms: C_1  and  N_2
REMARK    2  A    between atoms: N_2  and  C_3
REMARK    3  A    between atoms: N_2  and  C_4
REMARK    4  A    between atoms: C_7  and  C_10
REMARK    5  A    between atoms: C_23  and  N_26
REMARK                            x       y       z     vdW  Elec       q    Type
REMARK                         _______ _______ _______ _____ _____    ______ ____
ROOT
ATOM      1  C   UNL     1       2.132   0.806   1.088  0.00  0.00    +0.105 C 
ATOM      2  C   UNL     1       1.611   1.559  -0.118  0.00  0.00    +0.029 C 
ATOM      3  C   UNL     1       2.099   1.150  -1.512  0.00  0.00    +0.033 C 
ATOM      4  C   UNL     1       0.897   1.532  -2.380  0.00  0.00    -0.030 C 
ATOM      5  C   UNL     1      -0.214   1.505  -1.652  0.00  0.00    -0.023 C 
ATOM      6  C   UNL     1       0.135   1.075  -0.276  0.00  0.00    +0.049 C 
ATOM      7  C   UNL     1      -0.601   1.567   0.909  0.00  0.00    -0.017 A 
ATOM      8  C   UNL     1      -1.933   1.925   0.837  0.00  0.00    +0.006 A 
ATOM      9  C   UNL     1      -2.601   2.370   1.962  0.00  0.00    +0.003 A 
ATOM     10  C   UNL     1      -1.927   2.458   3.167  0.00  0.00    +0.034 A 
ATOM     11  C   UNL     1      -0.597   2.112   3.244  0.00  0.00    +0.147 A 
ATOM     12  C   UNL     1       0.093   1.667   2.115  0.00  0.00    +0.062 A 
ATOM     13  N   UNL     1       1.442   1.351   2.268  0.00  0.00    -0.335 N 
ATOM     14  H   UNL     1       1.953   2.127   2.660  0.00  0.00    +0.147 HD
ENDROOT
BRANCH   1  18
ATOM     15  C   UNL     1       1.270  -3.361   0.690  0.00  0.00    +0.029 A 
ATOM     16  C   UNL     1       2.431  -2.835   0.139  0.00  0.00    +0.023 A 
ATOM     17  C   UNL     1       2.707  -1.488   0.269  0.00  0.00    +0.007 A 
ATOM     18  C   UNL     1       1.828  -0.663   0.948  0.00  0.00    -0.027 A 
ATOM     19  C   UNL     1       0.674  -1.185   1.503  0.00  0.00    +0.007 A 
ATOM     20  C   UNL     1       0.389  -2.530   1.371  0.00  0.00    +0.023 A 
BRANCH  15  22
ATOM     21  C   UNL     1       1.976  -5.621  -0.045  0.00  0.00    +0.129 C 
ATOM     22  N   UNL     1       0.989  -4.723   0.561  0.00  0.00    -0.336 N 
ATOM     23  C   UNL     1      -0.294  -5.254   1.030  0.00  0.00    +0.129 C 
ENDBRANCH  15  22
ENDBRANCH   1  18
BRANCH  11  24
ATOM     24  N   UNL     1       0.110   2.213   4.541  0.00  0.00    +0.058 N 
ATOM     25  O   UNL     1      -0.485   2.600   5.531  0.00  0.00    -0.126 OA
ATOM     26  O   UNL     1       1.286   1.908   4.618  0.00  0.00    -0.126 OA
ENDBRANCH  11  24
TORSDOF 3
