REMARK  Name = ZINC39942942
REMARK  3 active torsions:
REMARK  status: ('A' for Active; 'I' for Inactive)
REMARK    1  A    between atoms: C_4  and  C_8
REMARK    2  A    between atoms: C_20  and  N_24
REMARK    3  A    between atoms: C_21  and  C_22
REMARK                            x       y       z     vdW  Elec       q    Type
REMARK                         _______ _______ _______ _____ _____    ______ ____
ROOT
ATOM      1  C   UNL     1       3.713  -0.707  -0.038  0.00  0.00    +0.088 C 
ATOM      2  C   UNL     1       3.874  -1.499   1.266  0.00  0.00    +0.171 C 
ATOM      3  C   UNL     1       3.450  -0.652   2.430  0.00  0.00    +0.233 C 
ATOM      4  O   UNL     1       4.016   0.401   2.634  0.00  0.00    -0.274 OA
ATOM      5  N   UNL     1       2.458  -1.033   3.250  0.00  0.00    -0.238 N 
ATOM      6  C   UNL     1       1.796  -2.185   3.058  0.00  0.00    +0.332 C 
ATOM      7  O   UNL     1       0.921  -2.504   3.841  0.00  0.00    -0.250 OA
ATOM      8  N   UNL     1       2.075  -2.993   2.025  0.00  0.00    -0.131 NA
ATOM      9  C   UNL     1       3.013  -2.734   1.161  0.00  0.00    +0.204 C 
ATOM     10  O   UNL     1       3.246  -3.562   0.118  0.00  0.00    -0.428 OA
ATOM     11  C   UNL     1       3.506  -2.981  -1.074  0.00  0.00    +0.200 C 
ATOM     12  C   UNL     1       3.742  -1.657  -1.205  0.00  0.00    +0.095 C 
ATOM     13  H   UNL     1       2.215  -0.464   3.997  0.00  0.00    +0.159 HD
ENDROOT
BRANCH   1  17
ATOM     14  C   UNL     1      -0.017   1.378   0.012  0.00  0.00    +0.003 A 
ATOM     15  C   UNL     1       0.011   0.017  -0.229  0.00  0.00    +0.020 A 
ATOM     16  C   UNL     1       1.218  -0.658  -0.246  0.00  0.00    +0.046 A 
ATOM     17  C   UNL     1       2.398   0.028  -0.021  0.00  0.00    -0.001 A 
ATOM     18  C   UNL     1       2.370   1.390   0.220  0.00  0.00    +0.046 A 
ATOM     19  C   UNL     1       1.162   2.064   0.237  0.00  0.00    +0.020 A 
ATOM     20 CL   UNL     1       3.849   2.252   0.502  0.00  0.00    -0.083 Cl
ATOM     21 CL   UNL     1       1.252  -2.368  -0.548  0.00  0.00    -0.083 Cl
ENDBRANCH   1  17
BRANCH  11  22
ATOM     22  N   UNL     1       3.531  -3.768  -2.198  0.00  0.00    -0.328 N 
ATOM     23  H   UNL     1       3.365  -4.721  -2.126  0.00  0.00    +0.145 HD
ATOM     24  H   UNL     1       3.716  -3.372  -3.064  0.00  0.00    +0.145 HD
ENDBRANCH  11  22
BRANCH  12  25
ATOM     25  C   UNL     1       4.031  -1.137  -2.507  0.00  0.00    +0.100 C 
ATOM     26  N   UNL     1       4.260  -0.724  -3.541  0.00  0.00    -0.191 NA
ENDBRANCH  12  25
TORSDOF 3
