REMARK  Name = ZINC67534368
REMARK  9 active torsions:
REMARK  status: ('A' for Active; 'I' for Inactive)
REMARK    1  A    between atoms: C_1  and  C_2
REMARK    2  A    between atoms: C_2  and  O_3
REMARK    3  A    between atoms: O_3  and  C_4
REMARK    4  A    between atoms: C_9  and  N_10
REMARK    5  A    between atoms: C_11  and  C_13
REMARK    6  A    between atoms: N_15  and  C_16
REMARK    7  A    between atoms: N_20  and  C_22
REMARK    8  A    between atoms: C_22  and  C_24
REMARK    9  A    between atoms: C_22  and  C_25
REMARK                            x       y       z     vdW  Elec       q    Type
REMARK                         _______ _______ _______ _____ _____    ______ ____
ROOT
ATOM      1  C   UNL     1      -6.328  -1.203  -0.158  0.00  0.00    +0.299 C 
ATOM      2  O   UNL     1      -6.185   0.002  -0.153  0.00  0.00    -0.265 OA
ATOM      3  N   UNL     1      -7.563  -1.734  -0.251  0.00  0.00    -0.307 N 
ATOM      4  H   UNL     1      -7.678  -2.698  -0.255  0.00  0.00    +0.149 HD
ENDROOT
BRANCH   3   5
ATOM      5  C   UNL     1      -8.733  -0.857  -0.346  0.00  0.00    +0.055 C 
ATOM      6  C   UNL     1      -9.239  -0.484   1.066  0.00  0.00    +0.002 C 
ATOM      7  C   UNL     1     -10.780  -0.519   0.903  0.00  0.00    -0.076 C 
ATOM      8  N   UNL     1     -10.998  -1.667  -0.014  0.00  0.00    +0.385 N 
ATOM      9  C   UNL     1      -9.905  -1.599  -1.013  0.00  0.00    -0.056 C 
ATOM     10  H   UNL     1     -10.949  -2.535   0.497  0.00  0.00    -0.081 HD
BRANCH   8  11
ATOM     11  C   UNL     1     -12.300  -1.542  -0.681  0.00  0.00    -0.041 C 
ATOM     12  C   UNL     1     -12.493  -2.713  -1.647  0.00  0.00    -0.008 C 
BRANCH  11  13
ATOM     13  C   UNL     1     -13.397  -1.558   0.352  0.00  0.00    -0.061 A 
ATOM     14  C   UNL     1     -13.315  -2.413   1.435  0.00  0.00    +0.002 A 
ATOM     15  C   UNL     1     -14.321  -2.428   2.383  0.00  0.00    +0.000 A 
ATOM     16  C   UNL     1     -15.409  -1.586   2.248  0.00  0.00    +0.000 A 
ATOM     17  C   UNL     1     -15.492  -0.730   1.166  0.00  0.00    +0.000 A 
ATOM     18  C   UNL     1     -14.483  -0.713   0.220  0.00  0.00    +0.002 A 
ENDBRANCH  11  13
ENDBRANCH   8  11
ENDBRANCH   3   5
BRANCH   1  20
ATOM     19  N   UNL     1      -3.901  -1.567   0.031  0.00  0.00    -0.275 N 
ATOM     20  C   UNL     1      -5.136  -2.098  -0.062  0.00  0.00    +0.303 C 
ATOM     21  O   UNL     1      -5.280  -3.303  -0.067  0.00  0.00    -0.265 OA
ATOM     22  H   UNL     1      -3.791  -0.607   0.116  0.00  0.00    +0.155 HD
BRANCH  19  28
ATOM     23  C   UNL     1      -1.584  -1.982   0.590  0.00  0.00    +0.142 A 
ATOM     24  C   UNL     1      -0.476  -2.813   0.567  0.00  0.00    +0.050 A 
ATOM     25  C   UNL     1      -0.553  -4.052  -0.042  0.00  0.00    +0.042 A 
ATOM     26  C   UNL     1      -1.737  -4.467  -0.629  0.00  0.00    +0.125 A 
ATOM     27  C   UNL     1      -2.848  -3.643  -0.609  0.00  0.00    +0.065 A 
ATOM     28  C   UNL     1      -2.778  -2.400   0.004  0.00  0.00    +0.079 A 
ATOM     29  F   UNL     1      -1.806  -5.679  -1.222  0.00  0.00    -0.205 F 
BRANCH  23  30
ATOM     30  O   UNL     1      -1.509  -0.763   1.188  0.00  0.00    -0.490 OA
BRANCH  30  32
ATOM     31  C   UNL     1      -0.362   0.993   2.389  0.00  0.00    +0.048 C 
ATOM     32  C   UNL     1      -0.254  -0.401   1.768  0.00  0.00    +0.226 C 
ENDBRANCH  30  32
ENDBRANCH  23  30
ENDBRANCH  19  28
ENDBRANCH   1  20
TORSDOF 7
