REMARK  Name = ZINC08768256
REMARK  2 active torsions:
REMARK  status: ('A' for Active; 'I' for Inactive)
REMARK    1  A    between atoms: C_1  and  C_2
REMARK    2  A    between atoms: N_11  and  C_12
REMARK                            x       y       z     vdW  Elec       q    Type
REMARK                         _______ _______ _______ _____ _____    ______ ____
ROOT
ATOM      1  C   UNL     1       3.630   1.915   0.353  0.00  0.00    +0.028 C 
ATOM      2  C   UNL     1       2.182   1.551   0.687  0.00  0.00    +0.074 C 
ATOM      3  C   UNL     1       1.299   1.776  -0.545  0.00  0.00    +0.022 C 
ATOM      4  C   UNL     1      -0.118   1.280  -0.249  0.00  0.00    +0.003 C 
ATOM      5  C   UNL     1      -0.083  -0.220   0.052  0.00  0.00    +0.019 C 
ATOM      6  C   UNL     1       0.784  -0.468   1.290  0.00  0.00    +0.109 C 
ATOM      7  N   UNL     1       2.106   0.135   1.070  0.00  0.00    -0.283 N 
ATOM      8  C   UNL     1       3.228  -0.598   1.217  0.00  0.00    +0.307 C 
ATOM      9  O   UNL     1       4.309  -0.116   0.940  0.00  0.00    -0.252 OA
ATOM     10  N   UNL     1       3.151  -1.865   1.670  0.00  0.00    -0.267 N 
ATOM     11  H   UNL     1       2.285  -2.273   1.825  0.00  0.00    +0.156 HD
ENDROOT
BRANCH  10  12
ATOM     12  C   UNL     1       4.323  -2.593   1.919  0.00  0.00    +0.070 A 
ATOM     13  C   UNL     1       5.533  -1.931   2.073  0.00  0.00    +0.029 A 
ATOM     14  C   UNL     1       6.687  -2.650   2.318  0.00  0.00    +0.040 A 
ATOM     15  C   UNL     1       6.638  -4.031   2.410  0.00  0.00    +0.126 A 
ATOM     16  C   UNL     1       5.433  -4.695   2.257  0.00  0.00    +0.078 A 
ATOM     17  C   UNL     1       4.274  -3.979   2.017  0.00  0.00    +0.147 A 
ATOM     18  F   UNL     1       3.097  -4.626   1.872  0.00  0.00    -0.203 F 
ATOM     19  F   UNL     1       7.768  -4.731   2.650  0.00  0.00    -0.205 F 
ENDBRANCH  10  12
TORSDOF 1
