REMARK  Name = ZINC40382296
REMARK  4 active torsions:
REMARK  status: ('A' for Active; 'I' for Inactive)
REMARK    1  A    between atoms: C_2  and  N_12
REMARK    2  A    between atoms: C_4  and  S_8
REMARK    3  A    between atoms: S_8  and  N_11
REMARK    4  A    between atoms: C_13  and  C_15
REMARK                            x       y       z     vdW  Elec       q    Type
REMARK                         _______ _______ _______ _____ _____    ______ ____
ROOT
ATOM      1  C   UNL     1       0.238   1.388  -0.749  0.00  0.00    +0.061 A 
ATOM      2  C   UNL     1       1.178   2.087  -0.004  0.00  0.00    +0.038 A 
ATOM      3  C   UNL     1       2.134   1.396   0.729  0.00  0.00    +0.052 A 
ATOM      4  C   UNL     1       2.148   0.015   0.714  0.00  0.00    +0.109 A 
ATOM      5  C   UNL     1       1.212  -0.681  -0.028  0.00  0.00    +0.067 A 
ATOM      6  C   UNL     1       0.257   0.005  -0.760  0.00  0.00    +0.127 A 
ATOM      7  F   UNL     1      -0.657  -0.677  -1.485  0.00  0.00    -0.205 F 
ENDROOT
BRANCH   2   8
ATOM      8  N   UNL     1       1.162   3.487   0.009  0.00  0.00    -0.285 N 
ATOM      9  C   UNL     1      -0.009   4.148  -0.078  0.00  0.00    +0.221 C 
ATOM     10  O   UNL     1      -1.054   3.534  -0.072  0.00  0.00    -0.275 OA
ATOM     11  H   UNL     1       1.994   3.980   0.081  0.00  0.00    +0.155 HD
BRANCH   9  12
ATOM     12  C   UNL     1      -0.019   5.651  -0.184  0.00  0.00    +0.083 C 
ATOM     13  C   UNL     1       0.579   6.291   1.093  0.00  0.00    +0.021 C 
ATOM     14  C   UNL     1      -0.602   7.135   1.671  0.00  0.00    +0.013 C 
ATOM     15  C   UNL     1      -1.265   7.645   0.339  0.00  0.00    +0.016 C 
ATOM     16  C   UNL     1      -1.485   6.190  -0.220  0.00  0.00    +0.024 C 
ATOM     17  C   UNL     1      -2.150   5.541   1.000  0.00  0.00    -0.027 C 
ATOM     18  C   UNL     1      -1.628   6.085   2.114  0.00  0.00    -0.027 C 
ENDBRANCH   9  12
ENDBRANCH   2   8
BRANCH   4  19
ATOM     19  S   UNL     1       3.362  -0.862   1.643  0.00  0.00    +0.056 S 
ATOM     20  O   UNL     1       3.500  -2.136   1.030  0.00  0.00    -0.153 OA
ATOM     21  O   UNL     1       4.459   0.024   1.816  0.00  0.00    -0.153 OA
BRANCH  19  22
ATOM     22  N   UNL     1       2.727  -1.129   3.149  0.00  0.00    -0.204 NA
ATOM     23  H   UNL     1       1.836  -0.811   3.363  0.00  0.00    +0.144 HD
ATOM     24  H   UNL     1       3.246  -1.603   3.818  0.00  0.00    +0.144 HD
ENDBRANCH  19  22
ENDBRANCH   4  19
TORSDOF 4
