REMARK  Name = ZINC28294098
REMARK  6 active torsions:
REMARK  status: ('A' for Active; 'I' for Inactive)
REMARK    1  A    between atoms: C_1  and  C_2
REMARK    2  A    between atoms: C_5  and  S_8
REMARK    3  A    between atoms: S_8  and  N_11
REMARK    4  A    between atoms: N_12  and  C_13
REMARK    5  A    between atoms: C_13  and  C_15
REMARK    6  A    between atoms: C_13  and  C_16
REMARK                            x       y       z     vdW  Elec       q    Type
REMARK                         _______ _______ _______ _____ _____    ______ ____
ROOT
ATOM      1  N   UNL     1      -2.243   6.832   1.501  0.00  0.00    -0.027 NA
ATOM      2  N   UNL     1      -2.196   5.618   1.249  0.00  0.00    -0.165 NA
ENDROOT
BRANCH   1   3
ATOM      3  S   UNL     1      -3.018   7.366   2.863  0.00  0.00    +0.116 S 
ATOM      4  O   UNL     1      -4.397   7.068   2.689  0.00  0.00    -0.145 OA
ATOM      5  O   UNL     1      -2.269   6.885   3.971  0.00  0.00    -0.145 OA
BRANCH   3  10
ATOM      6  C   UNL     1      -2.549  13.380   2.942  0.00  0.00    +0.044 C 
ATOM      7  C   UNL     1      -2.666  11.878   2.922  0.00  0.00    -0.050 A 
ATOM      8  C   UNL     1      -3.742  11.277   2.296  0.00  0.00    +0.005 A 
ATOM      9  C   UNL     1      -3.850   9.899   2.279  0.00  0.00    +0.029 A 
ATOM     10  C   UNL     1      -2.881   9.122   2.886  0.00  0.00    +0.114 A 
ATOM     11  C   UNL     1      -1.808   9.723   3.516  0.00  0.00    +0.029 A 
ATOM     12  C   UNL     1      -1.698  11.101   3.530  0.00  0.00    +0.005 A 
ENDBRANCH   3  10
ENDBRANCH   1   3
BRANCH   2  13
ATOM     13  C   UNL     1      -1.510   5.146   0.044  0.00  0.00    +0.133 C 
ATOM     14  C   UNL     1      -2.250   5.653  -1.195  0.00  0.00    +0.035 C 
BRANCH  13  15
ATOM     15  C   UNL     1      -1.490   3.616   0.036  0.00  0.00    -0.005 C 
ATOM     16  C   UNL     1      -0.773   3.123  -1.223  0.00  0.00    +0.012 C 
ATOM     17  C   UNL     1      -0.753   1.593  -1.232  0.00  0.00    -0.010 C 
ATOM     18  C   UNL     1      -0.013   1.086   0.008  0.00  0.00    +0.007 C 
ATOM     19  C   UNL     1      -0.729   1.579   1.267  0.00  0.00    -0.010 C 
ATOM     20  C   UNL     1      -0.750   3.109   1.275  0.00  0.00    +0.012 C 
ATOM     21  C   UNL     1      -2.164   1.050   1.278  0.00  0.00    +0.007 C 
ATOM     22  C   UNL     1      -2.904   1.556   0.038  0.00  0.00    -0.010 C 
ATOM     23  C   UNL     1      -2.188   1.063  -1.221  0.00  0.00    +0.007 C 
ATOM     24  C   UNL     1      -2.925   3.086   0.047  0.00  0.00    +0.012 C 
ENDBRANCH  13  15
ENDBRANCH   2  13
TORSDOF 4
