REMARK  Name = ZINC05408504
REMARK  7 active torsions:
REMARK  status: ('A' for Active; 'I' for Inactive)
REMARK    1  A    between atoms: C_1  and  C_2
REMARK    2  A    between atoms: C_2  and  O_3
REMARK    3  A    between atoms: O_3  and  C_4
REMARK    4  A    between atoms: C_7  and  C_11
REMARK    5  A    between atoms: C_14  and  C_25
REMARK    6  A    between atoms: C_20  and  N_24
REMARK    7  A    between atoms: C_21  and  C_22
REMARK                            x       y       z     vdW  Elec       q    Type
REMARK                         _______ _______ _______ _____ _____    ______ ____
ROOT
ATOM      1  C   UNL     1      -0.074   5.630   0.033  0.00  0.00    +0.101 C 
ATOM      2  C   UNL     1      -0.805   6.122   1.255  0.00  0.00    +0.049 A 
ATOM      3  C   UNL     1      -0.404   6.110   2.584  0.00  0.00    +0.068 A 
ATOM      4  N   UNL     1      -1.363   6.640   3.304  0.00  0.00    -0.176 NA
ATOM      5  N   UNL     1      -2.411   7.008   2.446  0.00  0.00    -0.246 N 
ATOM      6  H   UNL     1      -3.320   7.474   2.855  0.00  0.00    +0.192 HD
ATOM      7  C   UNL     1      -2.051   6.683   1.194  0.00  0.00    +0.222 A 
ATOM      8  O   UNL     1      -2.726   6.842   0.028  0.00  0.00    -0.423 OA
ATOM      9  C   UNL     1      -2.035   6.686  -1.119  0.00  0.00    +0.200 C 
ATOM     10  C   UNL     1      -0.803   6.135  -1.187  0.00  0.00    +0.098 C 
ATOM     11  C   UNL     1       0.907   5.580   3.107  0.00  0.00    +0.068 C 
ENDROOT
BRANCH   1  15
ATOM     12  C   UNL     1      -0.016   1.355   0.009  0.00  0.00    +0.157 A 
ATOM     13  C   UNL     1      -1.227   2.034   0.019  0.00  0.00    +0.084 A 
ATOM     14  C   UNL     1      -1.242   3.417   0.032  0.00  0.00    +0.028 A 
ATOM     15  C   UNL     1      -0.054   4.123   0.025  0.00  0.00    -0.032 A 
ATOM     16  C   UNL     1       1.153   3.449   0.010  0.00  0.00    +0.028 A 
ATOM     17  C   UNL     1       1.175   2.067   0.002  0.00  0.00    +0.084 A 
ATOM     18 CL   UNL     1       2.692   1.222  -0.018  0.00  0.00    -0.080 Cl
ATOM     19 CL   UNL     1      -2.720   1.148   0.021  0.00  0.00    -0.080 Cl
BRANCH  12  20
ATOM     20  O   UNL     1       0.002  -0.004   0.002  0.00  0.00    -0.489 OA
BRANCH  20  22
ATOM     21  C   UNL     1       0.042  -2.175   1.063  0.00  0.00    +0.048 C 
ATOM     22  C   UNL     1       0.023  -0.660   1.272  0.00  0.00    +0.226 C 
ENDBRANCH  20  22
ENDBRANCH  12  20
ENDBRANCH   1  15
BRANCH   9  23
ATOM     23  N   UNL     1      -2.618   7.112  -2.287  0.00  0.00    -0.328 N 
ATOM     24  H   UNL     1      -2.083   7.001  -3.242  0.00  0.00    +0.145 HD
ATOM     25  H   UNL     1      -3.620   7.566  -2.268  0.00  0.00    +0.145 HD
ENDBRANCH   9  23
BRANCH  10  26
ATOM     26  C   UNL     1      -0.166   6.027  -2.465  0.00  0.00    +0.101 C 
ATOM     27  N   UNL     1       0.340   5.942  -3.479  0.00  0.00    -0.191 NA
ENDBRANCH  10  26
TORSDOF 5
