REMARK  Name = ZINC65608917
REMARK  6 active torsions:
REMARK  status: ('A' for Active; 'I' for Inactive)
REMARK    1  A    between atoms: C_1  and  C_2
REMARK    2  A    between atoms: C_6  and  C_8
REMARK    3  A    between atoms: C_6  and  C_9
REMARK    4  A    between atoms: C_10  and  C_12
REMARK    5  A    between atoms: C_12  and  C_13
REMARK    6  A    between atoms: C_13  and  N_14
REMARK                            x       y       z     vdW  Elec       q    Type
REMARK                         _______ _______ _______ _____ _____    ______ ____
ROOT
ATOM      1  C   UNL     1      -2.896  -2.247  -1.745  0.00  0.00    +0.117 C 
ENDROOT
BRANCH   1  11
ATOM      2  C   UNL     1      -0.019   1.526   0.010  0.00  0.00    +0.039 C 
ATOM      3  C   UNL     1       0.002  -0.004   0.002  0.00  0.00    +0.133 C 
ATOM      4  C   UNL     1      -1.436  -0.536   0.019  0.00  0.00    +0.139 C 
ATOM      5  N   UNL     1      -1.389  -1.995   0.200  0.00  0.00    -0.296 N 
ATOM      6  C   UNL     1      -0.575  -2.530   1.303  0.00  0.00    +0.142 C 
ATOM      7  C   UNL     1       0.821  -1.901   1.223  0.00  0.00    +0.080 C 
ATOM      8  O   UNL     1       0.693  -0.479   1.160  0.00  0.00    -0.368 OA
ATOM      9  C   UNL     1       1.627  -2.287   2.465  0.00  0.00    +0.043 C 
ATOM     10  C   UNL     1       1.538  -2.406  -0.030  0.00  0.00    +0.043 C 
ATOM     11  C   UNL     1      -2.070  -2.818  -0.622  0.00  0.00    +0.217 C 
ATOM     12  O   UNL     1      -2.019  -4.019  -0.457  0.00  0.00    -0.276 OA
ENDBRANCH   1  11
BRANCH   1  13
ATOM     13  C   UNL     1      -3.562  -3.386  -2.519  0.00  0.00    +0.138 C 
BRANCH  13  14
ATOM     14  N   UNL     1      -4.365  -2.831  -3.611  0.00  0.00    -0.274 N 
ATOM     15  C   UNL     1      -5.707  -2.457  -3.541  0.00  0.00    +0.090 A 
ATOM     16  C   UNL     1      -6.648  -2.479  -2.524  0.00  0.00    +0.030 A 
ATOM     17  C   UNL     1      -7.932  -2.031  -2.767  0.00  0.00    +0.002 A 
ATOM     18  C   UNL     1      -8.280  -1.562  -4.022  0.00  0.00    +0.004 A 
ATOM     19  C   UNL     1      -7.346  -1.538  -5.041  0.00  0.00    +0.048 A 
ATOM     20  C   UNL     1      -6.056  -1.985  -4.806  0.00  0.00    +0.157 A 
ATOM     21  O   UNL     1      -4.953  -2.079  -5.589  0.00  0.00    -0.407 OA
ATOM     22  C   UNL     1      -3.940  -2.582  -4.866  0.00  0.00    +0.421 A 
ATOM     23  O   UNL     1      -2.815  -2.785  -5.280  0.00  0.00    -0.223 OA
ENDBRANCH  13  14
ENDBRANCH   1  13
TORSDOF 3
