REMARK  Name = ZINC00127305
REMARK  3 active torsions:
REMARK  status: ('A' for Active; 'I' for Inactive)
REMARK    1  A    between atoms: C_5  and  N_7
REMARK    2  A    between atoms: C_8  and  C_10
REMARK    3  A    between atoms: C_10  and  C_18
REMARK                            x       y       z     vdW  Elec       q    Type
REMARK                         _______ _______ _______ _____ _____    ______ ____
ROOT
ATOM      1  N   UNL     1       2.903   6.147   0.440  0.00  0.00    -0.280 N 
ATOM      2  C   UNL     1       1.837   5.332   0.568  0.00  0.00    +0.259 C 
ATOM      3  O   UNL     1       1.141   5.393   1.563  0.00  0.00    -0.269 OA
ATOM      4  H   UNL     1       3.409   6.157  -0.387  0.00  0.00    +0.155 HD
ENDROOT
BRANCH   2   5
ATOM      5  C   UNL     1       1.514   4.365  -0.501  0.00  0.00    +0.113 C 
ATOM      6  C   UNL     1       0.362   3.669  -0.454  0.00  0.00    -0.047 C 
ATOM      7  C   UNL     1       0.154   2.539  -1.445  0.00  0.00    +0.032 C 
ATOM      8  C   UNL     1      -0.487   1.308  -0.776  0.00  0.00    +0.004 C 
ATOM      9  C   UNL     1       0.118   1.107   0.593  0.00  0.00    +0.000 C 
ATOM     10  C   UNL     1      -0.747   1.806   1.632  0.00  0.00    +0.000 C 
ATOM     11  C   UNL     1      -0.414   3.220   1.864  0.00  0.00    +0.004 C 
ATOM     12  C   UNL     1      -0.655   4.039   0.570  0.00  0.00    +0.032 C 
BRANCH   5  13
ATOM     13  C   UNL     1       2.426   4.168  -1.587  0.00  0.00    +0.104 C 
ATOM     14  N   UNL     1       3.149   4.012  -2.449  0.00  0.00    -0.191 NA
ENDBRANCH   5  13
ENDBRANCH   2   5
BRANCH   1  19
ATOM     15  C   UNL     1       3.223   7.520   3.836  0.00  0.00    +0.002 A 
ATOM     16  C   UNL     1       4.024   8.622   3.599  0.00  0.00    +0.002 A 
ATOM     17  C   UNL     1       4.455   8.905   2.316  0.00  0.00    +0.022 A 
ATOM     18  C   UNL     1       4.085   8.086   1.266  0.00  0.00    +0.062 A 
ATOM     19  C   UNL     1       3.279   6.978   1.501  0.00  0.00    +0.052 A 
ATOM     20  C   UNL     1       2.845   6.701   2.790  0.00  0.00    +0.025 A 
ATOM     21 CL   UNL     1       4.625   8.442  -0.345  0.00  0.00    -0.082 Cl
ENDBRANCH   1  19
TORSDOF 3
