REMARK  Name = ZINC14478095
REMARK  6 active torsions:
REMARK  status: ('A' for Active; 'I' for Inactive)
REMARK    1  A    between atoms: C_1  and  N_2
REMARK    2  A    between atoms: N_2  and  C_3
REMARK    3  A    between atoms: N_2  and  S_9
REMARK    4  A    between atoms: S_9  and  C_12
REMARK    5  A    between atoms: C_25  and  C_28
REMARK    6  A    between atoms: C_33  and  N_34
REMARK                            x       y       z     vdW  Elec       q    Type
REMARK                         _______ _______ _______ _____ _____    ______ ____
ROOT
ATOM      1  C   UNL     1      -3.984   5.321   1.627  0.00  0.00    +0.109 A 
ATOM      2  C   UNL     1      -4.280   4.475   2.681  0.00  0.00    +0.030 A 
ATOM      3  C   UNL     1      -3.397   3.468   3.019  0.00  0.00    +0.025 A 
ATOM      4  C   UNL     1      -2.218   3.307   2.301  0.00  0.00    +0.031 A 
ATOM      5  C   UNL     1      -1.920   4.134   1.244  0.00  0.00    -0.018 A 
ATOM      6  C   UNL     1      -2.813   5.162   0.915  0.00  0.00    +0.034 A 
ATOM      7  C   UNL     1      -0.663   4.017   0.441  0.00  0.00    +0.049 C 
ATOM      8  C   UNL     1      -0.929   3.404  -0.913  0.00  0.00    -0.023 C 
ATOM      9  C   UNL     1       0.064   2.621  -1.259  0.00  0.00    -0.030 C 
ATOM     10  C   UNL     1       1.132   2.610  -0.182  0.00  0.00    +0.033 C 
ATOM     11  C   UNL     1       0.366   3.070   1.094  0.00  0.00    +0.029 C 
ATOM     12  C   UNL     1      -0.347   1.841   1.665  0.00  0.00    +0.107 C 
ATOM     13  N   UNL     1      -1.335   2.282   2.655  0.00  0.00    -0.336 N 
ATOM     14  H   UNL     1      -1.375   1.872   3.533  0.00  0.00    +0.147 HD
ENDROOT
BRANCH  12  15
ATOM     15  C   UNL     1      -1.041   1.098   0.552  0.00  0.00    +0.003 A 
ATOM     16  C   UNL     1      -2.333   1.438   0.194  0.00  0.00    +0.008 A 
ATOM     17  C   UNL     1      -2.969   0.757  -0.826  0.00  0.00    +0.000 A 
ATOM     18  C   UNL     1      -2.314  -0.264  -1.489  0.00  0.00    +0.002 A 
ATOM     19  C   UNL     1      -1.023  -0.604  -1.132  0.00  0.00    +0.033 A 
ATOM     20  C   UNL     1      -0.384   0.081  -0.115  0.00  0.00    +0.131 A 
BRANCH  20  21
ATOM     21  N   UNL     1       1.001  -0.279   0.264  0.00  0.00    +0.057 N 
ATOM     22  O   UNL     1       1.621  -1.092  -0.397  0.00  0.00    -0.126 OA
ATOM     23  O   UNL     1       1.519   0.238   1.238  0.00  0.00    -0.126 OA
ENDBRANCH  20  21
ENDBRANCH  12  15
BRANCH   1  24
ATOM     24  S   UNL     1      -5.107   6.607   1.194  0.00  0.00    +0.074 S 
ATOM     25  O   UNL     1      -4.861   6.918  -0.171  0.00  0.00    -0.150 OA
ATOM     26  O   UNL     1      -6.386   6.206   1.665  0.00  0.00    -0.150 OA
BRANCH  24  28
ATOM     27  C   UNL     1      -3.789   8.951   1.481  0.00  0.00    +0.157 C 
ATOM     28  N   UNL     1      -4.679   7.947   2.068  0.00  0.00    -0.206 N 
BRANCH  28  29
ATOM     29  C   UNL     1      -5.166   8.118   3.366  0.00  0.00    +0.051 A 
ATOM     30  C   UNL     1      -6.530   8.263   3.584  0.00  0.00    +0.025 A 
ATOM     31  C   UNL     1      -7.009   8.428   4.869  0.00  0.00    +0.002 A 
ATOM     32  C   UNL     1      -6.131   8.459   5.937  0.00  0.00    +0.000 A 
ATOM     33  C   UNL     1      -4.772   8.320   5.723  0.00  0.00    +0.002 A 
ATOM     34  C   UNL     1      -4.287   8.150   4.441  0.00  0.00    +0.025 A 
ENDBRANCH  28  29
ENDBRANCH  24  28
ENDBRANCH   1  24
TORSDOF 5
