REMARK  Name = ZINC33512492
REMARK  5 active torsions:
REMARK  status: ('A' for Active; 'I' for Inactive)
REMARK    1  A    between atoms: C_1  and  C_2
REMARK    2  A    between atoms: C_2  and  C_4
REMARK    3  A    between atoms: C_2  and  N_14
REMARK    4  A    between atoms: N_6  and  C_7
REMARK    5  A    between atoms: C_16  and  N_21
REMARK                            x       y       z     vdW  Elec       q    Type
REMARK                         _______ _______ _______ _____ _____    ______ ____
ROOT
ATOM      1  C   UNL     1       4.418  -0.348  -1.292  0.00  0.00    +0.041 C 
ATOM      2  C   UNL     1       3.629  -0.714  -0.033  0.00  0.00    +0.173 C 
ENDROOT
BRANCH   2   3
ATOM      3  N   UNL     1       2.362   0.022  -0.019  0.00  0.00    -0.302 N 
ATOM      4  C   UNL     1       1.187  -0.663  -0.005  0.00  0.00    +0.112 A 
ATOM      5  C   UNL     1       0.001  -0.001   0.009  0.00  0.00    +0.041 A 
ATOM      6  C   UNL     1      -0.015   1.405   0.007  0.00  0.00    +0.029 A 
ATOM      7  C   UNL     1       1.167   2.085  -0.008  0.00  0.00    +0.072 A 
ATOM      8  C   UNL     1       2.375   1.368  -0.021  0.00  0.00    +0.252 A 
ATOM      9  O   UNL     1       3.439   1.967  -0.034  0.00  0.00    -0.268 OA
BRANCH   5  10
ATOM     10  N   UNL     1      -1.205  -0.718   0.024  0.00  0.00    -0.357 N 
ATOM     11  H   UNL     1      -2.164  -0.181   0.035  0.00  0.00    +0.142 HD
ATOM     12  H   UNL     1      -1.191  -1.818   0.026  0.00  0.00    +0.142 HD
ENDBRANCH   5  10
ENDBRANCH   2   3
BRANCH   2  13
ATOM     13  C   UNL     1       4.435  -0.350   1.187  0.00  0.00    +0.240 C 
ATOM     14  O   UNL     1       3.994   0.445   1.990  0.00  0.00    -0.273 OA
ATOM     15  N   UNL     1       5.645  -0.909   1.387  0.00  0.00    -0.284 N 
ATOM     16  H   UNL     1       6.012  -1.687   0.701  0.00  0.00    +0.155 HD
BRANCH  15  17
ATOM     17  C   UNL     1       6.435  -0.500   2.468  0.00  0.00    +0.034 A 
ATOM     18  C   UNL     1       7.817  -0.453   2.341  0.00  0.00    +0.025 A 
ATOM     19  C   UNL     1       8.594  -0.044   3.407  0.00  0.00    +0.022 A 
ATOM     20  C   UNL     1       7.996   0.307   4.605  0.00  0.00    +0.041 A 
ATOM     21  C   UNL     1       6.620   0.256   4.736  0.00  0.00    +0.022 A 
ATOM     22  C   UNL     1       5.838  -0.147   3.671  0.00  0.00    +0.025 A 
ATOM     23 CL   UNL     1       8.976   0.815   5.946  0.00  0.00    -0.084 Cl
ENDBRANCH  15  17
ENDBRANCH   2  13
TORSDOF 4
