REMARK  Name = ZINC10610619
REMARK  3 active torsions:
REMARK  status: ('A' for Active; 'I' for Inactive)
REMARK    1  A    between atoms: C_1  and  C_2
REMARK    2  A    between atoms: C_13  and  C_15
REMARK    3  A    between atoms: C_15  and  N_16
REMARK                            x       y       z     vdW  Elec       q    Type
REMARK                         _______ _______ _______ _____ _____    ______ ____
ROOT
ATOM      1  C   UNL     1       6.253   1.720   3.968  0.00  0.00    +0.028 C 
ATOM      2  C   UNL     1       7.239   1.089   2.982  0.00  0.00    +0.079 C 
ATOM      3  C   UNL     1       8.640   1.660   3.215  0.00  0.00    +0.027 C 
ATOM      4  C   UNL     1       9.621   0.971   2.267  0.00  0.00    +0.039 C 
ATOM      5  C   UNL     1       9.111   1.024   0.851  0.00  0.00    -0.026 A 
ATOM      6  C   UNL     1      10.008   0.855  -0.191  0.00  0.00    +0.005 A 
ATOM      7  C   UNL     1       9.570   0.889  -1.501  0.00  0.00    +0.000 A 
ATOM      8  C   UNL     1       8.230   1.092  -1.780  0.00  0.00    +0.002 A 
ATOM      9  C   UNL     1       7.331   1.264  -0.748  0.00  0.00    +0.024 A 
ATOM     10  C   UNL     1       7.770   1.232   0.571  0.00  0.00    +0.040 A 
ATOM     11  N   UNL     1       6.840   1.412   1.605  0.00  0.00    -0.267 N 
ATOM     12  C   UNL     1       5.604   1.878   1.341  0.00  0.00    +0.240 C 
ATOM     13  O   UNL     1       5.334   2.286   0.231  0.00  0.00    -0.273 OA
ENDROOT
BRANCH  12  14
ATOM     14  C   UNL     1       4.557   1.893   2.425  0.00  0.00    +0.222 C 
BRANCH  14  15
ATOM     15  N   UNL     1       3.261   2.259   1.847  0.00  0.00    -0.290 N 
ATOM     16  C   UNL     1       2.443   1.282   1.378  0.00  0.00    +0.203 A 
ATOM     17  N   UNL     1       1.280   1.567   0.856  0.00  0.00    -0.230 NA
ATOM     18  C   UNL     1       0.859   2.825   0.767  0.00  0.00    +0.115 A 
ATOM     19  C   UNL     1       1.637   3.904   1.225  0.00  0.00    +0.072 A 
ATOM     20  C   UNL     1       2.906   3.556   1.792  0.00  0.00    +0.263 A 
ATOM     21  O   UNL     1       3.652   4.420   2.217  0.00  0.00    -0.267 OA
ATOM     22  C   UNL     1       1.033   5.212   1.054  0.00  0.00    +0.023 A 
ATOM     23  C   UNL     1      -0.185   5.304   0.496  0.00  0.00    +0.048 A 
ATOM     24  S   UNL     1      -0.607   3.608   0.145  0.00  0.00    -0.077 S 
ENDBRANCH  14  15
ENDBRANCH  12  14
TORSDOF 2
