REMARK  Name = ZINC09781870
REMARK  5 active torsions:
REMARK  status: ('A' for Active; 'I' for Inactive)
REMARK    1  A    between atoms: C_4  and  C_7
REMARK    2  A    between atoms: C_7  and  N_8
REMARK    3  A    between atoms: N_13  and  C_16
REMARK    4  A    between atoms: C_16  and  N_52
REMARK    5  A    between atoms: C_24  and  C_26
REMARK                            x       y       z     vdW  Elec       q    Type
REMARK                         _______ _______ _______ _____ _____    ______ ____
ROOT
ATOM      1  C   UNL     1      -2.155   4.437   0.491  0.00  0.00    +0.044 C 
ENDROOT
BRANCH   1  10
ATOM      2  C   UNL     1       0.107   4.182  -0.335  0.00  0.00    -0.070 C 
ATOM      3  C   UNL     1       1.437   3.488   0.004  0.00  0.00    +0.024 C 
ATOM      4  C   UNL     1       1.194   2.014   0.002  0.00  0.00    -0.010 A 
ATOM      5  C   UNL     1      -0.017   1.389   0.010  0.00  0.00    -0.046 A 
ATOM      6  C   UNL     1       0.002  -0.004   0.002  0.00  0.00    +0.010 A 
ATOM      7  C   UNL     1       1.183  -0.665  -0.012  0.00  0.00    +0.045 A 
ATOM      8  S   UNL     1       2.359   0.681  -0.015  0.00  0.00    -0.101 S 
ATOM      9  C   UNL     1      -1.295   2.222   0.033  0.00  0.00    -0.004 C 
ATOM     10  N   UNL     1      -0.953   3.582   0.511  0.00  0.00    +0.398 N 
ATOM     11  H   UNL     1      -0.608   3.516   1.476  0.00  0.00    -0.078 HD
BRANCH   9  12
ATOM     12  C   UNL     1      -2.284   1.605   0.988  0.00  0.00    -0.057 A 
ATOM     13  C   UNL     1      -2.157   1.819   2.347  0.00  0.00    +0.002 A 
ATOM     14  C   UNL     1      -3.067   1.257   3.223  0.00  0.00    +0.000 A 
ATOM     15  C   UNL     1      -4.098   0.474   2.740  0.00  0.00    +0.000 A 
ATOM     16  C   UNL     1      -4.222   0.256   1.380  0.00  0.00    +0.000 A 
ATOM     17  C   UNL     1      -3.315   0.821   0.504  0.00  0.00    +0.002 A 
ENDBRANCH   9  12
ENDBRANCH   1  10
BRANCH   1  23
ATOM     18  N   UNL     1      -1.410   7.472   2.336  0.00  0.00    -0.213 N 
ATOM     19  C   UNL     1      -1.945   6.772   3.360  0.00  0.00    +0.310 C 
ATOM     20  O   UNL     1      -2.086   7.140   4.507  0.00  0.00    -0.264 OA
ATOM     21  C   UNL     1      -2.332   5.445   2.777  0.00  0.00    +0.308 C 
ATOM     22  O   UNL     1      -2.853   4.513   3.353  0.00  0.00    -0.265 OA
ATOM     23  N   UNL     1      -1.976   5.507   1.475  0.00  0.00    -0.235 N 
ATOM     24  C   UNL     1      -1.435   6.712   1.230  0.00  0.00    +0.317 C 
ATOM     25  O   UNL     1      -1.022   7.068   0.144  0.00  0.00    -0.252 OA
BRANCH  18  26
ATOM     26  C   UNL     1      -0.887   8.838   2.419  0.00  0.00    +0.153 C 
BRANCH  26  30
ATOM     27  C   UNL     1      -4.023  11.617   1.586  0.00  0.00    +0.000 A 
ATOM     28  C   UNL     1      -3.794  11.202   2.885  0.00  0.00    +0.000 A 
ATOM     29  C   UNL     1      -2.779  10.303   3.154  0.00  0.00    +0.005 A 
ATOM     30  C   UNL     1      -1.994   9.818   2.125  0.00  0.00    -0.030 A 
ATOM     31  C   UNL     1      -2.220  10.237   0.827  0.00  0.00    +0.005 A 
ATOM     32  C   UNL     1      -3.237  11.132   0.557  0.00  0.00    +0.000 A 
ENDBRANCH  26  30
ENDBRANCH  18  26
ENDBRANCH   1  23
TORSDOF 5
