REMARK  Name = ZINC12897462
REMARK  5 active torsions:
REMARK  status: ('A' for Active; 'I' for Inactive)
REMARK    1  A    between atoms: C_1  and  C_2
REMARK    2  A    between atoms: C_2  and  C_3
REMARK    3  A    between atoms: C_2  and  S_11
REMARK    4  A    between atoms: S_11  and  C_12
REMARK    5  A    between atoms: C_15  and  C_18
REMARK                            x       y       z     vdW  Elec       q    Type
REMARK                         _______ _______ _______ _____ _____    ______ ____
ROOT
ATOM      1  S   UNL     1       0.851  -0.589  -1.490  0.00  0.00    -0.074 S 
ENDROOT
BRANCH   1   2
ATOM      2  C   UNL     1       2.509  -0.029  -1.285  0.00  0.00    +0.185 A 
ATOM      3  N   UNL     1       2.975   0.656  -0.262  0.00  0.00    -0.205 NA
ATOM      4  H   UNL     1       3.492  -0.706  -2.991  0.00  0.00    +0.191 HD
ATOM      5  C   UNL     1       4.272   0.908  -0.443  0.00  0.00    +0.155 A 
ATOM      6  N   UNL     1       4.654   0.391  -1.579  0.00  0.00    -0.157 NA
ATOM      7  N   UNL     1       3.529  -0.230  -2.147  0.00  0.00    -0.254 N 
BRANCH   5   8
ATOM      8  C   UNL     1       5.155   1.669   0.512  0.00  0.00    +0.059 C 
ATOM      9  C   UNL     1       5.794   2.875  -0.206  0.00  0.00    +0.011 C 
ATOM     10  C   UNL     1       7.222   2.958   0.387  0.00  0.00    +0.001 C 
ATOM     11  C   UNL     1       7.618   1.468   0.535  0.00  0.00    +0.001 C 
ATOM     12  C   UNL     1       6.315   0.774   0.984  0.00  0.00    +0.011 C 
ENDBRANCH   5   8
ENDBRANCH   1   2
BRANCH   1  14
ATOM     13  C   UNL     1      -0.019   1.526   0.010  0.00  0.00    +0.029 C 
ATOM     14  C   UNL     1       0.002  -0.004   0.002  0.00  0.00    +0.137 C 
BRANCH  14  15
ATOM     15  C   UNL     1      -1.412  -0.526   0.013  0.00  0.00    +0.236 C 
ATOM     16  O   UNL     1      -1.927  -0.901  -1.018  0.00  0.00    -0.274 OA
ATOM     17  N   UNL     1      -2.103  -0.575   1.169  0.00  0.00    -0.224 N 
ATOM     18  C   UNL     1      -3.482  -1.065   1.317  0.00  0.00    +0.136 C 
ATOM     19  C   UNL     1      -3.772  -0.901   2.821  0.00  0.00    +0.125 C 
ATOM     20  N   UNL     1      -2.527  -0.335   3.361  0.00  0.00    -0.297 N 
ATOM     21  C   UNL     1      -1.642  -0.191   2.366  0.00  0.00    +0.309 C 
ATOM     22  O   UNL     1      -0.523   0.253   2.534  0.00  0.00    -0.252 OA
ATOM     23  H   UNL     1      -2.370  -0.107   4.290  0.00  0.00    +0.150 HD
ENDBRANCH  14  15
ENDBRANCH   1  14
TORSDOF 4
