REMARK  Name = ZINC12343110
REMARK  4 active torsions:
REMARK  status: ('A' for Active; 'I' for Inactive)
REMARK    1  A    between atoms: C_1  and  C_2
REMARK    2  A    between atoms: C_2  and  C_18
REMARK    3  A    between atoms: N_3  and  N_4
REMARK    4  A    between atoms: C_5  and  C_7
REMARK                            x       y       z     vdW  Elec       q    Type
REMARK                         _______ _______ _______ _____ _____    ______ ____
ROOT
ATOM      1  N   UNL     1       0.024   0.034   2.342  0.00  0.00    -0.204 N 
ATOM      2  C   UNL     1       0.044  -0.646   3.505  0.00  0.00    +0.276 C 
ATOM      3  O   UNL     1       0.060  -1.860   3.499  0.00  0.00    -0.270 OA
ATOM      4  H   UNL     1       0.011   1.003   2.347  0.00  0.00    +0.177 HD
ENDROOT
BRANCH   2   5
ATOM      5  C   UNL     1       0.046   0.100   4.814  0.00  0.00    +0.297 C 
ATOM      6  C   UNL     1       1.353   0.893   4.956  0.00  0.00    +0.283 C 
ATOM      7  O   UNL     1       1.328   1.577   6.213  0.00  0.00    -0.484 OA
ATOM      8  C   UNL     1       0.938   0.851   7.297  0.00  0.00    +0.162 A 
ATOM      9  C   UNL     1       1.229   1.319   8.570  0.00  0.00    +0.049 A 
ATOM     10  C   UNL     1       0.837   0.594   9.680  0.00  0.00    +0.004 A 
ATOM     11  C   UNL     1       0.154  -0.598   9.524  0.00  0.00    +0.004 A 
ATOM     12  C   UNL     1      -0.138  -1.069   8.259  0.00  0.00    +0.049 A 
ATOM     13  C   UNL     1       0.254  -0.348   7.141  0.00  0.00    +0.163 A 
ATOM     14  O   UNL     1      -0.035  -0.830   5.900  0.00  0.00    -0.472 OA
ENDBRANCH   2   5
BRANCH   1  17
ATOM     15  C   UNL     1      -0.018   1.503   0.010  0.00  0.00    +0.068 C 
ATOM     16  C   UNL     1       0.002  -0.004   0.002  0.00  0.00    +0.070 C 
ATOM     17  N   UNL     1       0.022  -0.660   1.125  0.00  0.00    -0.184 NA
BRANCH  16  18
ATOM     18  C   UNL     1      -0.000  -0.730  -1.272  0.00  0.00    +0.035 A 
ATOM     19  C   UNL     1       0.011  -2.096  -1.498  0.00  0.00    +0.017 A 
ATOM     20  C   UNL     1       0.006  -2.543  -2.799  0.00  0.00    +0.008 A 
ATOM     21  C   UNL     1      -0.009  -1.639  -3.813  0.00  0.00    +0.046 A 
ATOM     22  S   UNL     1      -0.025  -0.084  -2.936  0.00  0.00    -0.095 S 
ENDBRANCH  16  18
ENDBRANCH   1  17
TORSDOF 3
