REMARK  Name = ZINC66687072
REMARK  9 active torsions:
REMARK  status: ('A' for Active; 'I' for Inactive)
REMARK    1  A    between atoms: C_1  and  C_2
REMARK    2  A    between atoms: C_2  and  O_3
REMARK    3  A    between atoms: O_3  and  C_4
REMARK    4  A    between atoms: N_6  and  C_7
REMARK    5  A    between atoms: C_7  and  C_9
REMARK    6  A    between atoms: C_7  and  C_12
REMARK    7  A    between atoms: C_9  and  C_10
REMARK    8  A    between atoms: C_9  and  C_11
REMARK    9  A    between atoms: C_18  and  C_21
REMARK                            x       y       z     vdW  Elec       q    Type
REMARK                         _______ _______ _______ _____ _____    ______ ____
ROOT
ATOM      1  C   UNL     1       2.494  -4.280   3.622  0.00  0.00    +0.236 C 
ATOM      2  O   UNL     1       2.987  -3.472   4.380  0.00  0.00    -0.274 OA
ATOM      3  N   UNL     1       2.767  -5.592   3.764  0.00  0.00    -0.295 N 
ATOM      4  C   UNL     1       2.263  -6.580   2.797  0.00  0.00    +0.136 C 
ATOM      5  C   UNL     1       3.437  -7.454   2.341  0.00  0.00    +0.179 C 
ATOM      6  O   UNL     1       4.109  -7.976   3.490  0.00  0.00    -0.369 OA
ATOM      7  C   UNL     1       4.690  -6.977   4.333  0.00  0.00    +0.166 C 
ATOM      8  C   UNL     1       3.584  -6.079   4.887  0.00  0.00    +0.144 C 
ENDROOT
BRANCH   7   9
ATOM      9  C   UNL     1       5.420  -7.642   5.471  0.00  0.00    -0.016 A 
ATOM     10  C   UNL     1       4.930  -8.814   6.016  0.00  0.00    +0.009 A 
ATOM     11  C   UNL     1       5.599  -9.425   7.059  0.00  0.00    +0.040 A 
ATOM     12  C   UNL     1       6.761  -8.863   7.560  0.00  0.00    +0.142 A 
ATOM     13  C   UNL     1       7.252  -7.689   7.014  0.00  0.00    +0.076 A 
ATOM     14  C   UNL     1       6.583  -7.082   5.966  0.00  0.00    +0.029 A 
ATOM     15 CL   UNL     1       8.708  -6.982   7.640  0.00  0.00    -0.081 Cl
ATOM     16  F   UNL     1       7.415  -9.460   8.581  0.00  0.00    -0.204 F 
ENDBRANCH   7   9
BRANCH   1  17
ATOM     17  C   UNL     1       1.574  -3.817   2.522  0.00  0.00    +0.165 C 
BRANCH  17  20
ATOM     18  C   UNL     1       1.502  -1.869   1.060  0.00  0.00    +0.401 C 
ATOM     19  O   UNL     1       1.050  -2.580   0.184  0.00  0.00    -0.226 OA
ATOM     20  N   UNL     1       1.797  -2.392   2.266  0.00  0.00    -0.270 N 
ATOM     21  H   UNL     1       2.158  -1.825   2.966  0.00  0.00    +0.153 HD
BRANCH  18  22
ATOM     22  O   UNL     1       1.708  -0.559   0.825  0.00  0.00    -0.451 OA
BRANCH  22  24
ATOM     23  C   UNL     1       1.672   1.425  -0.554  0.00  0.00    +0.048 C 
ATOM     24  C   UNL     1       1.372  -0.073  -0.476  0.00  0.00    +0.230 C 
ENDBRANCH  22  24
ENDBRANCH  18  22
ENDBRANCH  17  20
BRANCH  17  25
ATOM     25  C   UNL     1       0.120  -4.037   2.945  0.00  0.00    +0.012 C 
ATOM     26  C   UNL     1      -0.210  -3.125   4.129  0.00  0.00    +0.009 C 
ATOM     27  C   UNL     1      -0.807  -3.709   1.774  0.00  0.00    +0.009 C 
ENDBRANCH  17  25
ENDBRANCH   1  17
TORSDOF 6
