REMARK  Name = ZINC39927195
REMARK  6 active torsions:
REMARK  status: ('A' for Active; 'I' for Inactive)
REMARK    1  A    between atoms: C_1  and  O_2
REMARK    2  A    between atoms: O_2  and  C_3
REMARK    3  A    between atoms: C_10  and  N_13
REMARK    4  A    between atoms: C_14  and  C_16
REMARK    5  A    between atoms: C_19  and  C_22
REMARK    6  A    between atoms: C_27  and  O_28
REMARK                            x       y       z     vdW  Elec       q    Type
REMARK                         _______ _______ _______ _____ _____    ______ ____
ROOT
ATOM      1  N   UNL     1       1.688  -4.582  -5.371  0.00  0.00    -0.286 N 
ATOM      2  C   UNL     1       1.691  -5.913  -5.584  0.00  0.00    +0.245 C 
ATOM      3  O   UNL     1       2.309  -6.645  -4.840  0.00  0.00    -0.273 OA
ATOM      4  H   UNL     1       1.194  -3.997  -5.967  0.00  0.00    +0.151 HD
ENDROOT
BRANCH   1  12
ATOM      5  C   UNL     1       0.606  -0.608  -1.056  0.00  0.00    +0.121 A 
ATOM      6  C   UNL     1       1.177   0.150  -2.069  0.00  0.00    +0.047 A 
ATOM      7  C   UNL     1       1.790  -0.451  -3.144  0.00  0.00    +0.027 A 
ATOM      8  C   UNL     1       1.861  -1.850  -3.255  0.00  0.00    +0.043 A 
ATOM      9  C   UNL     1       1.278  -2.588  -2.220  0.00  0.00    +0.035 A 
ATOM     10  C   UNL     1       0.667  -1.993  -1.139  0.00  0.00    +0.062 A 
ATOM     11  S   UNL     1       1.536  -4.292  -2.660  0.00  0.00    -0.082 S 
ATOM     12  C   UNL     1       2.432  -4.020  -4.242  0.00  0.00    +0.224 C 
ATOM     13  N   UNL     1       2.460  -2.552  -4.304  0.00  0.00    -0.316 N 
ATOM     14  H   UNL     1       2.878  -2.088  -5.046  0.00  0.00    +0.149 HD
BRANCH   5  16
ATOM     15  C   UNL     1      -0.017   1.425   0.010  0.00  0.00    +0.277 C 
ATOM     16  O   UNL     1       0.002  -0.004   0.002  0.00  0.00    -0.495 OA
ENDBRANCH   5  16
ENDBRANCH   1  12
BRANCH   2  17
ATOM     17  C   UNL     1       0.926  -6.492  -6.746  0.00  0.00    +0.238 C 
ATOM     18  C   UNL     1      -0.541  -6.657  -6.394  0.00  0.00    +0.041 C 
ATOM     19  C   UNL     1      -0.752  -7.983  -6.498  0.00  0.00    +0.095 C 
ATOM     20  N   UNL     1       0.393  -8.618  -6.863  0.00  0.00    -0.153 NA
ATOM     21  N   UNL     1       1.365  -7.870  -7.023  0.00  0.00    -0.170 NA
BRANCH  19  22
ATOM     22  C   UNL     1      -2.050  -8.656  -6.249  0.00  0.00    +0.043 A 
ATOM     23  C   UNL     1      -2.157 -10.039  -6.379  0.00  0.00    +0.014 A 
ATOM     24  C   UNL     1      -3.367 -10.661  -6.146  0.00  0.00    +0.001 A 
ATOM     25  C   UNL     1      -4.475  -9.916  -5.783  0.00  0.00    +0.004 A 
ATOM     26  C   UNL     1      -4.379  -8.543  -5.650  0.00  0.00    +0.046 A 
ATOM     27  C   UNL     1      -3.170  -7.907  -5.876  0.00  0.00    +0.126 A 
BRANCH  27  28
ATOM     28  O   UNL     1      -3.073  -6.559  -5.741  0.00  0.00    -0.506 OA
ATOM     29  H   UNL     1      -3.261  -6.067  -6.553  0.00  0.00    +0.292 HD
ENDBRANCH  27  28
ENDBRANCH  19  22
ENDBRANCH   2  17
TORSDOF 5
