REMARK  Name = ZINC15672012
REMARK  9 active torsions:
REMARK  status: ('A' for Active; 'I' for Inactive)
REMARK    1  A    between atoms: C_1  and  C_2
REMARK    2  A    between atoms: C_5  and  C_9
REMARK    3  A    between atoms: C_7  and  C_8
REMARK    4  A    between atoms: C_10  and  C_27
REMARK    5  A    between atoms: N_16  and  C_17
REMARK    6  A    between atoms: C_17  and  C_18
REMARK    7  A    between atoms: C_18  and  C_19
REMARK    8  A    between atoms: C_19  and  N_58
REMARK    9  A    between atoms: C_24  and  C_26
REMARK                            x       y       z     vdW  Elec       q    Type
REMARK                         _______ _______ _______ _____ _____    ______ ____
ROOT
ATOM      1  C   UNL     1       6.269   3.234   5.797  0.00  0.00    +0.126 C 
ATOM      2  C   UNL     1       5.456   3.449   4.737  0.00  0.00    +0.018 C 
ATOM      3  C   UNL     1       4.279   2.603   4.693  0.00  0.00    +0.145 C 
ATOM      4  N   UNL     1       4.098   1.735   5.647  0.00  0.00    -0.113 NA
ATOM      5  S   UNL     1       5.417   1.929   6.659  0.00  0.00    +0.101 S 
ATOM      6  O   UNL     1       6.215   0.757   6.567  0.00  0.00    -0.146 OA
ATOM      7  O   UNL     1       4.942   2.459   7.888  0.00  0.00    -0.146 OA
ATOM      8  N   UNL     1       3.366   2.720   3.663  0.00  0.00    -0.328 N 
ATOM      9  C   UNL     1       5.751   4.485   3.684  0.00  0.00    +0.049 C 
ATOM     10  H   UNL     1       3.509   3.373   2.960  0.00  0.00    +0.147 HD
ENDROOT
BRANCH   1  15
ATOM     11  C   UNL     1      11.197   5.861   7.167  0.00  0.00    +0.044 C 
ATOM     12  C   UNL     1       9.905   5.173   6.808  0.00  0.00    -0.048 A 
ATOM     13  C   UNL     1       9.220   5.546   5.665  0.00  0.00    +0.004 A 
ATOM     14  C   UNL     1       8.038   4.921   5.330  0.00  0.00    +0.010 A 
ATOM     15  C   UNL     1       7.532   3.907   6.148  0.00  0.00    +0.002 A 
ATOM     16  C   UNL     1       8.226   3.538   7.303  0.00  0.00    +0.013 A 
ATOM     17  C   UNL     1       9.410   4.170   7.622  0.00  0.00    -0.047 A 
ATOM     18  C   UNL     1      10.164   3.770   8.865  0.00  0.00    +0.044 C 
ENDBRANCH   1  15
BRANCH   8  19
ATOM     19  C   UNL     1       2.182   1.858   3.633  0.00  0.00    +0.101 C 
BRANCH  19  20
ATOM     20  C   UNL     1       1.341   2.189   2.398  0.00  0.00    +0.000 C 
BRANCH  20  21
ATOM     21  C   UNL     1       0.104   1.288   2.367  0.00  0.00    -0.077 C 
BRANCH  21  28
ATOM     22  C   UNL     1      -0.034   1.155  -0.046  0.00  0.00    -0.078 C 
ATOM     23  C   UNL     1      -0.829   1.629  -1.265  0.00  0.00    -0.019 C 
ATOM     24  C   UNL     1      -2.248   1.060  -1.195  0.00  0.00    -0.003 C 
ATOM     25  C   UNL     1      -2.905   1.504   0.115  0.00  0.00    -0.016 C 
ATOM     26  C   UNL     1      -2.050   1.033   1.293  0.00  0.00    -0.072 C 
ATOM     27  C   UNL     1      -2.691   1.492   2.604  0.00  0.00    -0.013 C 
ATOM     28  N   UNL     1      -0.705   1.636   1.181  0.00  0.00    +0.381 N 
ATOM     29  H   UNL     1      -0.800   2.657   1.130  0.00  0.00    -0.081 HD
ENDBRANCH  21  28
ENDBRANCH  20  21
ENDBRANCH  19  20
ENDBRANCH   8  19
TORSDOF 5
