REMARK  Name = ZINC63386034
REMARK  6 active torsions:
REMARK  status: ('A' for Active; 'I' for Inactive)
REMARK    1  A    between atoms: C_1  and  C_2
REMARK    2  A    between atoms: C_2  and  C_3
REMARK    3  A    between atoms: C_16  and  C_19
REMARK    4  A    between atoms: N_25  and  C_28
REMARK    5  A    between atoms: C_31  and  O_34
REMARK    6  A    between atoms: O_34  and  C_35
REMARK                            x       y       z     vdW  Elec       q    Type
REMARK                         _______ _______ _______ _____ _____    ______ ____
ROOT
ATOM      1  C   UNL     1      -1.830  -0.921   0.573  0.00  0.00    -0.067 C 
ATOM      2  C   UNL     1      -1.633  -2.308  -0.067  0.00  0.00    +0.018 C 
ATOM      3  C   UNL     1      -3.010  -2.791  -0.451  0.00  0.00    -0.041 C 
ATOM      4  C   UNL     1      -3.500  -3.302  -1.570  0.00  0.00    -0.001 A 
ATOM      5  C   UNL     1      -2.853  -3.725  -2.823  0.00  0.00    +0.010 A 
ATOM      6  C   UNL     1      -3.680  -4.189  -3.797  0.00  0.00    +0.001 A 
ATOM      7  C   UNL     1      -5.068  -4.272  -3.654  0.00  0.00    +0.002 A 
ATOM      8  C   UNL     1      -5.746  -3.916  -2.534  0.00  0.00    +0.026 A 
ATOM      9  C   UNL     1      -4.984  -3.423  -1.435  0.00  0.00    +0.043 A 
ATOM     10  N   UNL     1      -5.366  -3.045  -0.249  0.00  0.00    -0.379 N 
ATOM     11  C   UNL     1      -4.176  -2.715   0.531  0.00  0.00    +0.097 C 
ATOM     12  C   UNL     1      -4.187  -1.281   1.064  0.00  0.00    -0.003 C 
ATOM     13  N   UNL     1      -2.855  -0.987   1.617  0.00  0.00    +0.387 N 
ATOM     14  H   UNL     1      -2.605  -1.707   2.277  0.00  0.00    -0.085 HD
ATOM     15  H   UNL     1      -6.283  -2.992   0.063  0.00  0.00    +0.160 HD
ATOM     16  H   UNL     1      -2.891  -0.100   2.098  0.00  0.00    -0.085 HD
ENDROOT
BRANCH  12  17
ATOM     17  C   UNL     1      -4.499  -0.324  -0.057  0.00  0.00    +0.070 A 
ATOM     18  C   UNL     1      -3.743  -0.318  -1.192  0.00  0.00    +0.257 A 
ATOM     19  N   UNL     1      -4.045   0.561  -2.200  0.00  0.00    -0.302 N 
ATOM     20  H   UNL     1      -3.510   0.569  -3.009  0.00  0.00    +0.171 HD
ATOM     21  C   UNL     1      -5.080   1.412  -2.075  0.00  0.00    +0.168 A 
ATOM     22  S   UNL     1      -5.436   2.499  -3.349  0.00  0.00    -0.012 S 
ATOM     23  N   UNL     1      -5.839   1.421  -0.964  0.00  0.00    -0.256 N 
ATOM     24  C   UNL     1      -5.579   0.570   0.049  0.00  0.00    +0.264 A 
ATOM     25  O   UNL     1      -6.272   0.579   1.051  0.00  0.00    -0.267 OA
ATOM     26  O   UNL     1      -2.703  -1.170  -1.321  0.00  0.00    -0.267 OA
BRANCH  23  27
ATOM     27  C   UNL     1      -6.911   2.319  -0.861  0.00  0.00    +0.052 A 
ATOM     28  C   UNL     1      -6.710   3.581  -0.318  0.00  0.00    +0.030 A 
ATOM     29  C   UNL     1      -7.766   4.465  -0.216  0.00  0.00    +0.047 A 
ATOM     30  C   UNL     1      -9.028   4.092  -0.657  0.00  0.00    +0.120 A 
ATOM     31  C   UNL     1      -9.229   2.831  -1.200  0.00  0.00    +0.047 A 
ATOM     32  C   UNL     1      -8.172   1.949  -1.307  0.00  0.00    +0.030 A 
BRANCH  30  33
ATOM     33  O   UNL     1     -10.067   4.963  -0.557  0.00  0.00    -0.495 OA
ATOM     34  C   UNL     1     -11.338   4.512  -1.031  0.00  0.00    +0.277 C 
ENDBRANCH  30  33
ENDBRANCH  23  27
ENDBRANCH  12  17
BRANCH   1  36
ATOM     35  C   UNL     1      -0.665   0.976   1.706  0.00  0.00    +0.002 C 
ATOM     36  C   UNL     1      -0.509  -0.455   1.188  0.00  0.00    -0.019 C 
ENDBRANCH   1  36
TORSDOF 4
