REMARK  Name = ZINC49281817
REMARK  6 active torsions:
REMARK  status: ('A' for Active; 'I' for Inactive)
REMARK    1  A    between atoms: C_1  and  C_2
REMARK    2  A    between atoms: C_2  and  C_3
REMARK    3  A    between atoms: C_2  and  N_4
REMARK    4  A    between atoms: C_7  and  N_10
REMARK    5  A    between atoms: N_10  and  C_11
REMARK    6  A    between atoms: C_14  and  N_18
REMARK                            x       y       z     vdW  Elec       q    Type
REMARK                         _______ _______ _______ _____ _____    ______ ____
ROOT
ATOM      1  N   UNL     1       4.189  -1.193  -1.695  0.00  0.00    -0.343 N 
ATOM      2  H   UNL     1       4.405  -1.043  -0.762  0.00  0.00    +0.146 HD
ENDROOT
BRANCH   1   3
ATOM      3  C   UNL     1       5.175  -1.642  -2.577  0.00  0.00    +0.028 A 
ATOM      4  C   UNL     1       4.869  -1.852  -3.916  0.00  0.00    +0.025 A 
ATOM      5  C   UNL     1       5.846  -2.295  -4.785  0.00  0.00    +0.035 A 
ATOM      6  C   UNL     1       7.129  -2.530  -4.324  0.00  0.00    +0.139 A 
ATOM      7  C   UNL     1       7.437  -2.323  -2.992  0.00  0.00    +0.045 A 
ATOM      8  C   UNL     1       6.466  -1.873  -2.118  0.00  0.00    +0.039 A 
ATOM      9  I   UNL     1       9.382  -2.681  -2.300  0.00  0.00    -0.041 I 
BRANCH   6  10
ATOM     10  N   UNL     1       8.174  -3.005  -5.259  0.00  0.00    +0.057 N 
ATOM     11  O   UNL     1       7.905  -3.187  -6.423  0.00  0.00    -0.126 OA
ATOM     12  O   UNL     1       9.295  -3.211  -4.857  0.00  0.00    -0.126 OA
ENDBRANCH   6  10
ENDBRANCH   1   3
BRANCH   1  16
ATOM     13  N   UNL     1       0.690  -0.478  -1.207  0.00  0.00    +0.382 N 
ATOM     14  C   UNL     1       0.834  -1.956  -1.177  0.00  0.00    -0.077 C 
ATOM     15  C   UNL     1       2.003  -2.253  -2.139  0.00  0.00    +0.002 C 
ATOM     16  C   UNL     1       2.829  -0.950  -2.181  0.00  0.00    +0.052 C 
ATOM     17  C   UNL     1       2.087   0.024  -1.240  0.00  0.00    -0.056 C 
ATOM     18  H   UNL     1       0.190  -0.187  -2.034  0.00  0.00    -0.081 HD
BRANCH  13  20
ATOM     19  C   UNL     1      -0.019   1.526   0.010  0.00  0.00    -0.014 C 
ATOM     20  C   UNL     1       0.002  -0.004   0.002  0.00  0.00    -0.075 C 
ATOM     21  C   UNL     1      -1.433  -0.534   0.013  0.00  0.00    -0.014 C 
ENDBRANCH  13  20
ENDBRANCH   1  16
TORSDOF 4
