REMARK  Name = ZINC39379247
REMARK  6 active torsions:
REMARK  status: ('A' for Active; 'I' for Inactive)
REMARK    1  A    between atoms: C_1  and  C_2
REMARK    2  A    between atoms: N_5  and  C_11
REMARK    3  A    between atoms: C_7  and  C_10
REMARK    4  A    between atoms: C_11  and  N_12
REMARK    5  A    between atoms: C_20  and  C_21
REMARK    6  A    between atoms: C_20  and  C_23
REMARK                            x       y       z     vdW  Elec       q    Type
REMARK                         _______ _______ _______ _____ _____    ______ ____
ROOT
ATOM      1  N   UNL     1      -2.721  -3.926  -0.477  0.00  0.00    -0.253 N 
ATOM      2  C   UNL     1      -2.821  -4.258  -1.824  0.00  0.00    +0.046 A 
ATOM      3  C   UNL     1      -2.978  -3.471  -2.959  0.00  0.00    +0.024 A 
ATOM      4  C   UNL     1      -3.052  -4.060  -4.206  0.00  0.00    +0.002 A 
ATOM      5  C   UNL     1      -2.971  -5.436  -4.344  0.00  0.00    +0.001 A 
ATOM      6  C   UNL     1      -2.815  -6.235  -3.230  0.00  0.00    +0.010 A 
ATOM      7  C   UNL     1      -2.739  -5.652  -1.966  0.00  0.00    +0.010 A 
ATOM      8  C   UNL     1      -2.578  -6.203  -0.608  0.00  0.00    +0.074 C 
ATOM      9  C   UNL     1      -2.455  -7.535  -0.248  0.00  0.00    +0.141 C 
ATOM     10  C   UNL     1      -2.572  -5.021   0.287  0.00  0.00    +0.254 C 
ATOM     11  O   UNL     1      -2.454  -5.040   1.497  0.00  0.00    -0.270 OA
ENDROOT
BRANCH   9  12
ATOM     12  C   UNL     1      -2.306  -7.893   1.131  0.00  0.00    +0.111 C 
ATOM     13  N   UNL     1      -2.187  -8.177   2.224  0.00  0.00    -0.190 NA
ENDBRANCH   9  12
BRANCH   9  14
ATOM     14  C   UNL     1      -2.477  -8.554  -1.254  0.00  0.00    +0.111 C 
ATOM     15  N   UNL     1      -2.494  -9.363  -2.052  0.00  0.00    -0.190 NA
ENDBRANCH   9  14
BRANCH   1  16
ATOM     16  C   UNL     1      -2.768  -2.557   0.042  0.00  0.00    +0.201 C 
BRANCH  16  20
ATOM     17  C   UNL     1      -0.019   1.526   0.010  0.00  0.00    +0.039 C 
ATOM     18  C   UNL     1       0.002  -0.004   0.002  0.00  0.00    +0.130 C 
ATOM     19  C   UNL     1      -1.434  -0.535   0.015  0.00  0.00    +0.117 C 
ATOM     20  N   UNL     1      -1.407  -2.003   0.085  0.00  0.00    -0.282 NA
ATOM     21  C   UNL     1      -0.692  -2.455   1.287  0.00  0.00    +0.117 C 
ATOM     22  C   UNL     1       0.736  -1.905   1.261  0.00  0.00    +0.130 C 
ATOM     23  O   UNL     1       0.692  -0.479   1.161  0.00  0.00    -0.371 OA
ATOM     24  C   UNL     1       1.483  -2.478   0.055  0.00  0.00    +0.039 C 
ENDBRANCH  16  20
ENDBRANCH   1  16
TORSDOF 4
