REMARK  Name = ZINC30819193
REMARK  11 active torsions:
REMARK  status: ('A' for Active; 'I' for Inactive)
REMARK    1  A    between atoms: C_1  and  C_2
REMARK    2  A    between atoms: C_9  and  C_33
REMARK    3  A    between atoms: C_10  and  C_17
REMARK    4  A    between atoms: C_15  and  C_16
REMARK    5  A    between atoms: C_17  and  C_18
REMARK    6  A    between atoms: C_18  and  C_19
REMARK    7  A    between atoms: N_21  and  C_22
REMARK    8  A    between atoms: C_22  and  C_24
REMARK    9  A    between atoms: C_22  and  C_25
REMARK   10  A    between atoms: C_25  and  C_26
REMARK   11  A    between atoms: C_26  and  C_27
REMARK                            x       y       z     vdW  Elec       q    Type
REMARK                         _______ _______ _______ _____ _____    ______ ____
ROOT
ATOM      1  C   UNL     1       5.674  -9.721   7.604  0.00  0.00    +0.047 C 
ATOM      2  C   UNL     1       5.976 -10.475   6.334  0.00  0.00    -0.005 A 
ATOM      3  C   UNL     1       5.986 -11.804   6.171  0.00  0.00    +0.199 A 
ATOM      4  O   UNL     1       6.299 -12.116   4.901  0.00  0.00    -0.462 OA
ATOM      5  C   UNL     1       6.510 -11.003   4.169  0.00  0.00    +0.141 A 
ATOM      6  C   UNL     1       6.319  -9.900   5.026  0.00  0.00    +0.024 A 
ATOM      7  C   UNL     1       6.470  -8.605   4.551  0.00  0.00    +0.023 A 
ATOM      8  C   UNL     1       6.811  -8.404   3.213  0.00  0.00    +0.022 A 
ATOM      9  C   UNL     1       6.985  -7.050   2.679  0.00  0.00    -0.030 A 
ATOM     10  C   UNL     1       7.314  -6.914   1.369  0.00  0.00    +0.041 A 
ATOM     11  C   UNL     1       7.489  -8.062   0.567  0.00  0.00    +0.341 A 
ATOM     12  O   UNL     1       7.789  -7.925  -0.605  0.00  0.00    -0.245 OA
ATOM     13  O   UNL     1       7.334  -9.299   1.062  0.00  0.00    -0.422 OA
ATOM     14  C   UNL     1       7.002  -9.507   2.356  0.00  0.00    +0.146 A 
ATOM     15  C   UNL     1       6.850 -10.795   2.840  0.00  0.00    +0.035 A 
ATOM     16  C   UNL     1       7.053 -11.973   1.923  0.00  0.00    +0.051 C 
ATOM     17  C   UNL     1       6.798  -5.841   3.559  0.00  0.00    +0.045 C 
ENDROOT
BRANCH  10  18
ATOM     18  C   UNL     1       7.498  -5.542   0.775  0.00  0.00    +0.052 C 
BRANCH  18  19
ATOM     19  C   UNL     1       6.162  -5.043   0.219  0.00  0.00    +0.100 C 
BRANCH  19  20
ATOM     20  C   UNL     1       6.347  -3.670  -0.375  0.00  0.00    +0.214 C 
ATOM     21  O   UNL     1       7.439  -3.143  -0.357  0.00  0.00    -0.276 OA
ATOM     22  N   UNL     1       5.298  -3.029  -0.927  0.00  0.00    -0.313 N 
ATOM     23  H   UNL     1       4.307  -3.507  -0.944  0.00  0.00    +0.149 HD
BRANCH  22  24
ATOM     24  C   UNL     1       5.477  -1.695  -1.505  0.00  0.00    +0.070 C 
ATOM     25  C   UNL     1       5.969  -1.826  -2.948  0.00  0.00    +0.028 C 
BRANCH  24  26
ATOM     26  C   UNL     1       4.142  -0.948  -1.488  0.00  0.00    +0.026 C 
BRANCH  26  27
ATOM     27  C   UNL     1       3.711  -0.707  -0.039  0.00  0.00    +0.037 C 
BRANCH  27  28
ATOM     28  C   UNL     1       2.396   0.029  -0.022  0.00  0.00    -0.047 A 
ATOM     29  C   UNL     1       1.208  -0.679  -0.014  0.00  0.00    +0.003 A 
ATOM     30  C   UNL     1       0.002  -0.004   0.002  0.00  0.00    +0.000 A 
ATOM     31  C   UNL     1      -0.017   1.378   0.010  0.00  0.00    +0.000 A 
ATOM     32  C   UNL     1       1.171   2.086   0.002  0.00  0.00    +0.000 A 
ATOM     33  C   UNL     1       2.377   1.411  -0.014  0.00  0.00    +0.003 A 
ENDBRANCH  27  28
ENDBRANCH  26  27
ENDBRANCH  24  26
ENDBRANCH  22  24
ENDBRANCH  19  20
ENDBRANCH  18  19
ENDBRANCH  10  18
TORSDOF 7
