REMARK  Name = ZINC16137317
REMARK  10 active torsions:
REMARK  status: ('A' for Active; 'I' for Inactive)
REMARK    1  A    between atoms: C_1  and  C_2
REMARK    2  A    between atoms: C_3  and  C_4
REMARK    3  A    between atoms: C_4  and  O_6
REMARK    4  A    between atoms: O_6  and  C_7
REMARK    5  A    between atoms: C_7  and  C_8
REMARK    6  A    between atoms: C_8  and  C_10
REMARK    7  A    between atoms: C_10  and  O_35
REMARK    8  A    between atoms: C_15  and  C_34
REMARK    9  A    between atoms: C_17  and  O_33
REMARK   10  A    between atoms: C_31  and  C_32
REMARK                            x       y       z     vdW  Elec       q    Type
REMARK                         _______ _______ _______ _____ _____    ______ ____
ROOT
ATOM      1  C   UNL     1       3.600  -5.073  -0.106  0.00  0.00    +0.133 C 
ATOM      2  C   UNL     1       4.050  -5.378   1.345  0.00  0.00    +0.043 C 
ATOM      3  C   UNL     1       4.155  -6.923   1.459  0.00  0.00    +0.008 C 
ATOM      4  C   UNL     1       4.264  -7.364  -0.009  0.00  0.00    +0.002 C 
ATOM      5  C   UNL     1       3.224  -6.443  -0.688  0.00  0.00    +0.009 C 
ATOM      6  C   UNL     1       3.352  -6.582  -2.183  0.00  0.00    +0.041 C 
ATOM      7  C   UNL     1       3.236  -8.032  -2.636  0.00  0.00    +0.119 C 
ATOM      8  C   UNL     1       3.978  -9.070  -1.808  0.00  0.00    +0.031 C 
ATOM      9  C   UNL     1       3.938  -8.801  -0.312  0.00  0.00    -0.001 C 
ATOM     10  C   UNL     1       4.806  -9.752   0.506  0.00  0.00    +0.008 C 
ATOM     11  C   UNL     1       6.251  -9.731  -0.005  0.00  0.00    +0.032 C 
ATOM     12  C   UNL     1       6.176 -10.198  -1.451  0.00  0.00    -0.060 C 
ATOM     13  C   UNL     1       6.876 -11.268  -1.806  0.00  0.00    +0.046 C 
ATOM     14  C   UNL     1       6.753 -11.790  -3.171  0.00  0.00    +0.156 C 
ATOM     15  O   UNL     1       7.621 -12.469  -3.680  0.00  0.00    -0.293 OA
ATOM     16  C   UNL     1       5.481 -11.428  -3.908  0.00  0.00    +0.080 C 
ATOM     17  C   UNL     1       5.247  -9.929  -3.797  0.00  0.00    +0.019 C 
ATOM     18  C   UNL     1       5.346  -9.378  -2.388  0.00  0.00    -0.005 C 
ATOM     19  C   UNL     1       6.115  -8.062  -2.561  0.00  0.00    +0.016 C 
ATOM     20  C   UNL     1       1.798  -6.763  -0.240  0.00  0.00    +0.015 C 
ENDROOT
BRANCH   1  21
ATOM     21  C   UNL     1       2.400  -4.165  -0.105  0.00  0.00    +0.202 C 
ATOM     22  O   UNL     1       1.682  -4.114   0.865  0.00  0.00    -0.291 OA
BRANCH  21  23
ATOM     23  C   UNL     1       2.094  -3.318  -1.313  0.00  0.00    +0.309 C 
BRANCH  23  24
ATOM     24  O   UNL     1       0.896  -2.537  -1.066  0.00  0.00    -0.454 OA
BRANCH  24  25
ATOM     25  C   UNL     1       0.483  -1.720  -2.056  0.00  0.00    +0.332 C 
ATOM     26  O   UNL     1       1.107  -1.663  -3.097  0.00  0.00    -0.246 OA
BRANCH  25  29
ATOM     27  C   UNL     1      -2.370   0.745  -2.672  0.00  0.00    +0.035 C 
ATOM     28  C   UNL     1      -1.130  -0.093  -2.854  0.00  0.00    -0.023 C 
ATOM     29  C   UNL     1      -0.722  -0.899  -1.876  0.00  0.00    +0.087 C 
ENDBRANCH  25  29
ENDBRANCH  24  25
ENDBRANCH  23  24
ENDBRANCH  21  23
ENDBRANCH   1  21
BRANCH   7  30
ATOM     30  O   UNL     1       1.851  -8.405  -2.713  0.00  0.00    -0.391 OA
ATOM     31  H   UNL     1       1.307  -7.793  -3.226  0.00  0.00    +0.210 HD
ENDBRANCH   7  30
BRANCH   1  32
ATOM     32  O   UNL     1       4.669  -4.495  -0.851  0.00  0.00    -0.380 OA
ATOM     33  H   UNL     1       4.964  -3.638  -0.515  0.00  0.00    +0.211 HD
ENDBRANCH   1  32
TORSDOF 7
