REMARK  Name = ZINC20323341
REMARK  7 active torsions:
REMARK  status: ('A' for Active; 'I' for Inactive)
REMARK    1  A    between atoms: C_1  and  C_2
REMARK    2  A    between atoms: C_5  and  C_33
REMARK    3  A    between atoms: C_10  and  C_12
REMARK    4  A    between atoms: C_12  and  N_13
REMARK    5  A    between atoms: C_17  and  S_23
REMARK    6  A    between atoms: S_23  and  N_26
REMARK    7  A    between atoms: C_29  and  C_32
REMARK                            x       y       z     vdW  Elec       q    Type
REMARK                         _______ _______ _______ _____ _____    ______ ____
ROOT
ATOM      1  N   UNL     1       4.134  -3.125   1.580  0.00  0.00    -0.265 N 
ATOM      2  C   UNL     1       4.630  -3.672   2.764  0.00  0.00    +0.091 A 
ATOM      3  C   UNL     1       4.352  -3.452   4.104  0.00  0.00    +0.031 A 
ATOM      4  C   UNL     1       5.028  -4.168   5.072  0.00  0.00    +0.031 A 
ATOM      5  C   UNL     1       5.980  -5.104   4.708  0.00  0.00    +0.109 A 
ATOM      6  C   UNL     1       6.263  -5.329   3.375  0.00  0.00    +0.077 A 
ATOM      7  C   UNL     1       5.590  -4.615   2.396  0.00  0.00    +0.159 A 
ATOM      8  O   UNL     1       5.652  -4.619   1.041  0.00  0.00    -0.407 OA
ATOM      9  C   UNL     1       4.773  -3.727   0.557  0.00  0.00    +0.422 A 
ATOM     10  O   UNL     1       4.584  -3.496  -0.622  0.00  0.00    -0.223 OA
ENDROOT
BRANCH   5  11
ATOM     11  S   UNL     1       6.837  -6.012   5.951  0.00  0.00    +0.061 S 
ATOM     12  O   UNL     1       8.065  -6.434   5.372  0.00  0.00    -0.153 OA
ATOM     13  O   UNL     1       6.783  -5.230   7.136  0.00  0.00    -0.153 OA
BRANCH  11  14
ATOM     14  N   UNL     1       5.958  -7.384   6.249  0.00  0.00    -0.177 NA
ATOM     15  C   UNL     1       4.906  -7.391   7.275  0.00  0.00    +0.110 C 
ATOM     16  C   UNL     1       5.170  -8.547   8.244  0.00  0.00    +0.020 C 
ATOM     17  C   UNL     1       5.287  -9.853   7.455  0.00  0.00    -0.012 C 
ATOM     18  C   UNL     1       6.464  -9.759   6.482  0.00  0.00    +0.020 C 
ATOM     19  C   UNL     1       6.211  -8.615   5.489  0.00  0.00    +0.110 C 
ATOM     20  C   UNL     1       5.516 -11.015   8.423  0.00  0.00    +0.007 C 
ENDBRANCH  11  14
ENDBRANCH   5  11
BRANCH   1  21
ATOM     21  C   UNL     1       3.103  -2.090   1.470  0.00  0.00    +0.224 C 
BRANCH  21  29
ATOM     22  C   UNL     1      -0.019   1.526   0.010  0.00  0.00    +0.009 C 
ATOM     23  C   UNL     1       0.002  -0.004   0.002  0.00  0.00    +0.004 C 
ATOM     24  C   UNL     1      -1.433  -0.534   0.015  0.00  0.00    +0.009 C 
ATOM     25  C   UNL     1      -1.414  -2.064  -0.027  0.00  0.00    +0.004 C 
ATOM     26  C   UNL     1      -0.692  -2.596   1.215  0.00  0.00    +0.111 C 
ATOM     27  N   UNL     1       0.639  -1.977   1.288  0.00  0.00    -0.300 N 
ATOM     28  C   UNL     1       0.742  -0.512   1.244  0.00  0.00    +0.111 C 
ATOM     29  C   UNL     1       1.746  -2.740   1.395  0.00  0.00    +0.236 C 
ATOM     30  O   UNL     1       1.648  -3.948   1.431  0.00  0.00    -0.274 OA
ATOM     31  C   UNL     1      -0.680  -2.532  -1.285  0.00  0.00    +0.009 C 
ENDBRANCH  21  29
ENDBRANCH   1  21
TORSDOF 4
