REMARK  Name = ZINC66415193
REMARK  7 active torsions:
REMARK  status: ('A' for Active; 'I' for Inactive)
REMARK    1  A    between atoms: C_1  and  C_2
REMARK    2  A    between atoms: C_2  and  N_3
REMARK    3  A    between atoms: N_3  and  C_4
REMARK    4  A    between atoms: C_10  and  C_12
REMARK    5  A    between atoms: C_13  and  C_15
REMARK    6  A    between atoms: N_23  and  C_24
REMARK    7  A    between atoms: N_23  and  C_25
REMARK                            x       y       z     vdW  Elec       q    Type
REMARK                         _______ _______ _______ _____ _____    ______ ____
ROOT
ATOM      1  N   UNL     1      -2.439  -0.007  -0.329  0.00  0.00    -0.298 N 
ATOM      2  C   UNL     1      -3.016  -0.082   0.886  0.00  0.00    +0.219 C 
ATOM      3  O   UNL     1      -4.123   0.379   1.062  0.00  0.00    -0.275 OA
ENDROOT
BRANCH   2   4
ATOM      4  C   UNL     1      -2.284  -0.740   2.028  0.00  0.00    +0.078 C 
ATOM      5  C   UNL     1      -1.206   0.210   2.557  0.00  0.00    +0.032 C 
ATOM      6  C   UNL     1      -0.442  -0.475   3.694  0.00  0.00    +0.110 C 
ATOM      7  N   UNL     1      -1.405  -0.920   4.710  0.00  0.00    -0.285 N 
ATOM      8  C   UNL     1      -2.533  -1.764   4.293  0.00  0.00    +0.110 C 
ATOM      9  C   UNL     1      -3.274  -1.065   3.149  0.00  0.00    +0.032 C 
ATOM     10  C   UNL     1      -1.256  -0.563   6.001  0.00  0.00    +0.304 C 
ATOM     11  O   UNL     1      -0.520   0.359   6.296  0.00  0.00    -0.252 OA
ATOM     12  N   UNL     1      -1.923  -1.227   6.966  0.00  0.00    -0.292 N 
ATOM     13  C   UNL     1      -2.061  -0.637   8.300  0.00  0.00    +0.133 C 
ATOM     14  C   UNL     1      -2.509  -2.539   6.681  0.00  0.00    +0.133 C 
ENDBRANCH   2   4
BRANCH   1  15
ATOM     15  C   UNL     1      -1.052  -0.444  -0.511  0.00  0.00    +0.079 C 
ATOM     16  C   UNL     1      -1.019  -1.670  -1.426  0.00  0.00    +0.023 C 
ATOM     17  C   UNL     1       0.429  -2.126  -1.615  0.00  0.00    +0.002 C 
ATOM     18  C   UNL     1       1.241  -0.995  -2.249  0.00  0.00    +0.000 C 
ATOM     19  C   UNL     1       1.208   0.231  -1.334  0.00  0.00    +0.005 C 
ATOM     20  C   UNL     1      -0.240   0.688  -1.144  0.00  0.00    +0.006 C 
ATOM     21  C   UNL     1      -0.273   1.913  -0.229  0.00  0.00    +0.009 C 
ENDBRANCH   1  15
BRANCH   1  23
ATOM     22  C   UNL     1      -4.035  -0.615  -2.080  0.00  0.00    +0.024 C 
ATOM     23  C   UNL     1      -3.199   0.511  -1.470  0.00  0.00    +0.105 C 
ENDBRANCH   1  23
TORSDOF 3
