REMARK  Name = ZINC35894685
REMARK  5 active torsions:
REMARK  status: ('A' for Active; 'I' for Inactive)
REMARK    1  A    between atoms: C_4  and  N_7
REMARK    2  A    between atoms: C_14  and  N_34
REMARK    3  A    between atoms: C_18  and  C_23
REMARK    4  A    between atoms: N_25  and  C_26
REMARK    5  A    between atoms: C_26  and  C_27
REMARK                            x       y       z     vdW  Elec       q    Type
REMARK                         _______ _______ _______ _____ _____    ______ ____
ROOT
ATOM      1  N   UNL     1       3.620  -0.649  -0.036  0.00  0.00    -0.327 N 
ATOM      2  C   UNL     1       4.861   0.106  -0.149  0.00  0.00    +0.124 C 
ATOM      3  C   UNL     1       5.719  -0.434  -1.277  0.00  0.00    +0.124 C 
ATOM      4  N   UNL     1       5.673  -1.881  -1.400  0.00  0.00    -0.323 N 
ATOM      5  C   UNL     1       6.653  -2.510  -2.196  0.00  0.00    +0.033 A 
ATOM      6  C   UNL     1       7.846  -1.847  -2.446  0.00  0.00    +0.025 A 
ATOM      7  C   UNL     1       8.812  -2.443  -3.233  0.00  0.00    +0.034 A 
ATOM      8  C   UNL     1       8.583  -3.698  -3.768  0.00  0.00    +0.127 A 
ATOM      9  C   UNL     1       7.397  -4.358  -3.516  0.00  0.00    +0.038 A 
ATOM     10  C   UNL     1       6.423  -3.770  -2.722  0.00  0.00    -0.023 A 
ATOM     11  C   UNL     1       5.156  -4.539  -2.453  0.00  0.00    +0.051 C 
ATOM     12  C   UNL     1       4.059  -3.615  -1.917  0.00  0.00    +0.101 C 
ATOM     13  C   UNL     1       4.663  -2.743  -0.818  0.00  0.00    +0.103 C 
ATOM     14  C   UNL     1       3.632  -2.099   0.066  0.00  0.00    +0.128 C 
ENDROOT
BRANCH   1  18
ATOM     15  C   UNL     1      -0.017   1.379   0.011  0.00  0.00    +0.000 A 
ATOM     16  C   UNL     1       0.002  -0.004  -0.010  0.00  0.00    +0.002 A 
ATOM     17  C   UNL     1       1.206  -0.680  -0.026  0.00  0.00    +0.023 A 
ATOM     18  C   UNL     1       2.400   0.031  -0.021  0.00  0.00    +0.030 A 
ATOM     19  C   UNL     1       2.377   1.420   0.001  0.00  0.00    +0.023 A 
ATOM     20  C   UNL     1       1.170   2.089   0.017  0.00  0.00    +0.002 A 
ENDBRANCH   1  18
BRANCH  12  21
ATOM     21  C   UNL     1       3.539  -2.743  -3.031  0.00  0.00    +0.219 C 
ATOM     22  O   UNL     1       3.622  -1.536  -2.946  0.00  0.00    -0.275 OA
ATOM     23  N   UNL     1       2.983  -3.305  -4.123  0.00  0.00    -0.311 N 
ATOM     24  H   UNL     1       2.917  -4.270  -4.191  0.00  0.00    +0.149 HD
BRANCH  23  25
ATOM     25  C   UNL     1       2.478  -2.458  -5.206  0.00  0.00    +0.139 C 
BRANCH  25  26
ATOM     26  C   UNL     1       1.911  -3.325  -6.300  0.00  0.00    -0.030 A 
ATOM     27  C   UNL     1       2.726  -3.764  -7.327  0.00  0.00    +0.008 A 
ATOM     28  C   UNL     1       2.207  -4.560  -8.330  0.00  0.00    +0.038 A 
ATOM     29  C   UNL     1       0.870  -4.918  -8.306  0.00  0.00    +0.123 A 
ATOM     30  C   UNL     1       0.054  -4.479  -7.277  0.00  0.00    +0.038 A 
ATOM     31  C   UNL     1       0.577  -3.687  -6.272  0.00  0.00    +0.008 A 
ATOM     32  F   UNL     1       0.361  -5.696  -9.287  0.00  0.00    -0.205 F 
ENDBRANCH  25  26
ENDBRANCH  23  25
ENDBRANCH  12  21
BRANCH   8  33
ATOM     33  N   UNL     1       9.615  -4.336  -4.617  0.00  0.00    +0.056 N 
ATOM     34  O   UNL     1      10.654  -3.760  -4.840  0.00  0.00    -0.126 OA
ATOM     35  O   UNL     1       9.418  -5.432  -5.086  0.00  0.00    -0.126 OA
ENDBRANCH   8  33
TORSDOF 5
