REMARK  Name = ZINC64746518
REMARK  5 active torsions:
REMARK  status: ('A' for Active; 'I' for Inactive)
REMARK    1  A    between atoms: C_6  and  C_7
REMARK    2  A    between atoms: C_7  and  N_8
REMARK    3  A    between atoms: C_9  and  C_11
REMARK    4  A    between atoms: C_13  and  C_16
REMARK    5  A    between atoms: C_19  and  N_22
REMARK                            x       y       z     vdW  Elec       q    Type
REMARK                         _______ _______ _______ _____ _____    ______ ____
ROOT
ATOM      1  C   UNL     1      -3.228  -2.057  -3.014  0.00  0.00    +0.314 A 
ATOM      2  N   UNL     1      -4.277  -2.749  -3.382  0.00  0.00    -0.183 NA
ATOM      3  C   UNL     1      -4.477  -2.613  -4.701  0.00  0.00    +0.203 A 
ATOM      4  N   UNL     1      -3.549  -1.825  -5.191  0.00  0.00    -0.055 NA
ATOM      5  O   UNL     1      -2.723  -1.446  -4.100  0.00  0.00    -0.328 OA
ENDROOT
BRANCH   3   6
ATOM      6  C   UNL     1      -5.568  -3.249  -5.479  0.00  0.00    +0.023 A 
ATOM      7  C   UNL     1      -6.499  -4.064  -4.838  0.00  0.00    +0.013 A 
ATOM      8  C   UNL     1      -7.512  -4.654  -5.562  0.00  0.00    +0.024 A 
ATOM      9  C   UNL     1      -7.606  -4.436  -6.932  0.00  0.00    +0.030 A 
ATOM     10  C   UNL     1      -6.679  -3.623  -7.574  0.00  0.00    +0.024 A 
ATOM     11  C   UNL     1      -5.668  -3.027  -6.852  0.00  0.00    +0.013 A 
BRANCH   9  12
ATOM     12  N   UNL     1      -8.632  -5.034  -7.663  0.00  0.00    -0.330 N 
ATOM     13  C   UNL     1      -8.626  -4.902  -9.103  0.00  0.00    +0.105 C 
ATOM     14  C   UNL     1      -9.397  -3.622  -9.511  0.00  0.00    +0.019 C 
ATOM     15  C   UNL     1     -10.840  -3.802  -9.287  0.00  0.00    +0.002 C 
ATOM     16  C   UNL     1     -11.226  -4.028  -7.829  0.00  0.00    +0.002 C 
ATOM     17  C   UNL     1     -11.086  -5.493  -7.495  0.00  0.00    +0.019 C 
ATOM     18  C   UNL     1      -9.677  -5.781  -6.936  0.00  0.00    +0.105 C 
ENDBRANCH   9  12
ENDBRANCH   3   6
BRANCH   1  20
ATOM     19  N   UNL     1      -1.603  -1.204  -1.387  0.00  0.00    -0.303 N 
ATOM     20  C   UNL     1      -2.692  -1.959  -1.635  0.00  0.00    +0.302 C 
ATOM     21  O   UNL     1      -3.235  -2.559  -0.729  0.00  0.00    -0.265 OA
ATOM     22  H   UNL     1      -1.170  -0.725  -2.111  0.00  0.00    +0.149 HD
BRANCH  19  23
ATOM     23  C   UNL     1      -1.074  -1.107  -0.024  0.00  0.00    +0.140 C 
BRANCH  23  29
ATOM     24  C   UNL     1      -0.012   1.149   0.190  0.00  0.00    +0.006 A 
ATOM     25  C   UNL     1       1.098   1.972   0.196  0.00  0.00    +0.020 A 
ATOM     26  C   UNL     1       2.358   1.437  -0.006  0.00  0.00    +0.041 A 
ATOM     27  C   UNL     1       2.505   0.077  -0.215  0.00  0.00    +0.020 A 
ATOM     28  C   UNL     1       1.395  -0.745  -0.221  0.00  0.00    +0.006 A 
ATOM     29  C   UNL     1       0.136  -0.210  -0.018  0.00  0.00    -0.030 A 
ATOM     30 CL   UNL     1       3.752   2.471   0.001  0.00  0.00    -0.084 Cl
ENDBRANCH  23  29
ENDBRANCH  19  23
ENDBRANCH   1  20
TORSDOF 5
