REMARK  Name = ZINC60556048
REMARK  8 active torsions:
REMARK  status: ('A' for Active; 'I' for Inactive)
REMARK    1  A    between atoms: C_1  and  C_2
REMARK    2  A    between atoms: N_6  and  C_8
REMARK    3  A    between atoms: C_8  and  C_9
REMARK    4  A    between atoms: C_8  and  C_10
REMARK    5  A    between atoms: C_10  and  N_11
REMARK    6  A    between atoms: C_12  and  C_14
REMARK    7  A    between atoms: C_17  and  N_19
REMARK    8  A    between atoms: C_20  and  C_22
REMARK                            x       y       z     vdW  Elec       q    Type
REMARK                         _______ _______ _______ _____ _____    ______ ____
ROOT
ATOM      1  N   UNL     1       0.580  -0.412   3.507  0.00  0.00    -0.312 N 
ATOM      2  C   UNL     1       0.077   0.345   4.502  0.00  0.00    +0.251 C 
ATOM      3  O   UNL     1      -0.277  -0.175   5.545  0.00  0.00    -0.270 OA
ATOM      4  H   UNL     1       0.862   0.003   2.677  0.00  0.00    +0.149 HD
ENDROOT
BRANCH   2   5
ATOM      5  C   UNL     1      -0.043   1.792   4.330  0.00  0.00    +0.076 A 
ATOM      6  C   UNL     1      -0.523   2.740   5.224  0.00  0.00    +0.022 A 
ATOM      7  C   UNL     1      -0.516   4.037   4.782  0.00  0.00    +0.032 A 
ATOM      8  C   UNL     1      -0.045   4.301   3.517  0.00  0.00    +0.073 A 
ATOM      9  S   UNL     1       0.397   2.793   2.923  0.00  0.00    -0.069 S 
BRANCH   8  10
ATOM     10  N   UNL     1       0.048   5.530   2.879  0.00  0.00    -0.273 N 
ATOM     11  C   UNL     1       0.539   5.604   1.626  0.00  0.00    +0.284 C 
ATOM     12  O   UNL     1       0.899   4.593   1.053  0.00  0.00    -0.266 OA
ATOM     13  H   UNL     1      -0.239   6.336   3.336  0.00  0.00    +0.156 HD
BRANCH  11  14
ATOM     14  C   UNL     1       0.637   6.902   0.953  0.00  0.00    +0.189 A 
ATOM     15  C   UNL     1       1.108   7.117  -0.311  0.00  0.00    +0.054 A 
ATOM     16  C   UNL     1       1.022   8.499  -0.544  0.00  0.00    +0.042 A 
ATOM     17  C   UNL     1       0.510   9.060   0.574  0.00  0.00    +0.196 A 
ATOM     18  O   UNL     1       0.274   8.094   1.471  0.00  0.00    -0.458 OA
ENDBRANCH  11  14
ENDBRANCH   8  10
ENDBRANCH   2   5
BRANCH   1  19
ATOM     19  C   UNL     1       0.700  -1.862   3.680  0.00  0.00    +0.089 C 
BRANCH  19  20
ATOM     20  C   UNL     1       1.400  -2.464   2.460  0.00  0.00    -0.054 C 
ATOM     21  C   UNL     1       1.450  -3.987   2.601  0.00  0.00    -0.012 C 
BRANCH  20  27
ATOM     22  C   UNL     1       1.452  -2.604  -2.433  0.00  0.00    +0.005 C 
ATOM     23  C   UNL     1       0.673  -2.126  -1.206  0.00  0.00    -0.031 C 
ATOM     24  C   UNL     1      -0.730  -2.741  -1.221  0.00  0.00    -0.001 C 
ATOM     25  C   UNL     1      -1.474  -2.320   0.050  0.00  0.00    -0.018 C 
ATOM     26  C   UNL     1      -0.664  -2.751   1.275  0.00  0.00    -0.078 C 
ATOM     27  N   UNL     1       0.656  -2.110   1.244  0.00  0.00    +0.383 N 
ATOM     28  C   UNL     1       1.403  -2.564   0.065  0.00  0.00    -0.075 C 
ATOM     29  H   UNL     1       0.541  -1.108   1.202  0.00  0.00    -0.081 HD
ENDBRANCH  20  27
ENDBRANCH  19  20
ENDBRANCH   1  19
TORSDOF 6
