REMARK  Name = ZINC13570390
REMARK  4 active torsions:
REMARK  status: ('A' for Active; 'I' for Inactive)
REMARK    1  A    between atoms: C_6  and  N_7
REMARK    2  A    between atoms: C_11  and  C_12
REMARK    3  A    between atoms: C_15  and  N_17
REMARK    4  A    between atoms: C_26  and  O_27
REMARK                            x       y       z     vdW  Elec       q    Type
REMARK                         _______ _______ _______ _____ _____    ______ ____
ROOT
ATOM      1  N   UNL     1      -4.295   4.630   0.258  0.00  0.00    -0.192 N 
ATOM      2  C   UNL     1      -3.524   3.837  -0.514  0.00  0.00    +0.264 C 
ATOM      3  O   UNL     1      -2.634   4.309  -1.199  0.00  0.00    -0.269 OA
ATOM      4  C   UNL     1      -3.779   2.436  -0.516  0.00  0.00    +0.105 C 
ATOM      5  C   UNL     1      -3.020   1.561  -1.298  0.00  0.00    +0.064 C 
ATOM      6  C   UNL     1      -4.869   1.942   0.343  0.00  0.00    +0.276 C 
ATOM      7  O   UNL     1      -5.135   0.752   0.391  0.00  0.00    -0.268 OA
ATOM      8  N   UNL     1      -5.564   2.832   1.073  0.00  0.00    -0.127 NA
ATOM      9  C   UNL     1      -5.288   4.113   1.030  0.00  0.00    +0.286 C 
ENDROOT
BRANCH   1  15
ATOM     10  C   UNL     1      -4.709   6.833  -0.645  0.00  0.00    +0.027 A 
ATOM     11  C   UNL     1      -4.483   8.196  -0.628  0.00  0.00    +0.040 A 
ATOM     12  C   UNL     1      -3.605   8.742   0.293  0.00  0.00    +0.124 A 
ATOM     13  C   UNL     1      -2.956   7.924   1.203  0.00  0.00    +0.040 A 
ATOM     14  C   UNL     1      -3.183   6.562   1.193  0.00  0.00    +0.027 A 
ATOM     15  C   UNL     1      -4.063   6.013   0.270  0.00  0.00    +0.046 A 
ATOM     16  F   UNL     1      -3.382  10.074   0.304  0.00  0.00    -0.205 F 
ENDBRANCH   1  15
BRANCH   5  17
ATOM     17  C   UNL     1      -2.124   2.067  -2.239  0.00  0.00    +0.131 A 
ATOM     18  C   UNL     1      -0.859   1.555  -2.522  0.00  0.00    +0.051 A 
ATOM     19  C   UNL     1      -0.317   2.355  -3.520  0.00  0.00    +0.066 A 
ATOM     20  C   UNL     1      -1.253   3.329  -3.814  0.00  0.00    +0.189 A 
ATOM     21  O   UNL     1      -2.328   3.142  -3.034  0.00  0.00    -0.442 OA
BRANCH  20  22
ATOM     22  N   UNL     1      -1.106   4.324  -4.750  0.00  0.00    -0.301 N 
ATOM     23  C   UNL     1       0.106   5.112  -4.494  0.00  0.00    +0.108 C 
ATOM     24  C   UNL     1       0.315   6.113  -5.633  0.00  0.00    +0.019 C 
ATOM     25  C   UNL     1      -0.904   7.034  -5.728  0.00  0.00    +0.003 C 
ATOM     26  C   UNL     1      -2.159   6.184  -5.946  0.00  0.00    +0.019 C 
ATOM     27  C   UNL     1      -2.297   5.182  -4.798  0.00  0.00    +0.108 C 
ENDBRANCH  20  22
ENDBRANCH   5  17
BRANCH   9  28
ATOM     28  O   UNL     1      -6.021   4.955   1.786  0.00  0.00    -0.483 OA
ATOM     29  H   UNL     1      -6.721   4.563   2.326  0.00  0.00    +0.295 HD
ENDBRANCH   9  28
TORSDOF 4
