REMARK  Name = ZINC67602388
REMARK  9 active torsions:
REMARK  status: ('A' for Active; 'I' for Inactive)
REMARK    1  A    between atoms: C_1  and  C_2
REMARK    2  A    between atoms: C_2  and  N_3
REMARK    3  A    between atoms: N_3  and  C_4
REMARK    4  A    between atoms: N_3  and  C_6
REMARK    5  A    between atoms: C_4  and  C_5
REMARK    6  A    between atoms: C_6  and  C_8
REMARK    7  A    between atoms: C_6  and  C_9
REMARK    8  A    between atoms: C_9  and  N_10
REMARK    9  A    between atoms: C_17  and  C_20
REMARK                            x       y       z     vdW  Elec       q    Type
REMARK                         _______ _______ _______ _____ _____    ______ ____
ROOT
ATOM      1  N   UNL     1      -3.979  -1.718  -0.694  0.00  0.00    -0.301 N 
ATOM      2  C   UNL     1      -5.320  -1.822  -0.603  0.00  0.00    +0.302 C 
ATOM      3  O   UNL     1      -5.826  -2.301   0.393  0.00  0.00    -0.253 OA
ATOM      4  N   UNL     1      -6.099  -1.396  -1.616  0.00  0.00    -0.281 N 
ATOM      5  C   UNL     1      -5.508  -0.910  -2.873  0.00  0.00    +0.137 C 
ATOM      6  C   UNL     1      -6.189  -1.635  -4.040  0.00  0.00    +0.179 C 
ATOM      7  O   UNL     1      -7.606  -1.503  -3.913  0.00  0.00    -0.369 OA
ATOM      8  C   UNL     1      -8.146  -2.103  -2.732  0.00  0.00    +0.166 C 
ATOM      9  C   UNL     1      -7.566  -1.407  -1.501  0.00  0.00    +0.145 C 
ATOM     10  H   UNL     1      -3.578  -1.274  -1.456  0.00  0.00    +0.150 HD
ENDROOT
BRANCH   8  11
ATOM     11  C   UNL     1      -9.646  -1.959  -2.735  0.00  0.00    -0.017 A 
ATOM     12  C   UNL     1     -10.230  -0.826  -3.271  0.00  0.00    +0.007 A 
ATOM     13  C   UNL     1     -11.606  -0.693  -3.274  0.00  0.00    +0.015 A 
ATOM     14  C   UNL     1     -12.399  -1.694  -2.741  0.00  0.00    +0.018 A 
ATOM     15  C   UNL     1     -11.814  -2.828  -2.206  0.00  0.00    +0.015 A 
ATOM     16  C   UNL     1     -10.438  -2.962  -2.208  0.00  0.00    +0.007 A 
ATOM     17 BR   UNL     1     -14.281  -1.513  -2.745  0.00  0.00    -0.050 Br
ENDBRANCH   8  11
BRANCH   1  18
ATOM     18  C   UNL     1      -3.128  -2.277   0.360  0.00  0.00    +0.090 C 
BRANCH  18  19
ATOM     19  C   UNL     1      -1.668  -1.915   0.082  0.00  0.00    -0.054 C 
ATOM     20  C   UNL     1      -0.790  -2.419   1.229  0.00  0.00    -0.012 C 
BRANCH  19  21
ATOM     21  N   UNL     1      -1.538  -0.456  -0.031  0.00  0.00    +0.382 N 
ATOM     22  H   UNL     1      -2.157  -0.118  -0.752  0.00  0.00    -0.081 HD
BRANCH  21  24
ATOM     23  C   UNL     1      -1.898   1.689   1.094  0.00  0.00    -0.017 C 
ATOM     24  C   UNL     1      -1.891   0.167   1.251  0.00  0.00    -0.082 C 
ENDBRANCH  21  24
BRANCH  21  25
ATOM     25  C   UNL     1      -0.151  -0.114  -0.376  0.00  0.00    -0.082 C 
ATOM     26  C   UNL     1       0.175  -0.652  -1.770  0.00  0.00    -0.017 C 
ENDBRANCH  21  25
ENDBRANCH  19  21
ENDBRANCH  18  19
ENDBRANCH   1  18
TORSDOF 6
