REMARK  Name = ZINC11381204
REMARK  5 active torsions:
REMARK  status: ('A' for Active; 'I' for Inactive)
REMARK    1  A    between atoms: C_1  and  C_2
REMARK    2  A    between atoms: C_8  and  C_10
REMARK    3  A    between atoms: C_10  and  C_11
REMARK    4  A    between atoms: C_11  and  N_12
REMARK    5  A    between atoms: C_20  and  C_22
REMARK                            x       y       z     vdW  Elec       q    Type
REMARK                         _______ _______ _______ _____ _____    ______ ____
ROOT
ATOM      1  N   UNL     1       1.228  -6.460  -0.048  0.00  0.00    -0.224 N 
ATOM      2  C   UNL     1       1.543  -7.160   1.061  0.00  0.00    +0.247 C 
ATOM      3  O   UNL     1       1.399  -6.814   2.214  0.00  0.00    -0.273 OA
ATOM      4  C   UNL     1       2.115  -8.468   0.563  0.00  0.00    +0.115 C 
ATOM      5  C   UNL     1       1.261  -9.637   1.042  0.00  0.00    +0.035 C 
ATOM      6  C   UNL     1       1.839 -10.949   0.504  0.00  0.00    +0.003 C 
ATOM      7  C   UNL     1       3.278 -11.111   0.998  0.00  0.00    +0.000 C 
ATOM      8  C   UNL     1       4.127  -9.944   0.489  0.00  0.00    +0.006 C 
ATOM      9  C   UNL     1       3.558  -8.628   1.026  0.00  0.00    +0.018 C 
ATOM     10  C   UNL     1       4.394  -7.459   0.501  0.00  0.00    +0.010 C 
ATOM     11  N   UNL     1       2.053  -8.350  -0.900  0.00  0.00    -0.285 N 
ATOM     12  C   UNL     1       1.515  -7.144  -1.162  0.00  0.00    +0.309 C 
ATOM     13  O   UNL     1       1.315  -6.723  -2.285  0.00  0.00    -0.252 OA
ATOM     14  H   UNL     1       2.339  -9.012  -1.548  0.00  0.00    +0.151 HD
ENDROOT
BRANCH   1  15
ATOM     15  C   UNL     1       0.639  -5.118  -0.035  0.00  0.00    +0.127 C 
BRANCH  15  16
ATOM     16  C   UNL     1       1.754  -4.071  -0.039  0.00  0.00    +0.115 C 
BRANCH  16  24
ATOM     17  C   UNL     1      -1.237   2.232   0.020  0.00  0.00    +0.089 C 
ATOM     18  C   UNL     1      -0.016   1.348   0.009  0.00  0.00    +0.136 A 
ATOM     19  C   UNL     1       0.002  -0.004   0.002  0.00  0.00    +0.091 A 
ATOM     20  C   UNL     1       1.385  -0.328  -0.013  0.00  0.00    +0.168 A 
ATOM     21  N   UNL     1       2.026   0.811  -0.013  0.00  0.00    -0.063 NA
ATOM     22  O   UNL     1       1.263   1.749  -0.001  0.00  0.00    -0.358 OA
ATOM     23  N   UNL     1       1.946  -1.605  -0.026  0.00  0.00    -0.268 N 
ATOM     24  C   UNL     1       1.148  -2.691  -0.025  0.00  0.00    +0.220 C 
ATOM     25  O   UNL     1      -0.057  -2.559  -0.013  0.00  0.00    -0.275 OA
ATOM     26  H   UNL     1       2.910  -1.711  -0.035  0.00  0.00    +0.156 HD
ENDBRANCH  16  24
ENDBRANCH  15  16
ENDBRANCH   1  15
TORSDOF 3
