REMARK  Name = ZINC20390542
REMARK  9 active torsions:
REMARK  status: ('A' for Active; 'I' for Inactive)
REMARK    1  A    between atoms: C_1  and  C_2
REMARK    2  A    between atoms: C_2  and  N_3
REMARK    3  A    between atoms: N_6  and  C_9
REMARK    4  A    between atoms: C_9  and  C_10
REMARK    5  A    between atoms: C_11  and  O_33
REMARK    6  A    between atoms: C_17  and  C_29
REMARK    7  A    between atoms: C_18  and  C_21
REMARK    8  A    between atoms: C_24  and  O_27
REMARK    9  A    between atoms: O_27  and  C_28
REMARK                            x       y       z     vdW  Elec       q    Type
REMARK                         _______ _______ _______ _____ _____    ______ ____
ROOT
ATOM      1  C   UNL     1      -0.075   1.899   1.137  0.00  0.00    +0.051 A 
ATOM      2  C   UNL     1       1.060   2.692   1.133  0.00  0.00    +0.125 A 
ATOM      3  C   UNL     1       1.028   3.974   0.588  0.00  0.00    +0.046 A 
ATOM      4  C   UNL     1      -0.128   4.465   0.051  0.00  0.00    +0.019 A 
ATOM      5  C   UNL     1      -1.280   3.678   0.048  0.00  0.00    +0.065 A 
ATOM      6  C   UNL     1      -1.256   2.381   0.591  0.00  0.00    +0.147 A 
ATOM      7  O   UNL     1      -2.372   1.624   0.592  0.00  0.00    -0.449 OA
ATOM      8  C   UNL     1      -3.537   2.036   0.085  0.00  0.00    +0.219 A 
ATOM      9  C   UNL     1      -3.699   3.263  -0.473  0.00  0.00    +0.076 A 
ATOM     10  C   UNL     1      -2.544   4.176  -0.523  0.00  0.00    +0.201 A 
ATOM     11  O   UNL     1      -2.630   5.289  -1.012  0.00  0.00    -0.286 OA
ENDROOT
BRANCH   9  12
ATOM     12  C   UNL     1      -5.013   3.675  -1.024  0.00  0.00    -0.010 A 
ATOM     13  C   UNL     1      -5.495   3.091  -2.194  0.00  0.00    +0.012 A 
ATOM     14  C   UNL     1      -6.720   3.474  -2.700  0.00  0.00    +0.046 A 
ATOM     15  C   UNL     1      -7.467   4.447  -2.052  0.00  0.00    +0.120 A 
ATOM     16  C   UNL     1      -6.987   5.035  -0.889  0.00  0.00    +0.046 A 
ATOM     17  C   UNL     1      -5.766   4.653  -0.375  0.00  0.00    +0.012 A 
BRANCH  15  18
ATOM     18  O   UNL     1      -8.671   4.826  -2.557  0.00  0.00    -0.495 OA
ATOM     19  C   UNL     1      -9.104   4.180  -3.756  0.00  0.00    +0.277 C 
ENDBRANCH  15  18
ENDBRANCH   9  12
BRANCH   8  20
ATOM     20  C   UNL     1      -4.719   1.102   0.136  0.00  0.00    +0.451 C 
ATOM     21  F   UNL     1      -5.046   0.693  -1.161  0.00  0.00    -0.163 F 
ATOM     22  F   UNL     1      -4.395  -0.018   0.910  0.00  0.00    -0.163 F 
ATOM     23  F   UNL     1      -5.811   1.763   0.707  0.00  0.00    -0.163 F 
ENDBRANCH   8  20
BRANCH   2  24
ATOM     24  O   UNL     1       2.216   2.215   1.663  0.00  0.00    -0.506 OA
ATOM     25  H   UNL     1       3.120   2.841   1.662  0.00  0.00    +0.292 HD
ENDBRANCH   2  24
BRANCH   1  26
ATOM     26  C   UNL     1      -0.026   0.513   1.729  0.00  0.00    +0.126 C 
BRANCH  26  30
ATOM     27  N   UNL     1       0.039   0.081   5.931  0.00  0.00    +0.381 N 
ATOM     28  C   UNL     1      -0.989  -0.653   5.179  0.00  0.00    -0.063 C 
ATOM     29  C   UNL     1      -0.560  -0.767   3.714  0.00  0.00    +0.066 C 
ATOM     30  N   UNL     1      -0.365   0.579   3.157  0.00  0.00    -0.301 NA
ATOM     31  C   UNL     1       0.662   1.313   3.909  0.00  0.00    +0.066 C 
ATOM     32  C   UNL     1       0.234   1.427   5.374  0.00  0.00    -0.063 C 
ATOM     33  H   UNL     1       0.987  -0.467   5.835  0.00  0.00    -0.082 HD
BRANCH  27  35
ATOM     34  C   UNL     1       0.896   0.691   8.142  0.00  0.00    -0.017 C 
ATOM     35  C   UNL     1      -0.300   0.146   7.359  0.00  0.00    -0.082 C 
ENDBRANCH  27  35
ENDBRANCH  26  30
ENDBRANCH   1  26
TORSDOF 7
