REMARK  Name = ZINC05497525
REMARK  8 active torsions:
REMARK  status: ('A' for Active; 'I' for Inactive)
REMARK    1  A    between atoms: C_3  and  S_19
REMARK    2  A    between atoms: C_6  and  N_7
REMARK    3  A    between atoms: N_7  and  S_8
REMARK    4  A    between atoms: S_8  and  C_11
REMARK    5  A    between atoms: C_15  and  N_17
REMARK    6  A    between atoms: S_19  and  C_22
REMARK    7  A    between atoms: C_22  and  C_23
REMARK    8  A    between atoms: C_23  and  O_24
REMARK                            x       y       z     vdW  Elec       q    Type
REMARK                         _______ _______ _______ _____ _____    ______ ____
ROOT
ATOM      1  N   UNL     1       3.021   0.621  -1.546  0.00  0.00    -0.216 N 
ATOM      2  H   UNL     1       2.224   0.075  -1.628  0.00  0.00    +0.174 HD
ENDROOT
BRANCH   1   8
ATOM      3  C   UNL     1       2.510   2.833  -2.367  0.00  0.00    +0.026 A 
ATOM      4  C   UNL     1       2.743   3.861  -3.260  0.00  0.00    +0.029 A 
ATOM      5  C   UNL     1       3.705   3.720  -4.243  0.00  0.00    +0.088 A 
ATOM      6  C   UNL     1       4.441   2.552  -4.333  0.00  0.00    +0.029 A 
ATOM      7  C   UNL     1       4.216   1.522  -3.440  0.00  0.00    +0.026 A 
ATOM      8  C   UNL     1       3.251   1.661  -2.451  0.00  0.00    +0.048 A 
BRANCH   5   9
ATOM      9  S   UNL     1       3.994   5.031  -5.384  0.00  0.00    -0.001 S 
ATOM     10  O   UNL     1       3.593   6.207  -4.694  0.00  0.00    -0.169 OA
ATOM     11  O   UNL     1       5.343   4.859  -5.799  0.00  0.00    -0.169 OA
BRANCH   9  12
ATOM     12  C   UNL     1       2.868   4.703  -6.767  0.00  0.00    +0.199 C 
BRANCH  12  13
ATOM     13  C   UNL     1       3.034   5.790  -7.830  0.00  0.00    +0.179 C 
BRANCH  13  14
ATOM     14  O   UNL     1       2.147   5.532  -8.919  0.00  0.00    -0.393 OA
ATOM     15  H   UNL     1       2.199   6.184  -9.632  0.00  0.00    +0.209 HD
ENDBRANCH  13  14
ENDBRANCH  12  13
ENDBRANCH   9  12
ENDBRANCH   5   9
ENDBRANCH   1   8
BRANCH   1  16
ATOM     16  S   UNL     1       4.110   0.322  -0.335  0.00  0.00    +0.072 S 
ATOM     17  O   UNL     1       5.389   0.242  -0.949  0.00  0.00    -0.150 OA
ATOM     18  O   UNL     1       3.571  -0.737   0.443  0.00  0.00    -0.150 OA
BRANCH  16  19
ATOM     19  C   UNL     1       4.138   1.746   0.703  0.00  0.00    +0.110 A 
ATOM     20  C   UNL     1       5.096   2.724   0.507  0.00  0.00    +0.030 A 
ATOM     21  C   UNL     1       5.122   3.843   1.320  0.00  0.00    +0.024 A 
ATOM     22  C   UNL     1       4.190   3.987   2.330  0.00  0.00    +0.062 A 
ATOM     23  C   UNL     1       3.222   3.008   2.525  0.00  0.00    +0.045 A 
ATOM     24  C   UNL     1       3.203   1.883   1.711  0.00  0.00    +0.053 A 
ATOM     25 CL   UNL     1       4.222   5.392   3.349  0.00  0.00    -0.082 Cl
BRANCH  23  26
ATOM     26  N   UNL     1       2.274   3.153   3.541  0.00  0.00    -0.357 N 
ATOM     27  H   UNL     1       1.602   2.467   3.679  0.00  0.00    +0.142 HD
ATOM     28  H   UNL     1       2.288   3.939   4.109  0.00  0.00    +0.142 HD
ENDBRANCH  23  26
ENDBRANCH  16  19
ENDBRANCH   1  16
TORSDOF 8
