REMARK  Name = ZINC65609793
REMARK  4 active torsions:
REMARK  status: ('A' for Active; 'I' for Inactive)
REMARK    1  A    between atoms: C_1  and  C_2
REMARK    2  A    between atoms: C_6  and  C_8
REMARK    3  A    between atoms: C_6  and  C_9
REMARK    4  A    between atoms: C_10  and  C_12
REMARK                            x       y       z     vdW  Elec       q    Type
REMARK                         _______ _______ _______ _____ _____    ______ ____
ROOT
ATOM      1  C   UNL     1      -2.966  -2.257  -1.649  0.00  0.00    +0.105 A 
ATOM      2  C   UNL     1      -4.239  -1.935  -1.308  0.00  0.00    +0.039 A 
ATOM      3  C   UNL     1      -5.135  -1.377  -2.320  0.00  0.00    -0.011 A 
ATOM      4  C   UNL     1      -6.453  -1.028  -2.023  0.00  0.00    +0.009 A 
ATOM      5  C   UNL     1      -7.258  -0.506  -3.013  0.00  0.00    +0.001 A 
ATOM      6  C   UNL     1      -6.770  -0.325  -4.300  0.00  0.00    +0.001 A 
ATOM      7  C   UNL     1      -5.472  -0.664  -4.616  0.00  0.00    +0.014 A 
ATOM      8  C   UNL     1      -4.640  -1.193  -3.632  0.00  0.00    +0.046 A 
ATOM      9  C   UNL     1      -3.248  -1.569  -3.916  0.00  0.00    +0.257 A 
ATOM     10  O   UNL     1      -2.788  -1.424  -5.033  0.00  0.00    -0.267 OA
ATOM     11  N   UNL     1      -2.483  -2.072  -2.927  0.00  0.00    -0.318 N 
ATOM     12  H   UNL     1      -1.564  -2.315  -3.121  0.00  0.00    +0.169 HD
ENDROOT
BRANCH   1  22
ATOM     13  C   UNL     1      -0.014   1.524   0.007  0.00  0.00    +0.039 C 
ATOM     14  C   UNL     1       0.005  -0.006   0.001  0.00  0.00    +0.133 C 
ATOM     15  C   UNL     1      -1.433  -0.536   0.017  0.00  0.00    +0.139 C 
ATOM     16  N   UNL     1      -1.388  -1.995   0.199  0.00  0.00    -0.291 N 
ATOM     17  C   UNL     1      -0.576  -2.530   1.304  0.00  0.00    +0.142 C 
ATOM     18  C   UNL     1       0.821  -1.903   1.225  0.00  0.00    +0.080 C 
ATOM     19  O   UNL     1       0.695  -0.480   1.160  0.00  0.00    -0.368 OA
ATOM     20  C   UNL     1       1.538  -2.410  -0.028  0.00  0.00    +0.043 C 
ATOM     21  C   UNL     1       1.625  -2.288   2.467  0.00  0.00    +0.043 C 
ATOM     22  C   UNL     1      -2.071  -2.818  -0.621  0.00  0.00    +0.263 C 
ATOM     23  O   UNL     1      -1.948  -4.023  -0.513  0.00  0.00    -0.268 OA
ENDBRANCH   1  22
TORSDOF 1
