REMARK  Name = ZINC13217017
REMARK  5 active torsions:
REMARK  status: ('A' for Active; 'I' for Inactive)
REMARK    1  A    between atoms: C_4  and  N_7
REMARK    2  A    between atoms: C_8  and  N_16
REMARK    3  A    between atoms: C_17  and  C_19
REMARK    4  A    between atoms: C_19  and  S_20
REMARK    5  A    between atoms: S_20  and  C_21
REMARK                            x       y       z     vdW  Elec       q    Type
REMARK                         _______ _______ _______ _____ _____    ______ ____
ROOT
ATOM      1  N   UNL     1       1.081   1.791  -0.020  0.00  0.00    -0.271 N 
ATOM      2  C   UNL     1      -0.041   1.048  -0.096  0.00  0.00    +0.228 C 
ATOM      3  O   UNL     1       0.036  -0.161  -0.161  0.00  0.00    -0.275 OA
ATOM      4  H   UNL     1       1.024   2.759  -0.037  0.00  0.00    +0.156 HD
ENDROOT
BRANCH   1   6
ATOM      5  N   UNL     1       2.885   0.971   1.313  0.00  0.00    -0.250 N 
ATOM      6  C   UNL     1       2.311   1.175   0.081  0.00  0.00    +0.119 A 
ATOM      7  C   UNL     1       2.966   0.758  -1.041  0.00  0.00    +0.112 A 
ATOM      8  C   UNL     1       4.221   0.138  -0.908  0.00  0.00    +0.256 A 
ATOM      9  O   UNL     1       4.826  -0.238  -1.897  0.00  0.00    -0.268 OA
ATOM     10  N   UNL     1       4.747  -0.042   0.319  0.00  0.00    -0.275 N 
ATOM     11  H   UNL     1       5.638  -0.486   0.416  0.00  0.00    +0.173 HD
ATOM     12  C   UNL     1       4.085   0.371   1.415  0.00  0.00    +0.335 A 
ATOM     13  O   UNL     1       4.577   0.198   2.513  0.00  0.00    -0.246 OA
BRANCH   5  17
ATOM     14  C   UNL     1       0.895   2.219   4.756  0.00  0.00    +0.000 A 
ATOM     15  C   UNL     1       1.383   3.156   3.864  0.00  0.00    +0.002 A 
ATOM     16  C   UNL     1       2.043   2.745   2.722  0.00  0.00    +0.026 A 
ATOM     17  C   UNL     1       2.216   1.391   2.471  0.00  0.00    +0.053 A 
ATOM     18  C   UNL     1       1.721   0.453   3.367  0.00  0.00    +0.026 A 
ATOM     19  C   UNL     1       1.067   0.870   4.510  0.00  0.00    +0.002 A 
ENDBRANCH   5  17
ENDBRANCH   1   6
BRANCH   2  20
ATOM     20  C   UNL     1      -1.390   1.719  -0.106  0.00  0.00    +0.172 C 
BRANCH  20  21
ATOM     21  S   UNL     1      -2.690   0.460  -0.067  0.00  0.00    -0.097 S 
BRANCH  21  22
ATOM     22  C   UNL     1      -4.117   1.493  -0.086  0.00  0.00    +0.098 A 
ATOM     23  C   UNL     1      -5.390   0.904  -0.070  0.00  0.00    +0.035 A 
ATOM     24  C   UNL     1      -6.502   1.690  -0.077  0.00  0.00    +0.012 A 
ATOM     25  C   UNL     1      -6.331   3.090  -0.114  0.00  0.00    +0.000 A 
ATOM     26  C   UNL     1      -7.433   3.958  -0.130  0.00  0.00    +0.010 A 
ATOM     27  C   UNL     1      -7.230   5.304  -0.166  0.00  0.00    +0.001 A 
ATOM     28  C   UNL     1      -5.941   5.832  -0.185  0.00  0.00    +0.002 A 
ATOM     29  C   UNL     1      -4.850   5.018  -0.171  0.00  0.00    +0.028 A 
ATOM     30  C   UNL     1      -5.019   3.624  -0.134  0.00  0.00    +0.072 A 
ATOM     31  N   UNL     1      -3.964   2.802  -0.119  0.00  0.00    -0.240 NA
ENDBRANCH  21  22
ENDBRANCH  20  21
ENDBRANCH   2  20
TORSDOF 5
