REMARK  Name = ZINC15677071
REMARK  7 active torsions:
REMARK  status: ('A' for Active; 'I' for Inactive)
REMARK    1  A    between atoms: C_1  and  C_2
REMARK    2  A    between atoms: C_2  and  C_24
REMARK    3  A    between atoms: C_7  and  O_22
REMARK    4  A    between atoms: N_15  and  C_16
REMARK    5  A    between atoms: C_16  and  C_17
REMARK    6  A    between atoms: O_22  and  C_23
REMARK    7  A    between atoms: N_26  and  C_27
REMARK                            x       y       z     vdW  Elec       q    Type
REMARK                         _______ _______ _______ _____ _____    ______ ____
ROOT
ATOM      1  C   UNL     1       0.380  -3.676  -4.689  0.00  0.00    +0.043 C 
ATOM      2  C   UNL     1       0.560  -2.324  -5.382  0.00  0.00    +0.129 C 
ATOM      3  C   UNL     1       1.719  -2.428  -6.373  0.00  0.00    +0.157 C 
ATOM      4  N   UNL     1       1.727  -1.239  -7.233  0.00  0.00    -0.334 N 
ATOM      5  C   UNL     1       2.756  -0.610  -7.848  0.00  0.00    +0.053 A 
ATOM      6  C   UNL     1       4.129  -0.852  -7.856  0.00  0.00    +0.072 A 
ATOM      7  C   UNL     1       4.916   0.004  -8.614  0.00  0.00    +0.122 A 
ATOM      8  C   UNL     1       4.374   1.060  -9.341  0.00  0.00    +0.046 A 
ATOM      9  C   UNL     1       3.030   1.321  -9.351  0.00  0.00    +0.013 A 
ATOM     10  C   UNL     1       2.209   0.472  -8.592  0.00  0.00    +0.001 A 
ATOM     11  C   UNL     1       0.819   0.460  -8.385  0.00  0.00    +0.041 A 
ATOM     12  C   UNL     1       0.543  -0.564  -7.551  0.00  0.00    +0.106 A 
ATOM     13  C   UNL     1      -0.748  -1.021  -7.007  0.00  0.00    +0.264 C 
ATOM     14  O   UNL     1      -1.806  -0.583  -7.417  0.00  0.00    -0.268 OA
ATOM     15  N   UNL     1      -0.695  -1.954  -6.027  0.00  0.00    -0.273 N 
ENDROOT
BRANCH   2  16
ATOM     16  C   UNL     1       0.898  -1.285  -4.344  0.00  0.00    +0.238 C 
ATOM     17  O   UNL     1       1.453  -1.614  -3.316  0.00  0.00    -0.273 OA
ATOM     18  N   UNL     1       0.585   0.008  -4.557  0.00  0.00    -0.311 N 
ATOM     19  H   UNL     1       0.207   0.282  -5.407  0.00  0.00    +0.149 HD
BRANCH  18  20
ATOM     20  C   UNL     1       0.816   1.000  -3.504  0.00  0.00    +0.073 C 
ATOM     21  C   UNL     1      -0.134   2.184  -3.701  0.00  0.00    +0.022 C 
ATOM     22  C   UNL     1      -0.184   3.016  -2.418  0.00  0.00    +0.002 C 
ATOM     23  C   UNL     1       1.092   3.852  -2.302  0.00  0.00    +0.000 C 
ATOM     24  C   UNL     1       1.920   3.358  -1.115  0.00  0.00    +0.000 C 
ATOM     25  C   UNL     1       1.955   1.828  -1.118  0.00  0.00    +0.000 C 
ATOM     26  C   UNL     1       2.921   1.342  -2.201  0.00  0.00    +0.002 C 
ATOM     27  C   UNL     1       2.264   1.491  -3.575  0.00  0.00    +0.022 C 
ENDBRANCH  18  20
ENDBRANCH   2  16
BRANCH   7  28
ATOM     28  O   UNL     1       6.260  -0.196  -8.649  0.00  0.00    -0.495 OA
ATOM     29  C   UNL     1       7.030   0.709  -9.442  0.00  0.00    +0.277 C 
ENDBRANCH   7  28
BRANCH  15  30
ATOM     30  C   UNL     1      -1.934  -2.610  -5.602  0.00  0.00    +0.183 C 
BRANCH  30  31
ATOM     31  C   UNL     1      -2.489  -1.901  -4.394  0.00  0.00    +0.122 A 
ATOM     32  C   UNL     1      -3.300  -0.829  -4.414  0.00  0.00    +0.046 A 
ATOM     33  C   UNL     1      -3.573  -0.496  -3.067  0.00  0.00    +0.041 A 
ATOM     34  C   UNL     1      -2.912  -1.385  -2.304  0.00  0.00    +0.195 A 
ATOM     35  O   UNL     1      -2.261  -2.237  -3.113  0.00  0.00    -0.466 OA
ENDBRANCH  30  31
ENDBRANCH  15  30
TORSDOF 5
