REMARK  Name = ZINC35698932
REMARK  8 active torsions:
REMARK  status: ('A' for Active; 'I' for Inactive)
REMARK    1  A    between atoms: C_1  and  C_2
REMARK    2  A    between atoms: C_2  and  C_4
REMARK    3  A    between atoms: C_2  and  N_10
REMARK    4  A    between atoms: N_10  and  C_11
REMARK    5  A    between atoms: N_10  and  C_20
REMARK    6  A    between atoms: C_11  and  C_12
REMARK    7  A    between atoms: C_20  and  C_21
REMARK    8  A    between atoms: C_23  and  C_26
REMARK                            x       y       z     vdW  Elec       q    Type
REMARK                         _______ _______ _______ _____ _____    ______ ____
ROOT
ATOM      1  N   UNK     1       1.053  -0.007  -1.545  0.00  0.00    +0.393 N 
ATOM      2  H   UNK     1       1.872   0.578  -1.617  0.00  0.00    -0.080 HD
ENDROOT
BRANCH   1   4
ATOM      3  C   UNK     1      -0.164   1.311   0.121  0.00  0.00    -0.008 C 
ATOM      4  C   UNK     1       0.569  -0.003  -0.159  0.00  0.00    -0.040 C 
BRANCH   4   5
ATOM      5  C   UNK     1       1.738  -0.136   0.782  0.00  0.00    -0.061 A 
ATOM      6  C   UNK     1       2.937   0.487   0.488  0.00  0.00    +0.002 A 
ATOM      7  C   UNK     1       4.009   0.365   1.351  0.00  0.00    +0.000 A 
ATOM      8  C   UNK     1       3.884  -0.379   2.509  0.00  0.00    +0.000 A 
ATOM      9  C   UNK     1       2.685  -1.002   2.804  0.00  0.00    +0.000 A 
ATOM     10  C   UNK     1       1.611  -0.876   1.943  0.00  0.00    +0.002 A 
ENDBRANCH   4   5
ENDBRANCH   1   4
BRANCH   1  11
ATOM     11  C   UNK     1       1.396  -1.380  -1.940  0.00  0.00    -0.039 C 
BRANCH  11  12
ATOM     12  C   UNK     1       2.580  -1.853  -1.137  0.00  0.00    -0.029 A 
ATOM     13  C   UNK     1       3.855  -1.442  -1.480  0.00  0.00    +0.007 A 
ATOM     14  C   UNK     1       4.942  -1.875  -0.744  0.00  0.00    +0.039 A 
ATOM     15  C   UNK     1       4.756  -2.720   0.337  0.00  0.00    +0.126 A 
ATOM     16  C   UNK     1       3.480  -3.131   0.681  0.00  0.00    +0.076 A 
ATOM     17  C   UNK     1       2.391  -2.693  -0.053  0.00  0.00    +0.127 A 
ATOM     18  F   UNK     1       1.144  -3.089   0.285  0.00  0.00    -0.205 F 
ATOM     19  F   UNK     1       5.819  -3.143   1.056  0.00  0.00    -0.205 F 
ENDBRANCH  11  12
ENDBRANCH   1  11
BRANCH   1  20
ATOM     20  C   UNK     1       0.003   0.510  -2.433  0.00  0.00    +0.018 C 
BRANCH  20  21
ATOM     21  C   UNK     1       0.271   1.961  -2.736  0.00  0.00    +0.158 A 
ATOM     22  N   UNK     1       1.082   2.400  -3.651  0.00  0.00    -0.323 N 
ATOM     23  C   UNK     1       1.061   3.762  -3.628  0.00  0.00    +0.166 A 
ATOM     24  C   UNK     1       0.189   4.132  -2.647  0.00  0.00    +0.230 A 
ATOM     25  O   UNK     1      -0.295   3.002  -2.109  0.00  0.00    -0.451 OA
ATOM     26  H   UNK     1       1.614   1.851  -4.248  0.00  0.00    +0.169 HD
BRANCH  23  27
ATOM     27  C   UNK     1       1.833   4.662  -4.497  0.00  0.00    +0.406 C 
ATOM     28  O   UNK     1       2.586   4.200  -5.343  0.00  0.00    -0.239 OA
ATOM     29  O   UNK     1       1.722   5.875  -4.374  0.00  0.00    -0.239 OA
ENDBRANCH  23  27
ENDBRANCH  20  21
ENDBRANCH   1  20
TORSDOF 7
