REMARK  Name = ZINC02763292
REMARK  5 active torsions:
REMARK  status: ('A' for Active; 'I' for Inactive)
REMARK    1  A    between atoms: C_1  and  C_2
REMARK    2  A    between atoms: C_7  and  N_8
REMARK    3  A    between atoms: C_9  and  C_11
REMARK    4  A    between atoms: C_13  and  C_17
REMARK    5  A    between atoms: N_15  and  C_16
REMARK                            x       y       z     vdW  Elec       q    Type
REMARK                         _______ _______ _______ _____ _____    ______ ____
ROOT
ATOM      1  N   UNL     1       2.396   1.089   0.603  0.00  0.00    -0.280 N 
ATOM      2  C   UNL     1       2.421  -0.245   0.415  0.00  0.00    +0.267 C 
ATOM      3  O   UNL     1       1.380  -0.867   0.322  0.00  0.00    -0.268 OA
ATOM      4  H   UNL     1       3.222   1.597   0.592  0.00  0.00    +0.155 HD
ENDROOT
BRANCH   1  11
ATOM      5  C   UNL     1       2.403   3.489   2.131  0.00  0.00    +0.046 C 
ATOM      6  C   UNL     1       1.134   2.917   1.551  0.00  0.00    -0.027 A 
ATOM      7  C   UNL     1      -0.071   3.561   1.757  0.00  0.00    +0.043 A 
ATOM      8  C   UNL     1      -1.236   3.036   1.224  0.00  0.00    +0.124 A 
ATOM      9  C   UNL     1      -1.196   1.868   0.481  0.00  0.00    +0.040 A 
ATOM     10  C   UNL     1       0.005   1.218   0.279  0.00  0.00    +0.026 A 
ATOM     11  C   UNL     1       1.176   1.743   0.811  0.00  0.00    +0.037 A 
ATOM     12  F   UNL     1      -2.414   3.667   1.426  0.00  0.00    -0.205 F 
ENDBRANCH   1  11
BRANCH   2  13
ATOM     13  C   UNL     1       3.709  -0.950   0.324  0.00  0.00    +0.137 A 
ATOM     14  C   UNL     1       3.905  -2.321   0.276  0.00  0.00    +0.071 A 
ATOM     15  C   UNL     1       5.290  -2.493   0.190  0.00  0.00    +0.075 A 
ATOM     16  N   UNL     1       5.843  -1.307   0.199  0.00  0.00    -0.175 NA
ATOM     17  N   UNL     1       4.952  -0.385   0.276  0.00  0.00    -0.261 N 
ATOM     18  C   UNL     1       5.228   1.054   0.307  0.00  0.00    +0.173 C 
ATOM     19  C   UNL     1       6.016  -3.810   0.109  0.00  0.00    +0.069 C 
ATOM     20 BR   UNL     1       2.582  -3.671   0.315  0.00  0.00    -0.046 Br
ENDBRANCH   2  13
TORSDOF 2
