REMARK  Name = ZINC00492246
REMARK  4 active torsions:
REMARK  status: ('A' for Active; 'I' for Inactive)
REMARK    1  A    between atoms: C_1  and  C_2
REMARK    2  A    between atoms: C_4  and  C_18
REMARK    3  A    between atoms: N_5  and  N_9
REMARK    4  A    between atoms: C_10  and  C_11
REMARK                            x       y       z     vdW  Elec       q    Type
REMARK                         _______ _______ _______ _____ _____    ______ ____
ROOT
ATOM      1  C   UNL     1       4.720  -3.114  -0.232  0.00  0.00    +0.044 C 
ATOM      2  C   UNL     1       3.468  -2.276  -0.169  0.00  0.00    -0.044 A 
ATOM      3  C   UNL     1       2.206  -2.886  -0.189  0.00  0.00    +0.026 A 
ATOM      4  C   UNL     1       1.088  -2.125  -0.127  0.00  0.00    +0.044 A 
ATOM      5  N   UNL     1       1.173  -0.770  -0.056  0.00  0.00    -0.201 N 
ATOM      6  C   UNL     1       2.372  -0.157  -0.035  0.00  0.00    +0.272 A 
ATOM      7  O   UNL     1       2.433   1.061   0.034  0.00  0.00    -0.266 OA
ATOM      8  C   UNL     1       3.552  -0.916  -0.092  0.00  0.00    +0.075 A 
ATOM      9  C   UNL     1      -0.266  -2.787  -0.143  0.00  0.00    +0.066 C 
ENDROOT
BRANCH   5  10
ATOM     10  N   UNL     1       0.002  -0.004   0.002  0.00  0.00    -0.171 NA
ATOM     11  C   UNL     1      -0.304   0.789  -0.980  0.00  0.00    +0.141 C 
BRANCH  11  12
ATOM     12  C   UNL     1      -1.478   1.674  -0.873  0.00  0.00    -0.005 A 
ATOM     13  C   UNL     1      -2.267   1.659   0.280  0.00  0.00    +0.010 A 
ATOM     14  C   UNL     1      -3.361   2.493   0.375  0.00  0.00    +0.016 A 
ATOM     15  C   UNL     1      -3.684   3.337  -0.673  0.00  0.00    +0.018 A 
ATOM     16  C   UNL     1      -2.910   3.354  -1.822  0.00  0.00    +0.016 A 
ATOM     17  C   UNL     1      -1.811   2.529  -1.928  0.00  0.00    +0.010 A 
ATOM     18 BR   UNL     1      -5.190   4.473  -0.537  0.00  0.00    -0.050 Br
ENDBRANCH  11  12
ENDBRANCH   5  10
TORSDOF 2
