REMARK  Name = ZINC05264750
REMARK  6 active torsions:
REMARK  status: ('A' for Active; 'I' for Inactive)
REMARK    1  A    between atoms: C_1  and  S_2
REMARK    2  A    between atoms: S_2  and  C_3
REMARK    3  A    between atoms: N_11  and  C_12
REMARK    4  A    between atoms: C_12  and  C_14
REMARK    5  A    between atoms: N_20  and  C_21
REMARK    6  A    between atoms: C_21  and  C_22
REMARK                            x       y       z     vdW  Elec       q    Type
REMARK                         _______ _______ _______ _____ _____    ______ ____
ROOT
ATOM      1  C   UNL     1      -1.234   1.743   0.017  0.00  0.00    +0.009 A 
ATOM      2  C   UNL     1      -0.013   1.076   0.008  0.00  0.00    +0.017 A 
ATOM      3  C   UNL     1       1.174   1.766   0.000  0.00  0.00    +0.028 A 
ATOM      4  C   UNL     1       1.194   3.172   0.008  0.00  0.00    +0.058 A 
ATOM      5  C   UNL     1      -0.051   3.818   0.023  0.00  0.00    +0.040 A 
ATOM      6  C   UNL     1      -1.242   3.133   0.030  0.00  0.00    +0.032 A 
ATOM      7  S   UNL     1       0.380   5.542   0.027  0.00  0.00    -0.052 S 
ATOM      8  C   UNL     1       2.155   5.353   0.010  0.00  0.00    +0.167 A 
ATOM      9  N   UNL     1       3.091   6.294   0.005  0.00  0.00    -0.149 NA
ATOM     10  N   UNL     1       2.306   3.999   0.002  0.00  0.00    -0.317 N 
ENDROOT
BRANCH   1  12
ATOM     11  C   UNL     1      -2.221  -0.897   0.008  0.00  0.00    +0.090 C 
ATOM     12  S   UNL     1      -2.747   0.839   0.020  0.00  0.00    -0.129 S 
ENDBRANCH   1  12
BRANCH   9  13
ATOM     13  C   UNL     1       2.740   7.588   0.014  0.00  0.00    +0.307 C 
ATOM     14  O   UNL     1       1.561   7.901   0.026  0.00  0.00    -0.265 OA
BRANCH  13  15
ATOM     15  C   UNL     1       3.776   8.630   0.009  0.00  0.00    +0.219 C 
ATOM     16  C   UNL     1       5.064   8.270   0.002  0.00  0.00    +0.238 C 
ATOM     17  O   UNL     1       6.058   9.185  -0.001  0.00  0.00    -0.492 OA
ATOM     18  C   UNL     1       5.700  10.525  -0.361  0.00  0.00    +0.269 C 
ATOM     19  C   UNL     1       4.409  10.891   0.384  0.00  0.00    +0.270 C 
ATOM     20  O   UNL     1       3.402   9.939   0.019  0.00  0.00    -0.481 OA
ENDBRANCH  13  15
ENDBRANCH   9  13
BRANCH  10  21
ATOM     21  C   UNL     1       3.650   3.415  -0.013  0.00  0.00    +0.151 C 
BRANCH  21  22
ATOM     22  C   UNL     1       4.594   4.346  -0.728  0.00  0.00    -0.013 C 
ATOM     23  C   UNL     1       5.686   4.756  -0.132  0.00  0.00    +0.005 C 
ENDBRANCH  21  22
ENDBRANCH  10  21
TORSDOF 5
