REMARK  Name = ZINC22482690
REMARK  7 active torsions:
REMARK  status: ('A' for Active; 'I' for Inactive)
REMARK    1  A    between atoms: C_1  and  C_2
REMARK    2  A    between atoms: C_5  and  S_8
REMARK    3  A    between atoms: S_8  and  N_11
REMARK    4  A    between atoms: N_11  and  C_12
REMARK    5  A    between atoms: C_12  and  C_14
REMARK    6  A    between atoms: C_12  and  C_15
REMARK    7  A    between atoms: C_20  and  C_23
REMARK                            x       y       z     vdW  Elec       q    Type
REMARK                         _______ _______ _______ _____ _____    ______ ____
ROOT
ATOM      1  C   UNL     1       3.672   8.731  -0.396  0.00  0.00    +0.234 C 
ATOM      2  O   UNL     1       3.892   9.181  -1.501  0.00  0.00    -0.274 OA
ATOM      3  N   UNL     1       2.415   8.398  -0.042  0.00  0.00    -0.296 N 
ATOM      4  C   UNL     1       1.286   8.567  -0.973  0.00  0.00    +0.113 C 
ATOM      5  C   UNL     1       0.696   7.181  -1.252  0.00  0.00    +0.054 C 
ATOM      6  C   UNL     1       0.530   6.418   0.029  0.00  0.00    -0.039 C 
ATOM      7  C   UNL     1       1.158   6.701   1.146  0.00  0.00    -0.004 C 
ATOM      8  C   UNL     1       2.116   7.851   1.289  0.00  0.00    +0.135 C 
ENDROOT
BRANCH   6   9
ATOM      9  C   UNL     1      -0.398   5.270   0.031  0.00  0.00    +0.003 A 
ATOM     10  C   UNL     1      -1.754   5.323   0.044  0.00  0.00    +0.091 A 
ATOM     11  N   UNL     1      -2.265   4.058   0.043  0.00  0.00    -0.360 N 
ATOM     12  H   UNL     1      -3.354   3.904   0.053  0.00  0.00    +0.165 HD
ATOM     13  C   UNL     1      -1.244   3.132   0.030  0.00  0.00    +0.047 A 
ATOM     14  C   UNL     1      -0.032   3.844   0.022  0.00  0.00    +0.007 A 
ATOM     15  C   UNL     1       1.181   3.156   0.007  0.00  0.00    +0.010 A 
ATOM     16  C   UNL     1       1.184   1.779   0.000  0.00  0.00    +0.001 A 
ATOM     17  C   UNL     1      -0.013   1.076   0.008  0.00  0.00    +0.002 A 
ATOM     18  C   UNL     1      -1.219   1.742   0.017  0.00  0.00    +0.026 A 
ENDBRANCH   6   9
BRANCH   1  19
ATOM     19  C   UNL     1       4.805   8.546   0.581  0.00  0.00    +0.159 C 
ATOM     20  C   UNL     1       4.539   9.383   1.834  0.00  0.00    +0.035 C 
BRANCH  19  21
ATOM     21  N   UNL     1       6.060   8.978  -0.039  0.00  0.00    -0.178 NA
ATOM     22  H   UNL     1       6.045   9.716  -0.854  0.00  0.00    +0.149 HD
BRANCH  21  23
ATOM     23  S   UNL     1       7.471   8.185   0.309  0.00  0.00    +0.059 S 
ATOM     24  O   UNL     1       8.490   8.814  -0.456  0.00  0.00    -0.153 OA
ATOM     25  O   UNL     1       7.538   8.077   1.724  0.00  0.00    -0.153 OA
BRANCH  23  30
ATOM     26  C   UNL     1       6.933   2.567  -1.825  0.00  0.00    +0.044 C 
ATOM     27  C   UNL     1       7.068   3.970  -1.292  0.00  0.00    -0.050 A 
ATOM     28  C   UNL     1       7.586   4.968  -2.096  0.00  0.00    +0.005 A 
ATOM     29  C   UNL     1       7.709   6.255  -1.607  0.00  0.00    +0.029 A 
ATOM     30  C   UNL     1       7.314   6.544  -0.314  0.00  0.00    +0.105 A 
ATOM     31  C   UNL     1       6.800   5.545   0.491  0.00  0.00    +0.029 A 
ATOM     32  C   UNL     1       6.673   4.259   0.001  0.00  0.00    +0.005 A 
ENDBRANCH  23  30
ENDBRANCH  21  23
ENDBRANCH  19  21
ENDBRANCH   1  19
TORSDOF 5
