REMARK  Name = ZINC05394020
REMARK  3 active torsions:
REMARK  status: ('A' for Active; 'I' for Inactive)
REMARK    1  A    between atoms: C_1  and  C_2
REMARK    2  A    between atoms: N_5  and  C_15
REMARK    3  A    between atoms: C_15  and  C_16
REMARK                            x       y       z     vdW  Elec       q    Type
REMARK                         _______ _______ _______ _____ _____    ______ ____
ROOT
ATOM      1  C   UNL     1      -1.762  -3.296  -3.558  0.00  0.00    +0.019 C 
ATOM      2  C   UNL     1      -0.321  -3.529  -3.101  0.00  0.00    +0.089 C 
ATOM      3  C   UNL     1       0.049  -2.474  -2.083  0.00  0.00    +0.118 C 
ATOM      4  N   UNL     1       1.254  -2.777  -1.365  0.00  0.00    -0.323 N 
ATOM      5  C   UNL     1       2.467  -2.534  -1.992  0.00  0.00    +0.052 A 
ATOM      6  C   UNL     1       3.485  -2.067  -1.150  0.00  0.00    +0.025 A 
ATOM      7  C   UNL     1       4.737  -1.770  -1.639  0.00  0.00    +0.002 A 
ATOM      8  C   UNL     1       4.999  -1.932  -2.987  0.00  0.00    +0.002 A 
ATOM      9  C   UNL     1       4.010  -2.396  -3.822  0.00  0.00    +0.025 A 
ATOM     10  C   UNL     1       2.732  -2.712  -3.337  0.00  0.00    +0.055 A 
ATOM     11  N   UNL     1       1.852  -3.200  -4.283  0.00  0.00    -0.284 N 
ATOM     12  C   UNL     1       0.577  -3.490  -4.286  0.00  0.00    +0.222 C 
ATOM     13  O   UNL     1       0.077  -3.752  -5.360  0.00  0.00    -0.275 OA
ATOM     14  H   UNL     1       2.276  -3.365  -5.140  0.00  0.00    +0.155 HD
ENDROOT
BRANCH   4  15
ATOM     15  C   UNL     1       1.229  -2.186  -0.021  0.00  0.00    +0.140 C 
BRANCH  15  16
ATOM     16  C   UNL     1      -0.134  -2.387   0.591  0.00  0.00    -0.030 A 
ATOM     17  C   UNL     1      -0.440  -3.579   1.220  0.00  0.00    +0.005 A 
ATOM     18  C   UNL     1      -1.689  -3.763   1.782  0.00  0.00    +0.000 A 
ATOM     19  C   UNL     1      -2.633  -2.755   1.714  0.00  0.00    +0.000 A 
ATOM     20  C   UNL     1      -2.327  -1.564   1.084  0.00  0.00    +0.000 A 
ATOM     21  C   UNL     1      -1.077  -1.379   0.523  0.00  0.00    +0.005 A 
ENDBRANCH  15  16
ENDBRANCH   4  15
TORSDOF 2
