REMARK  Name = ZINC45546436
REMARK  6 active torsions:
REMARK  status: ('A' for Active; 'I' for Inactive)
REMARK    1  A    between atoms: C_1  and  N_2
REMARK    2  A    between atoms: C_3  and  C_21
REMARK    3  A    between atoms: C_6  and  S_7
REMARK    4  A    between atoms: S_7  and  C_8
REMARK    5  A    between atoms: C_8  and  C_9
REMARK    6  A    between atoms: C_12  and  C_14
REMARK                            x       y       z     vdW  Elec       q    Type
REMARK                         _______ _______ _______ _____ _____    ______ ____
ROOT
ATOM      1  S   UNL     1       0.034  -0.347   2.779  0.00  0.00    -0.080 S 
ENDROOT
BRANCH   1   7
ATOM      2  C   UNL     1      -0.018   1.461   0.010  0.00  0.00    +0.152 C 
ATOM      3  N   UNL     1       0.002  -0.004   0.002  0.00  0.00    -0.309 N 
ATOM      4  C   UNL     1       0.008  -0.824  -1.093  0.00  0.00    +0.139 A 
ATOM      5  N   UNL     1       0.028  -2.052  -0.657  0.00  0.00    -0.133 NA
ATOM      6  N   UNL     1       0.034  -2.064   0.628  0.00  0.00    -0.122 NA
ATOM      7  C   UNL     1       0.024  -0.834   1.086  0.00  0.00    +0.192 A 
BRANCH   4   8
ATOM      8  C   UNL     1      -0.005  -0.388  -2.535  0.00  0.00    +0.079 C 
ATOM      9  C   UNL     1       1.249  -0.926  -3.243  0.00  0.00    +0.035 C 
ATOM     10  C   UNL     1       1.059  -0.737  -4.775  0.00  0.00    +0.166 C 
ATOM     11  S   UNL     1      -0.714  -1.204  -4.956  0.00  0.00    -0.030 S 
ATOM     12  O   UNL     1      -0.798  -2.590  -5.259  0.00  0.00    -0.174 OA
ATOM     13  O   UNL     1      -1.356  -0.262  -5.804  0.00  0.00    -0.174 OA
ATOM     14  C   UNL     1      -1.276  -0.937  -3.226  0.00  0.00    +0.177 C 
ENDBRANCH   4   8
ENDBRANCH   1   7
BRANCH   1  15
ATOM     15  C   UNL     1       0.064  -1.917   3.688  0.00  0.00    +0.136 C 
BRANCH  15  16
ATOM     16  C   UNL     1       0.075  -1.639   5.169  0.00  0.00    +0.090 A 
ATOM     17  C   UNL     1       1.168  -1.474   5.936  0.00  0.00    +0.221 A 
ATOM     18  O   UNL     1       0.742  -1.247   7.195  0.00  0.00    -0.443 OA
ATOM     19  C   UNL     1      -0.602  -1.277   7.184  0.00  0.00    +0.227 A 
ATOM     20  N   UNL     1      -1.004  -1.509   5.956  0.00  0.00    -0.213 NA
BRANCH  19  21
ATOM     21  C   UNL     1      -1.479  -1.076   8.356  0.00  0.00    +0.037 A 
ATOM     22  C   UNL     1      -2.866  -1.138   8.211  0.00  0.00    +0.014 A 
ATOM     23  C   UNL     1      -3.680  -0.950   9.309  0.00  0.00    +0.021 A 
ATOM     24  C   UNL     1      -3.124  -0.701  10.552  0.00  0.00    +0.041 A 
ATOM     25  C   UNL     1      -1.748  -0.637  10.702  0.00  0.00    +0.021 A 
ATOM     26  C   UNL     1      -0.924  -0.829   9.612  0.00  0.00    +0.014 A 
ATOM     27 CL   UNL     1      -4.154  -0.465  11.929  0.00  0.00    -0.084 Cl
ENDBRANCH  19  21
ENDBRANCH  15  16
ENDBRANCH   1  15
TORSDOF 5
