REMARK  Name = ZINC01190062
REMARK  3 active torsions:
REMARK  status: ('A' for Active; 'I' for Inactive)
REMARK    1  A    between atoms: C_3  and  C_10
REMARK    2  A    between atoms: C_5  and  N_7
REMARK    3  A    between atoms: N_11  and  N_12
REMARK                            x       y       z     vdW  Elec       q    Type
REMARK                         _______ _______ _______ _____ _____    ______ ____
ROOT
ATOM      1  N   UNL     1       1.297  -4.547  -0.363  0.00  0.00    -0.185 N 
ATOM      2  C   UNL     1       0.016  -4.833  -0.017  0.00  0.00    +0.227 A 
ATOM      3  N   UNL     1      -0.882  -3.905   0.233  0.00  0.00    -0.228 NA
ATOM      4  C   UNL     1      -0.493  -2.637   0.137  0.00  0.00    +0.116 A 
ATOM      5  C   UNL     1       0.815  -2.239  -0.216  0.00  0.00    +0.077 A 
ATOM      6  C   UNL     1       1.765  -3.282  -0.482  0.00  0.00    +0.283 A 
ATOM      7  O   UNL     1       2.919  -3.044  -0.794  0.00  0.00    -0.265 OA
ATOM      8  C   UNL     1       1.057  -0.808  -0.272  0.00  0.00    -0.023 A 
ATOM      9  C   UNL     1       0.007  -0.004   0.019  0.00  0.00    -0.004 A 
ATOM     10  S   UNL     1      -1.338  -1.106   0.376  0.00  0.00    -0.073 S 
ATOM     11  C   UNL     1      -0.011   1.493   0.035  0.00  0.00    +0.043 C 
ATOM     12  C   UNL     1       1.439   1.997   0.033  0.00  0.00    +0.005 C 
ATOM     13  C   UNL     1       2.218   1.247  -1.050  0.00  0.00    +0.005 C 
ATOM     14  C   UNL     1       2.414  -0.211  -0.635  0.00  0.00    +0.037 C 
ENDROOT
BRANCH   1  16
ATOM     15  C   UNL     1       1.789  -6.832  -0.404  0.00  0.00    +0.141 C 
ATOM     16  N   UNL     1       2.175  -5.610  -0.610  0.00  0.00    -0.170 NA
BRANCH  15  19
ATOM     17  C   UNL     1       4.960  -8.729  -1.062  0.00  0.00    +0.003 A 
ATOM     18  C   UNL     1       4.069  -7.684  -0.922  0.00  0.00    +0.009 A 
ATOM     19  C   UNL     1       2.747  -7.943  -0.556  0.00  0.00    -0.003 A 
ATOM     20  C   UNL     1       2.336  -9.259  -0.329  0.00  0.00    +0.042 A 
ATOM     21  C   UNL     1       3.236 -10.294  -0.478  0.00  0.00    +0.127 A 
ATOM     22  C   UNL     1       4.545 -10.030  -0.841  0.00  0.00    +0.033 A 
BRANCH  21  23
ATOM     23  N   UNL     1       2.801 -11.690  -0.244  0.00  0.00    +0.056 N 
ATOM     24  O   UNL     1       3.596 -12.604  -0.370  0.00  0.00    -0.126 OA
ATOM     25  O   UNL     1       1.649 -11.923   0.076  0.00  0.00    -0.126 OA
ENDBRANCH  21  23
ENDBRANCH  15  19
ENDBRANCH   1  16
TORSDOF 3
