REMARK  Name = ZINC24763235
REMARK  5 active torsions:
REMARK  status: ('A' for Active; 'I' for Inactive)
REMARK    1  A    between atoms: C_1  and  C_2
REMARK    2  A    between atoms: C_2  and  C_3
REMARK    3  A    between atoms: C_2  and  C_4
REMARK    4  A    between atoms: C_2  and  O_18
REMARK    5  A    between atoms: O_18  and  C_19
REMARK                            x       y       z     vdW  Elec       q    Type
REMARK                         _______ _______ _______ _____ _____    ______ ____
ROOT
ATOM      1  C   UNL     1      -4.462   5.970   0.122  0.00  0.00    +0.259 C 
ATOM      2  O   UNL     1      -5.185   6.431   0.980  0.00  0.00    -0.271 OA
ATOM      3  N   UNL     1      -3.493   5.095   0.456  0.00  0.00    -0.298 N 
ATOM      4  C   UNL     1      -3.251   4.747   1.863  0.00  0.00    +0.110 C 
ATOM      5  C   UNL     1      -1.772   4.994   2.184  0.00  0.00    +0.054 C 
ATOM      6  C   UNL     1      -0.903   4.245   1.179  0.00  0.00    +0.115 C 
ATOM      7  C   UNL     1      -1.185   4.720  -0.242  0.00  0.00    +0.054 C 
ATOM      8  C   UNL     1      -2.659   4.471  -0.581  0.00  0.00    +0.110 C 
ATOM      9  C   UNL     1       0.560   4.422   1.514  0.00  0.00    +0.244 C 
ATOM     10  O   UNL     1       1.184   5.461   1.548  0.00  0.00    -0.273 OA
ATOM     11  N   UNL     1       1.025   3.181   1.766  0.00  0.00    -0.238 N 
ATOM     12  C   UNL     1       0.064   2.259   1.637  0.00  0.00    +0.307 C 
ATOM     13  O   UNL     1       0.240   1.069   1.814  0.00  0.00    -0.252 OA
ATOM     14  N   UNL     1      -1.120   2.796   1.284  0.00  0.00    -0.285 N 
ATOM     15  H   UNL     1       2.081   3.034   2.039  0.00  0.00    +0.159 HD
ATOM     16  H   UNL     1      -2.115   2.373   1.083  0.00  0.00    +0.151 HD
ENDROOT
BRANCH   1  18
ATOM     17  C   UNL     1      -5.991   7.090  -1.477  0.00  0.00    +0.065 C 
ATOM     18  C   UNL     1      -4.647   6.377  -1.317  0.00  0.00    +0.180 C 
ATOM     19  C   UNL     1      -3.516   7.323  -1.729  0.00  0.00    +0.065 C 
BRANCH  18  20
ATOM     20  O   UNL     1      -4.622   5.215  -2.148  0.00  0.00    -0.477 OA
BRANCH  20  21
ATOM     21  C   UNL     1      -5.536   4.246  -1.880  0.00  0.00    +0.122 A 
ATOM     22  C   UNL     1      -6.399   4.383  -0.802  0.00  0.00    +0.047 A 
ATOM     23  C   UNL     1      -7.331   3.399  -0.535  0.00  0.00    +0.023 A 
ATOM     24  C   UNL     1      -7.398   2.272  -1.335  0.00  0.00    +0.041 A 
ATOM     25  C   UNL     1      -6.535   2.131  -2.407  0.00  0.00    +0.023 A 
ATOM     26  C   UNL     1      -5.605   3.115  -2.681  0.00  0.00    +0.047 A 
ATOM     27 CL   UNL     1      -8.566   1.034  -0.993  0.00  0.00    -0.084 Cl
ENDBRANCH  20  21
ENDBRANCH  18  20
ENDBRANCH   1  18
TORSDOF 3
