REMARK  Name = ZINC14128697
REMARK  10 active torsions:
REMARK  status: ('A' for Active; 'I' for Inactive)
REMARK    1  A    between atoms: C_1  and  C_2
REMARK    2  A    between atoms: C_5  and  N_9
REMARK    3  A    between atoms: C_6  and  C_8
REMARK    4  A    between atoms: C_10  and  S_14
REMARK    5  A    between atoms: S_14  and  C_15
REMARK    6  A    between atoms: C_15  and  C_17
REMARK    7  A    between atoms: C_15  and  C_18
REMARK    8  A    between atoms: N_20  and  C_21
REMARK    9  A    between atoms: C_26  and  C_31
REMARK   10  A    between atoms: C_28  and  C_30
REMARK                            x       y       z     vdW  Elec       q    Type
REMARK                         _______ _______ _______ _____ _____    ______ ____
ROOT
ATOM      1  S   UNL     1       3.332   0.346   0.630  0.00  0.00    -0.072 S 
ENDROOT
BRANCH   1   3
ATOM      2  N   UNL     1       1.014   1.858   0.265  0.00  0.00    -0.187 N 
ATOM      3  C   UNL     1       1.604   0.653   0.472  0.00  0.00    +0.215 A 
ATOM      4  N   UNL     1       0.642  -0.242   0.533  0.00  0.00    -0.101 NA
ATOM      5  N   UNL     1      -0.504   0.318   0.379  0.00  0.00    -0.022 NA
ATOM      6  N   UNL     1      -0.364   1.588   0.211  0.00  0.00    -0.038 NA
BRANCH   2  11
ATOM      7  C   UNL     1       3.565   6.900  -0.270  0.00  0.00    +0.044 C 
ATOM      8  C   UNL     1       2.888   5.561  -0.128  0.00  0.00    -0.050 A 
ATOM      9  C   UNL     1       3.234   4.720   0.914  0.00  0.00    +0.005 A 
ATOM     10  C   UNL     1       2.612   3.494   1.049  0.00  0.00    +0.028 A 
ATOM     11  C   UNL     1       1.645   3.103   0.133  0.00  0.00    +0.073 A 
ATOM     12  C   UNL     1       1.299   3.950  -0.911  0.00  0.00    -0.025 A 
ATOM     13  C   UNL     1       1.921   5.177  -1.039  0.00  0.00    +0.008 A 
ATOM     14  C   UNL     1       0.246   3.531  -1.905  0.00  0.00    +0.046 C 
ENDBRANCH   2  11
ENDBRANCH   1   3
BRANCH   1  15
ATOM     15  C   UNL     1       3.311  -1.447   0.878  0.00  0.00    +0.137 C 
ATOM     16  C   UNL     1       2.611  -1.771   2.200  0.00  0.00    +0.029 C 
BRANCH  15  17
ATOM     17  C   UNL     1       4.726  -1.965   0.918  0.00  0.00    +0.226 C 
ATOM     18  O   UNL     1       5.632  -1.228   1.245  0.00  0.00    -0.275 OA
ATOM     19  N   UNL     1       4.983  -3.247   0.592  0.00  0.00    -0.311 N 
ATOM     20  H   UNL     1       4.258  -3.836   0.331  0.00  0.00    +0.149 HD
BRANCH  19  21
ATOM     21  C   UNL     1       6.358  -3.751   0.631  0.00  0.00    +0.076 C 
ATOM     22  C   UNL     1       6.697  -4.199   2.054  0.00  0.00    +0.022 C 
ATOM     23  C   UNL     1       5.735  -5.309   2.482  0.00  0.00    +0.002 C 
ATOM     24  C   UNL     1       5.870  -6.497   1.528  0.00  0.00    +0.003 C 
ATOM     25  C   UNL     1       5.532  -6.049   0.104  0.00  0.00    -0.009 C 
ATOM     26  C   UNL     1       6.494  -4.939  -0.323  0.00  0.00    +0.009 C 
ATOM     27  C   UNL     1       6.155  -4.490  -1.746  0.00  0.00    +0.009 C 
ATOM     28  C   UNL     1       5.667  -7.237  -0.850  0.00  0.00    +0.008 C 
ENDBRANCH  19  21
ENDBRANCH  15  17
ENDBRANCH   1  15
TORSDOF 5
