REMARK  Name = ZINC13958492
REMARK  5 active torsions:
REMARK  status: ('A' for Active; 'I' for Inactive)
REMARK    1  A    between atoms: C_1  and  C_2
REMARK    2  A    between atoms: C_5  and  N_8
REMARK    3  A    between atoms: C_10  and  N_15
REMARK    4  A    between atoms: C_20  and  C_27
REMARK    5  A    between atoms: C_23  and  C_26
REMARK                            x       y       z     vdW  Elec       q    Type
REMARK                         _______ _______ _______ _____ _____    ______ ____
ROOT
ATOM      1  N   UNL     1      -1.888   2.620  -0.616  0.00  0.00    -0.270 N 
ATOM      2  C   UNL     1      -1.101   1.507  -1.159  0.00  0.00    +0.136 C 
ATOM      3  C   UNL     1      -0.153   1.077  -0.018  0.00  0.00    +0.101 C 
ATOM      4  C   UNL     1      -0.933   1.541   1.233  0.00  0.00    +0.120 C 
ATOM      5  C   UNL     1      -1.817   2.660   0.725  0.00  0.00    +0.222 C 
ATOM      6  O   UNL     1      -2.378   3.474   1.427  0.00  0.00    -0.275 OA
ENDROOT
BRANCH   3   7
ATOM      7  N   UNL     1       1.135   1.768  -0.119  0.00  0.00    -0.294 N 
ATOM      8  C   UNL     1       2.228   1.246   0.471  0.00  0.00    +0.302 C 
ATOM      9  O   UNL     1       2.129   0.250   1.161  0.00  0.00    -0.253 OA
ATOM     10  N   UNL     1       3.432   1.827   0.295  0.00  0.00    -0.285 N 
ATOM     11  C   UNL     1       3.552   3.092  -0.443  0.00  0.00    +0.112 C 
ATOM     12  C   UNL     1       4.303   4.101   0.438  0.00  0.00    +0.004 C 
ATOM     13  C   UNL     1       5.641   3.497   0.869  0.00  0.00    +0.009 C 
ATOM     14  C   UNL     1       5.389   2.232   1.694  0.00  0.00    +0.004 C 
ATOM     15  C   UNL     1       4.649   1.204   0.833  0.00  0.00    +0.112 C 
ATOM     16  C   UNL     1       4.538   2.582   2.917  0.00  0.00    +0.009 C 
ATOM     17  C   UNL     1       4.556   5.383  -0.359  0.00  0.00    +0.009 C 
ATOM     18  H   UNL     1       1.201   2.603  -0.610  0.00  0.00    +0.151 HD
ENDBRANCH   3   7
BRANCH   1  23
ATOM     19  C   UNL     1      -4.848   6.288  -3.774  0.00  0.00    +0.044 C 
ATOM     20  C   UNL     1      -4.062   5.314  -2.935  0.00  0.00    -0.050 A 
ATOM     21  C   UNL     1      -3.446   4.230  -3.533  0.00  0.00    +0.005 A 
ATOM     22  C   UNL     1      -2.724   3.335  -2.767  0.00  0.00    +0.024 A 
ATOM     23  C   UNL     1      -2.618   3.525  -1.395  0.00  0.00    +0.036 A 
ATOM     24  C   UNL     1      -3.243   4.612  -0.797  0.00  0.00    +0.024 A 
ATOM     25  C   UNL     1      -3.958   5.506  -1.570  0.00  0.00    +0.005 A 
ENDBRANCH   1  23
TORSDOF 2
