REMARK  Name = ZINC06194801
REMARK  6 active torsions:
REMARK  status: ('A' for Active; 'I' for Inactive)
REMARK    1  A    between atoms: C_1  and  C_2
REMARK    2  A    between atoms: C_6  and  C_15
REMARK    3  A    between atoms: C_13  and  C_14
REMARK    4  A    between atoms: C_15  and  C_17
REMARK    5  A    between atoms: C_15  and  N_28
REMARK    6  A    between atoms: N_21  and  C_22
REMARK                            x       y       z     vdW  Elec       q    Type
REMARK                         _______ _______ _______ _____ _____    ______ ____
ROOT
ATOM      1  C   UNL     1      -0.810   1.899   1.136  0.00  0.00    +0.179 C 
ENDROOT
BRANCH   1   7
ATOM      2  C   UNL     1      -2.796  -2.325   6.952  0.00  0.00    +0.044 C 
ATOM      3  C   UNL     1      -1.769  -1.508   6.211  0.00  0.00    -0.047 A 
ATOM      4  C   UNL     1      -2.103  -0.914   5.027  0.00  0.00    +0.013 A 
ATOM      5  C   UNL     1      -1.151  -0.155   4.339  0.00  0.00    -0.001 A 
ATOM      6  C   UNL     1      -1.474   0.495   3.068  0.00  0.00    +0.021 A 
ATOM      7  C   UNL     1      -0.510   1.218   2.446  0.00  0.00    +0.045 A 
ATOM      8  C   UNL     1       0.775   1.329   3.018  0.00  0.00    +0.255 A 
ATOM      9  O   UNL     1       1.629   1.979   2.440  0.00  0.00    -0.268 OA
ATOM     10  N   UNL     1       1.081   0.739   4.187  0.00  0.00    -0.322 N 
ATOM     11  H   UNL     1       1.973   0.839   4.554  0.00  0.00    +0.169 HD
ATOM     12  C   UNL     1       0.145  -0.009   4.870  0.00  0.00    +0.049 A 
ATOM     13  C   UNL     1       0.462  -0.623   6.077  0.00  0.00    +0.030 A 
ATOM     14  C   UNL     1      -0.493  -1.366   6.737  0.00  0.00    -0.046 A 
ATOM     15  C   UNL     1      -0.148  -2.030   8.045  0.00  0.00    +0.044 C 
ENDBRANCH   1   7
BRANCH   1  16
ATOM     16  N   UNL     1       0.100   1.393   0.101  0.00  0.00    -0.316 N 
ATOM     17  C   UNL     1       0.387  -0.028   0.303  0.00  0.00    +0.106 C 
ATOM     18  C   UNL     1       1.318  -0.506  -0.818  0.00  0.00    +0.024 C 
ATOM     19  C   UNL     1       0.528  -0.481  -2.129  0.00  0.00    +0.038 C 
ATOM     20  C   UNL     1      -0.203   0.832  -2.256  0.00  0.00    -0.026 A 
ATOM     21  C   UNL     1      -0.386   1.677  -1.175  0.00  0.00    +0.034 A 
ATOM     22  C   UNL     1      -1.086   2.872  -1.351  0.00  0.00    +0.023 A 
ATOM     23  C   UNL     1      -1.586   3.212  -2.589  0.00  0.00    +0.002 A 
ATOM     24  C   UNL     1      -1.395   2.367  -3.667  0.00  0.00    +0.000 A 
ATOM     25  C   UNL     1      -0.706   1.182  -3.498  0.00  0.00    +0.005 A 
ENDBRANCH   1  16
BRANCH   1  26
ATOM     26  C   UNL     1      -0.621   3.387   1.289  0.00  0.00    +0.177 A 
ATOM     27  N   UNL     1       0.503   4.049   1.162  0.00  0.00    -0.111 NA
ATOM     28  N   UNL     1       0.255   5.297   1.364  0.00  0.00    -0.023 NA
ATOM     29  N   UNL     1      -0.998   5.447   1.624  0.00  0.00    -0.044 NA
ATOM     30  N   UNL     1      -1.571   4.292   1.587  0.00  0.00    -0.224 N 
BRANCH  30  31
ATOM     31  C   UNL     1      -2.990   4.017   1.825  0.00  0.00    +0.111 C 
ATOM     32  C   UNL     1      -3.836   4.780   0.802  0.00  0.00    +0.027 C 
ATOM     33  C   UNL     1      -5.318   4.493   1.050  0.00  0.00    +0.002 C 
ATOM     34  C   UNL     1      -5.695   4.944   2.463  0.00  0.00    +0.000 C 
ATOM     35  C   UNL     1      -4.850   4.181   3.485  0.00  0.00    +0.002 C 
ATOM     36  C   UNL     1      -3.368   4.468   3.237  0.00  0.00    +0.027 C 
ENDBRANCH  30  31
ENDBRANCH   1  26
TORSDOF 4
