REMARK  Name = ZINC08426690
REMARK  8 active torsions:
REMARK  status: ('A' for Active; 'I' for Inactive)
REMARK    1  A    between atoms: C_1  and  C_2
REMARK    2  A    between atoms: C_2  and  O_3
REMARK    3  A    between atoms: O_3  and  C_4
REMARK    4  A    between atoms: C_4  and  C_6
REMARK    5  A    between atoms: C_6  and  C_28
REMARK    6  A    between atoms: N_8  and  N_9
REMARK    7  A    between atoms: N_9  and  C_10
REMARK    8  A    between atoms: N_21  and  C_22
REMARK                            x       y       z     vdW  Elec       q    Type
REMARK                         _______ _______ _______ _____ _____    ______ ____
ROOT
ATOM      1  C   UNL     1       1.526  -2.344   2.484  0.00  0.00    +0.183 C 
ATOM      2  C   UNL     1       1.854  -3.730   1.977  0.00  0.00    +0.145 C 
ATOM      3  N   UNL     1       1.018  -4.604   1.474  0.00  0.00    -0.180 NA
ATOM      4  C   UNL     1       3.246  -3.891   2.156  0.00  0.00    +0.266 C 
ATOM      5  O   UNL     1       3.895  -4.879   1.868  0.00  0.00    -0.280 OA
ATOM      6  C   UNL     1       3.780  -2.640   2.760  0.00  0.00    +0.294 C 
ATOM      7  O   UNL     1       4.944  -2.446   3.043  0.00  0.00    -0.266 OA
ATOM      8  N   UNL     1       2.786  -1.756   2.945  0.00  0.00    -0.243 N 
ATOM      9  C   UNL     1       0.532  -2.432   3.644  0.00  0.00    +0.051 C 
ENDROOT
BRANCH   8  10
ATOM     10  C   UNL     1       2.930  -0.477   3.491  0.00  0.00    +0.038 A 
ATOM     11  C   UNL     1       3.646   0.496   2.805  0.00  0.00    +0.023 A 
ATOM     12  C   UNL     1       3.787   1.758   3.347  0.00  0.00    +0.002 A 
ATOM     13  C   UNL     1       3.216   2.054   4.572  0.00  0.00    +0.000 A 
ATOM     14  C   UNL     1       2.504   1.087   5.258  0.00  0.00    +0.002 A 
ATOM     15  C   UNL     1       2.354  -0.175   4.718  0.00  0.00    +0.023 A 
ENDBRANCH   8  10
BRANCH   1  16
ATOM     16  C   UNL     1       0.945  -1.512   1.370  0.00  0.00    +0.337 C 
ATOM     17  O   UNL     1       0.348  -2.046   0.464  0.00  0.00    -0.248 OA
BRANCH  16  18
ATOM     18  O   UNL     1       1.090  -0.178   1.383  0.00  0.00    -0.463 OA
BRANCH  18  20
ATOM     19  C   UNL     1       0.780   2.044   0.483  0.00  0.00    +0.048 C 
ATOM     20  C   UNL     1       0.514   0.549   0.295  0.00  0.00    +0.229 C 
ENDBRANCH  18  20
ENDBRANCH  16  18
ENDBRANCH   1  16
BRANCH   3  21
ATOM     21  N   UNL     1      -0.235  -4.313   1.371  0.00  0.00    -0.237 N 
ATOM     22  H   UNL     1      -0.558  -3.448   1.667  0.00  0.00    +0.174 HD
BRANCH  21  23
ATOM     23  C   UNL     1      -1.125  -5.243   0.835  0.00  0.00    +0.048 A 
ATOM     24  C   UNL     1      -0.665  -6.487   0.416  0.00  0.00    +0.026 A 
ATOM     25  C   UNL     1      -1.548  -7.405  -0.114  0.00  0.00    +0.017 A 
ATOM     26  C   UNL     1      -2.891  -7.090  -0.228  0.00  0.00    +0.018 A 
ATOM     27  C   UNL     1      -3.353  -5.853   0.187  0.00  0.00    +0.017 A 
ATOM     28  C   UNL     1      -2.475  -4.932   0.724  0.00  0.00    +0.026 A 
ATOM     29 BR   UNL     1      -4.098  -8.351  -0.955  0.00  0.00    -0.050 Br
ENDBRANCH  21  23
ENDBRANCH   3  21
TORSDOF 6
