REMARK  Name = ZINC03015426
REMARK  7 active torsions:
REMARK  status: ('A' for Active; 'I' for Inactive)
REMARK    1  A    between atoms: C_1  and  O_2
REMARK    2  A    between atoms: O_2  and  C_3
REMARK    3  A    between atoms: C_8  and  N_9
REMARK    4  A    between atoms: C_10  and  C_12
REMARK    5  A    between atoms: C_12  and  C_14
REMARK    6  A    between atoms: N_16  and  C_23
REMARK    7  A    between atoms: C_23  and  C_24
REMARK                            x       y       z     vdW  Elec       q    Type
REMARK                         _______ _______ _______ _____ _____    ______ ____
ROOT
ATOM      1  C   UNL     1       2.532   4.188   0.111  0.00  0.00    +0.052 A 
ATOM      2  C   UNL     1       3.779   3.600   0.003  0.00  0.00    +0.099 A 
ATOM      3  N   UNL     1       4.730   4.551   0.033  0.00  0.00    -0.337 N 
ATOM      4  C   UNL     1       4.164   5.804   0.162  0.00  0.00    +0.050 A 
ATOM      5  C   UNL     1       2.771   5.641   0.210  0.00  0.00    +0.011 A 
ATOM      6  C   UNL     1       1.940   6.749   0.345  0.00  0.00    +0.011 A 
ATOM      7  C   UNL     1       2.493   8.010   0.420  0.00  0.00    +0.001 A 
ATOM      8  C   UNL     1       3.868   8.175   0.367  0.00  0.00    +0.002 A 
ATOM      9  C   UNL     1       4.702   7.085   0.239  0.00  0.00    +0.026 A 
ENDROOT
BRANCH   1  10
ATOM     10  C   UNL     1       1.238   3.507   0.119  0.00  0.00    +0.250 C 
ATOM     11  O   UNL     1       0.213   4.152   0.221  0.00  0.00    -0.282 OA
BRANCH  10  13
ATOM     12  N   UNL     1      -0.017   1.395   0.010  0.00  0.00    -0.276 N 
ATOM     13  C   UNL     1       1.176   2.022   0.002  0.00  0.00    +0.289 C 
ATOM     14  O   UNL     1       2.200   1.378  -0.099  0.00  0.00    -0.266 OA
ATOM     15  H   UNL     1      -0.837   1.913   0.006  0.00  0.00    +0.155 HD
BRANCH  12  21
ATOM     16  C   UNL     1      -1.193  -0.661  -0.487  0.00  0.00    +0.141 A 
ATOM     17  C   UNL     1      -1.241  -2.046  -0.477  0.00  0.00    +0.047 A 
ATOM     18  C   UNL     1      -0.181  -2.771   0.032  0.00  0.00    +0.004 A 
ATOM     19  C   UNL     1       0.932  -2.119   0.532  0.00  0.00    +0.002 A 
ATOM     20  C   UNL     1       0.991  -0.739   0.521  0.00  0.00    +0.027 A 
ATOM     21  C   UNL     1      -0.072  -0.003   0.017  0.00  0.00    +0.076 A 
BRANCH  16  23
ATOM     22  C   UNL     1      -3.350  -0.687  -1.487  0.00  0.00    +0.277 C 
ATOM     23  O   UNL     1      -2.235   0.054  -0.988  0.00  0.00    -0.493 OA
ENDBRANCH  16  23
ENDBRANCH  12  21
ENDBRANCH  10  13
ENDBRANCH   1  10
BRANCH   3  24
ATOM     24  C   UNL     1       6.169   4.293  -0.058  0.00  0.00    +0.217 C 
BRANCH  24  25
ATOM     25  C   UNL     1       6.753   4.211   1.329  0.00  0.00    +0.235 C 
ATOM     26  O   UNL     1       6.038   4.354   2.298  0.00  0.00    -0.274 OA
ATOM     27  N   UNL     1       8.071   3.978   1.492  0.00  0.00    -0.300 N 
ATOM     28  C   UNL     1       8.949   3.796   0.329  0.00  0.00    +0.108 C 
ATOM     29  C   UNL     1      10.123   4.780   0.444  0.00  0.00    +0.019 C 
ATOM     30  C   UNL     1      10.818   4.580   1.792  0.00  0.00    +0.003 C 
ATOM     31  C   UNL     1       9.832   4.873   2.925  0.00  0.00    +0.019 C 
ATOM     32  C   UNL     1       8.655   3.896   2.838  0.00  0.00    +0.108 C 
ENDBRANCH  24  25
ENDBRANCH   3  24
TORSDOF 6
