REMARK  Name = ZINC16624390
REMARK  5 active torsions:
REMARK  status: ('A' for Active; 'I' for Inactive)
REMARK    1  A    between atoms: C_1  and  C_2
REMARK    2  A    between atoms: C_5  and  C_9
REMARK    3  A    between atoms: C_7  and  C_8
REMARK    4  A    between atoms: C_9  and  C_11
REMARK    5  A    between atoms: C_11  and  N_12
REMARK                            x       y       z     vdW  Elec       q    Type
REMARK                         _______ _______ _______ _____ _____    ______ ____
ROOT
ATOM      1  N   UNL     1       1.092   1.969   0.002  0.00  0.00    -0.217 N 
ATOM      2  C   UNL     1       0.786   3.282   0.012  0.00  0.00    +0.247 C 
ATOM      3  O   UNL     1       1.549   4.209  -0.144  0.00  0.00    -0.273 OA
ATOM      4  C   UNL     1      -0.716   3.356   0.198  0.00  0.00    +0.113 C 
ATOM      5  C   UNL     1      -1.312   4.268  -0.861  0.00  0.00    +0.035 C 
ATOM      6  C   UNL     1      -2.268   5.313  -0.307  0.00  0.00    +0.003 C 
ATOM      7  C   UNL     1      -1.623   6.700  -0.386  0.00  0.00    +0.000 C 
ATOM      8  C   UNL     1      -0.426   6.771   0.565  0.00  0.00    +0.000 C 
ATOM      9  C   UNL     1      -0.815   6.226   1.938  0.00  0.00    +0.000 C 
ATOM     10  C   UNL     1      -0.173   4.853   2.154  0.00  0.00    +0.003 C 
ATOM     11  C   UNL     1      -1.074   3.745   1.624  0.00  0.00    +0.035 C 
ATOM     12  N   UNL     1      -1.140   1.956  -0.021  0.00  0.00    -0.285 N 
ATOM     13  C   UNL     1      -0.014   1.213   0.009  0.00  0.00    +0.310 C 
ATOM     14  O   UNL     1       0.002  -0.004   0.002  0.00  0.00    -0.252 OA
ATOM     15  H   UNL     1      -2.049   1.653  -0.142  0.00  0.00    +0.151 HD
ENDROOT
BRANCH   1  16
ATOM     16  C   UNL     1       2.449   1.430  -0.014  0.00  0.00    +0.197 C 
BRANCH  16  17
ATOM     17  C   UNL     1       2.902   1.254  -1.441  0.00  0.00    +0.181 C 
ATOM     18  O   UNL     1       2.161   1.550  -2.353  0.00  0.00    -0.290 OA
BRANCH  17  23
ATOM     19  C   UNL     1       8.145  -0.825  -2.555  0.00  0.00    +0.044 C 
ATOM     20  C   UNL     1       6.770  -0.280  -2.263  0.00  0.00    -0.047 A 
ATOM     21  C   UNL     1       6.358  -0.120  -0.951  0.00  0.00    +0.004 A 
ATOM     22  C   UNL     1       5.104   0.384  -0.676  0.00  0.00    +0.012 A 
ATOM     23  C   UNL     1       4.244   0.721  -1.726  0.00  0.00    +0.019 A 
ATOM     24  C   UNL     1       4.668   0.556  -3.048  0.00  0.00    +0.015 A 
ATOM     25  C   UNL     1       5.927   0.057  -3.307  0.00  0.00    -0.047 A 
ATOM     26  C   UNL     1       6.386  -0.123  -4.731  0.00  0.00    +0.044 C 
ENDBRANCH  17  23
ENDBRANCH  16  17
ENDBRANCH   1  16
TORSDOF 3
