REMARK  Name = ZINC06435739
REMARK  5 active torsions:
REMARK  status: ('A' for Active; 'I' for Inactive)
REMARK    1  A    between atoms: C_1  and  C_2
REMARK    2  A    between atoms: C_7  and  N_12
REMARK    3  A    between atoms: C_9  and  C_11
REMARK    4  A    between atoms: C_13  and  C_15
REMARK    5  A    between atoms: N_24  and  C_26
REMARK                            x       y       z     vdW  Elec       q    Type
REMARK                         _______ _______ _______ _____ _____    ______ ____
ROOT
ATOM      1  N   UNL     1       2.116  -0.004   1.231  0.00  0.00    -0.307 N 
ATOM      2  C   UNL     1       2.795   0.128   2.388  0.00  0.00    +0.265 C 
ATOM      3  O   UNL     1       2.266  -0.174   3.441  0.00  0.00    -0.268 OA
ATOM      4  H   UNL     1       2.538   0.237   0.392  0.00  0.00    +0.149 HD
ENDROOT
BRANCH   2   5
ATOM      5  C   UNL     1       4.180   0.639   2.378  0.00  0.00    +0.154 A 
ATOM      6  C   UNL     1       4.929   0.786   3.636  0.00  0.00    +0.020 A 
ATOM      7  C   UNL     1       4.390   0.461   4.876  0.00  0.00    +0.011 A 
ATOM      8  C   UNL     1       5.155   0.626   6.011  0.00  0.00    +0.001 A 
ATOM      9  C   UNL     1       6.453   1.112   5.929  0.00  0.00    +0.001 A 
ATOM     10  C   UNL     1       7.007   1.441   4.710  0.00  0.00    +0.014 A 
ATOM     11  C   UNL     1       6.251   1.281   3.553  0.00  0.00    +0.050 A 
ATOM     12  C   UNL     1       6.763   1.605   2.214  0.00  0.00    +0.275 A 
ATOM     13  O   UNL     1       7.892   2.035   2.066  0.00  0.00    -0.266 OA
ATOM     14  N   UNL     1       5.952   1.415   1.153  0.00  0.00    -0.231 N 
ATOM     15  N   UNL     1       4.759   0.962   1.247  0.00  0.00    -0.163 NA
ATOM     16  C   UNL     1       6.466   1.740  -0.180  0.00  0.00    +0.176 C 
ENDBRANCH   2   5
BRANCH   1  22
ATOM     17  C   UNL     1      -2.173  -0.027  -1.227  0.00  0.00    +0.008 C 
ATOM     18  C   UNL     1      -1.433  -0.534   0.013  0.00  0.00    -0.009 C 
ATOM     19  C   UNL     1      -1.413  -2.063   0.004  0.00  0.00    +0.003 C 
ATOM     20  C   UNL     1      -0.673  -2.570   1.244  0.00  0.00    +0.002 C 
ATOM     21  C   UNL     1       0.763  -2.041   1.233  0.00  0.00    +0.022 C 
ATOM     22  C   UNL     1       0.742  -0.511   1.242  0.00  0.00    +0.076 C 
ATOM     23  C   UNL     1       0.002  -0.004   0.002  0.00  0.00    +0.009 C 
ATOM     24  C   UNL     1      -0.019   1.526   0.010  0.00  0.00    +0.009 C 
ENDBRANCH   1  22
TORSDOF 2
