REMARK  Name = ZINC63271243
REMARK  10 active torsions:
REMARK  status: ('A' for Active; 'I' for Inactive)
REMARK    1  A    between atoms: C_1  and  C_2
REMARK    2  A    between atoms: C_2  and  C_3
REMARK    3  A    between atoms: C_3  and  C_5
REMARK    4  A    between atoms: C_3  and  C_6
REMARK    5  A    between atoms: C_6  and  C_8
REMARK    6  A    between atoms: C_6  and  N_12
REMARK    7  A    between atoms: C_8  and  O_10
REMARK    8  A    between atoms: O_10  and  C_11
REMARK    9  A    between atoms: C_21  and  O_29
REMARK   10  A    between atoms: O_29  and  C_30
REMARK                            x       y       z     vdW  Elec       q    Type
REMARK                         _______ _______ _______ _____ _____    ______ ____
ROOT
ATOM      1  N   UNL     1       1.636  -2.484  -2.350  0.00  0.00    -0.286 N 
ATOM      2  C   UNL     1       2.309  -3.650  -2.279  0.00  0.00    +0.303 C 
ATOM      3  O   UNL     1       2.336  -4.273  -1.236  0.00  0.00    -0.253 OA
ATOM      4  N   UNL     1       2.952  -4.124  -3.365  0.00  0.00    -0.283 N 
ATOM      5  C   UNL     1       3.016  -3.310  -4.583  0.00  0.00    +0.114 C 
ATOM      6  C   UNL     1       2.403  -4.096  -5.757  0.00  0.00    +0.052 C 
ATOM      7  C   UNL     1       2.969  -5.492  -5.685  0.00  0.00    -0.035 C 
ATOM      8  C   UNL     1       3.571  -6.243  -6.598  0.00  0.00    +0.003 A 
ATOM      9  C   UNL     1       3.813  -6.039  -8.034  0.00  0.00    +0.055 A 
ATOM     10  C   UNL     1       4.495  -7.022  -8.684  0.00  0.00    +0.121 A 
ATOM     11  C   UNL     1       4.965  -8.191  -8.067  0.00  0.00    +0.047 A 
ATOM     12  C   UNL     1       4.791  -8.483  -6.753  0.00  0.00    +0.029 A 
ATOM     13  C   UNL     1       4.059  -7.498  -5.945  0.00  0.00    +0.043 A 
ATOM     14  N   UNL     1       3.727  -7.517  -4.690  0.00  0.00    -0.376 N 
ATOM     15  C   UNL     1       2.939  -6.317  -4.403  0.00  0.00    +0.124 C 
ATOM     16  C   UNL     1       3.588  -5.450  -3.312  0.00  0.00    +0.138 C 
ATOM     17  H   UNL     1       1.675  -1.950  -3.159  0.00  0.00    +0.151 HD
ATOM     18  H   UNL     1       3.962  -8.208  -4.051  0.00  0.00    +0.160 HD
ENDROOT
BRANCH  10  19
ATOM     19  O   UNL     1       4.733  -6.862 -10.013  0.00  0.00    -0.495 OA
ATOM     20  C   UNL     1       5.450  -7.907 -10.674  0.00  0.00    +0.277 C 
ENDBRANCH  10  19
BRANCH   1  21
ATOM     21  C   UNL     1       0.846  -2.023  -1.206  0.00  0.00    +0.186 C 
BRANCH  21  22
ATOM     22  C   UNL     1       0.711  -0.500  -1.259  0.00  0.00    +0.017 C 
ATOM     23  C   UNL     1      -0.098  -0.103  -2.496  0.00  0.00    +0.010 C 
BRANCH  22  25
ATOM     24  C   UNL     1      -0.030   1.522   0.006  0.00  0.00    +0.004 C 
ATOM     25  C   UNL     1      -0.006  -0.007  -0.001  0.00  0.00    +0.002 C 
ENDBRANCH  22  25
ENDBRANCH  21  22
BRANCH  21  26
ATOM     26  C   UNL     1      -0.524  -2.651  -1.256  0.00  0.00    +0.328 C 
ATOM     27  O   UNL     1      -0.810  -3.405  -2.155  0.00  0.00    -0.249 OA
BRANCH  26  28
ATOM     28  O   UNL     1      -1.425  -2.371  -0.301  0.00  0.00    -0.467 OA
ATOM     29  C   UNL     1      -2.703  -3.001  -0.411  0.00  0.00    +0.280 C 
ENDBRANCH  26  28
ENDBRANCH  21  26
ENDBRANCH   1  21
TORSDOF 6
