REMARK  Name = ZINC04852928
REMARK  5 active torsions:
REMARK  status: ('A' for Active; 'I' for Inactive)
REMARK    1  A    between atoms: C_1  and  C_2
REMARK    2  A    between atoms: C_2  and  O_3
REMARK    3  A    between atoms: O_3  and  C_4
REMARK    4  A    between atoms: C_8  and  N_10
REMARK    5  A    between atoms: C_14  and  C_23
REMARK                            x       y       z     vdW  Elec       q    Type
REMARK                         _______ _______ _______ _____ _____    ______ ____
ROOT
ATOM      1  C   UNL     1       3.983  -0.255   1.312  0.00  0.00    +0.123 A 
ATOM      2  C   UNL     1       2.942   0.189   0.516  0.00  0.00    +0.051 A 
ATOM      3  C   UNL     1       2.085   1.185   0.963  0.00  0.00    -0.014 A 
ATOM      4  C   UNL     1       2.280   1.736   2.218  0.00  0.00    +0.062 A 
ATOM      5  C   UNL     1       3.328   1.288   3.019  0.00  0.00    +0.151 A 
ATOM      6  C   UNL     1       4.176   0.297   2.570  0.00  0.00    +0.080 A 
ATOM      7  N   UNL     1       1.454   2.743   2.724  0.00  0.00    -0.335 N 
ATOM      8  C   UNL     1       0.116   2.709   2.133  0.00  0.00    +0.106 C 
ATOM      9  C   UNL     1       0.227   2.847   0.613  0.00  0.00    +0.029 C 
ATOM     10  C   UNL     1       0.974   1.618   0.052  0.00  0.00    +0.049 C 
ATOM     11  C   UNL     1      -0.089   0.548  -0.037  0.00  0.00    -0.023 C 
ATOM     12  C   UNL     1      -1.282   1.087  -0.063  0.00  0.00    -0.030 C 
ATOM     13  C   UNL     1      -1.184   2.599   0.008  0.00  0.00    +0.033 C 
ATOM     14  H   UNL     1       1.406   2.700   3.731  0.00  0.00    +0.147 HD
ENDROOT
BRANCH   8  15
ATOM     15  C   UNL     1      -0.706   3.846   2.682  0.00  0.00    -0.009 A 
ATOM     16  C   UNL     1      -1.997   3.618   3.120  0.00  0.00    +0.007 A 
ATOM     17  C   UNL     1      -2.751   4.661   3.624  0.00  0.00    +0.000 A 
ATOM     18  C   UNL     1      -2.214   5.934   3.690  0.00  0.00    +0.001 A 
ATOM     19  C   UNL     1      -0.923   6.163   3.253  0.00  0.00    +0.020 A 
ATOM     20  C   UNL     1      -0.167   5.118   2.753  0.00  0.00    +0.046 A 
ATOM     21 CL   UNL     1       1.457   5.404   2.210  0.00  0.00    -0.083 Cl
ENDBRANCH   8  15
BRANCH   5  22
ATOM     22  N   UNL     1       3.533   1.878   4.361  0.00  0.00    +0.058 N 
ATOM     23  O   UNL     1       3.339   3.067   4.539  0.00  0.00    -0.126 OA
ATOM     24  O   UNL     1       3.894   1.174   5.287  0.00  0.00    -0.126 OA
ENDBRANCH   5  22
BRANCH   1  25
ATOM     25  O   UNL     1       4.816  -1.231   0.862  0.00  0.00    -0.492 OA
BRANCH  25  27
ATOM     26  C   UNL     1       6.694  -2.739   1.065  0.00  0.00    +0.048 C 
ATOM     27  C   UNL     1       5.869  -1.641   1.738  0.00  0.00    +0.225 C 
ENDBRANCH  25  27
ENDBRANCH   1  25
TORSDOF 4
