REMARK  Name = ZINC40410332
REMARK  6 active torsions:
REMARK  status: ('A' for Active; 'I' for Inactive)
REMARK    1  A    between atoms: C_3  and  C_8
REMARK    2  A    between atoms: C_5  and  O_7
REMARK    3  A    between atoms: N_18  and  C_19
REMARK    4  A    between atoms: C_19  and  C_20
REMARK    5  A    between atoms: C_24  and  O_27
REMARK    6  A    between atoms: C_25  and  O_26
REMARK                            x       y       z     vdW  Elec       q    Type
REMARK                         _______ _______ _______ _____ _____    ______ ____
ROOT
ATOM      1  C   UNL     1       3.790   2.150   0.079  0.00  0.00    +0.011 C 
ATOM      2  C   UNL     1       4.142   2.445  -1.359  0.00  0.00    +0.009 A 
ATOM      3  C   UNL     1       3.954   1.623  -2.410  0.00  0.00    +0.021 A 
ATOM      4  C   UNL     1       4.436   2.286  -3.556  0.00  0.00    +0.019 A 
ATOM      5  C   UNL     1       4.897   3.490  -3.163  0.00  0.00    +0.086 A 
ATOM      6  N   UNL     1       4.712   3.599  -1.818  0.00  0.00    -0.352 N 
ATOM      7  C   UNL     1       5.048   4.757  -0.983  0.00  0.00    +0.119 C 
ATOM      8  C   UNL     1       5.770   4.270   0.277  0.00  0.00    +0.003 C 
ATOM      9  C   UNL     1       4.750   3.943   1.361  0.00  0.00    -0.075 C 
ATOM     10  N   UNL     1       3.515   3.412   0.780  0.00  0.00    +0.391 N 
ATOM     11  H   UNL     1       3.138   4.082   0.127  0.00  0.00    -0.080 HD
ENDROOT
BRANCH   1  14
ATOM     12  C   UNL     1       0.247   0.917  -0.359  0.00  0.00    +0.004 A 
ATOM     13  C   UNL     1       1.371   1.722  -0.402  0.00  0.00    +0.002 A 
ATOM     14  C   UNL     1       2.567   1.271   0.127  0.00  0.00    -0.052 A 
ATOM     15  C   UNL     1       2.642   0.015   0.698  0.00  0.00    +0.047 A 
ATOM     16  C   UNL     1       1.516  -0.793   0.742  0.00  0.00    +0.117 A 
ATOM     17  C   UNL     1       0.317  -0.339   0.212  0.00  0.00    +0.045 A 
BRANCH  16  18
ATOM     18  O   UNL     1       1.586  -2.029   1.304  0.00  0.00    -0.507 OA
ATOM     19  H   UNL     1       1.390  -2.042   2.251  0.00  0.00    +0.292 HD
ENDBRANCH  16  18
ENDBRANCH   1  14
BRANCH  10  20
ATOM     20  C   UNL     1       2.537   3.172   1.849  0.00  0.00    -0.038 C 
BRANCH  20  21
ATOM     21  C   UNL     1       2.190   4.479   2.515  0.00  0.00    -0.019 A 
ATOM     22  C   UNL     1       2.785   4.822   3.716  0.00  0.00    +0.005 A 
ATOM     23  C   UNL     1       2.470   6.019   4.330  0.00  0.00    +0.004 A 
ATOM     24  C   UNL     1       1.558   6.879   3.747  0.00  0.00    +0.049 A 
ATOM     25  C   UNL     1       0.958   6.542   2.544  0.00  0.00    +0.158 A 
ATOM     26  C   UNL     1       1.280   5.339   1.923  0.00  0.00    +0.160 A 
BRANCH  26  27
ATOM     27  O   UNL     1       0.699   5.006   0.740  0.00  0.00    -0.503 OA
ATOM     28  H   UNL     1      -0.128   4.513   0.833  0.00  0.00    +0.292 HD
ENDBRANCH  26  27
BRANCH  25  29
ATOM     29  O   UNL     1       0.061   7.387   1.970  0.00  0.00    -0.503 OA
ATOM     30  H   UNL     1       0.457   8.029   1.365  0.00  0.00    +0.292 HD
ENDBRANCH  25  29
ENDBRANCH  20  21
ENDBRANCH  10  20
TORSDOF 6
