REMARK  Name = ZINC12530226
REMARK  8 active torsions:
REMARK  status: ('A' for Active; 'I' for Inactive)
REMARK    1  A    between atoms: C_1  and  C_2
REMARK    2  A    between atoms: C_2  and  C_3
REMARK    3  A    between atoms: C_2  and  N_4
REMARK    4  A    between atoms: C_5  and  C_7
REMARK    5  A    between atoms: N_17  and  C_18
REMARK    6  A    between atoms: C_18  and  C_19
REMARK    7  A    between atoms: C_23  and  O_25
REMARK    8  A    between atoms: O_25  and  C_26
REMARK                            x       y       z     vdW  Elec       q    Type
REMARK                         _______ _______ _______ _____ _____    ______ ____
ROOT
ATOM      1  C   UNL     1       2.734  -1.185  -2.223  0.00  0.00    +0.149 C 
ATOM      2  C   UNL     1       2.406  -2.658  -2.511  0.00  0.00    +0.083 C 
ATOM      3  C   UNL     1       3.175  -3.070  -3.740  0.00  0.00    +0.040 A 
ATOM      4  C   UNL     1       4.211  -2.362  -4.244  0.00  0.00    +0.051 A 
ATOM      5  N   UNL     1       4.657  -3.000  -5.327  0.00  0.00    -0.349 N 
ATOM      6  C   UNL     1       3.940  -4.079  -5.514  0.00  0.00    +0.171 A 
ATOM      7  N   UNL     1       3.003  -4.154  -4.539  0.00  0.00    -0.349 N 
ATOM      8  H   UNL     1       2.337  -4.851  -4.432  0.00  0.00    +0.166 HD
ATOM      9  C   UNL     1       4.717  -1.081  -3.628  0.00  0.00    +0.140 C 
ATOM     10  N   UNL     1       4.190  -0.990  -2.255  0.00  0.00    -0.281 NA
ATOM     11  H   UNL     1       5.395  -2.712  -5.886  0.00  0.00    +0.166 HD
ENDROOT
BRANCH   1  13
ATOM     12  N   UNL     1       1.009  -0.205  -0.746  0.00  0.00    -0.312 N 
ATOM     13  C   UNL     1       2.207  -0.811  -0.862  0.00  0.00    +0.231 C 
ATOM     14  O   UNL     1       2.861  -1.055   0.130  0.00  0.00    -0.274 OA
ATOM     15  H   UNL     1       0.485  -0.009  -1.539  0.00  0.00    +0.149 HD
BRANCH  12  17
ATOM     16  C   UNL     1       1.061   1.522   0.986  0.00  0.00    +0.027 C 
ATOM     17  C   UNL     1       0.497   0.159   0.577  0.00  0.00    +0.067 C 
ATOM     18  C   UNL     1      -1.031   0.233   0.531  0.00  0.00    +0.027 C 
ENDBRANCH  12  17
ENDBRANCH   1  13
BRANCH  10  19
ATOM     19  C   UNL     1       4.564   0.287  -1.633  0.00  0.00    +0.120 C 
BRANCH  19  20
ATOM     20  C   UNL     1       6.040   0.286  -1.332  0.00  0.00    -0.030 A 
ATOM     21  C   UNL     1       6.497  -0.183  -0.114  0.00  0.00    +0.005 A 
ATOM     22  C   UNL     1       7.851  -0.185   0.165  0.00  0.00    +0.004 A 
ATOM     23  C   UNL     1       8.752   0.283  -0.773  0.00  0.00    +0.046 A 
ATOM     24  C   UNL     1       8.296   0.754  -1.996  0.00  0.00    +0.130 A 
ATOM     25  C   UNL     1       6.937   0.749  -2.276  0.00  0.00    +0.051 A 
BRANCH  24  26
ATOM     26  O   UNL     1       9.179   1.214  -2.920  0.00  0.00    -0.406 OA
BRANCH  26  27
ATOM     27  C   UNL     1      10.563   1.183  -2.566  0.00  0.00    +0.575 C 
ATOM     28  F   UNL     1      10.948  -0.135  -2.302  0.00  0.00    -0.133 F 
ATOM     29  F   UNL     1      11.326   1.689  -3.624  0.00  0.00    -0.133 F 
ATOM     30  F   UNL     1      10.770   1.967  -1.426  0.00  0.00    -0.133 F 
ENDBRANCH  26  27
ENDBRANCH  24  26
ENDBRANCH  19  20
ENDBRANCH  10  19
TORSDOF 6
