REMARK  Name = ZINC66281175
REMARK  5 active torsions:
REMARK  status: ('A' for Active; 'I' for Inactive)
REMARK    1  A    between atoms: C_1  and  C_2
REMARK    2  A    between atoms: C_14  and  C_15
REMARK    3  A    between atoms: C_15  and  O_17
REMARK    4  A    between atoms: O_17  and  C_18
REMARK    5  A    between atoms: C_24  and  C_26
REMARK                            x       y       z     vdW  Elec       q    Type
REMARK                         _______ _______ _______ _____ _____    ______ ____
ROOT
ATOM      1  C   UNL     1      -0.018   1.503   0.010  0.00  0.00    +0.046 C 
ATOM      2  C   UNL     1       0.002  -0.004   0.002  0.00  0.00    -0.015 A 
ATOM      3  C   UNL     1       0.005  -0.697  -1.210  0.00  0.00    +0.076 A 
ATOM      4  C   UNL     1       0.025  -2.108  -1.113  0.00  0.00    +0.116 A 
ATOM      5  N   UNL     1       0.029  -2.877  -2.190  0.00  0.00    -0.226 NA
ATOM      6  C   UNL     1       0.015  -2.383  -3.404  0.00  0.00    +0.114 A 
ATOM      7  N   UNL     1      -0.007  -1.045  -3.625  0.00  0.00    -0.296 N 
ATOM      8  C   UNL     1      -0.009  -0.170  -2.591  0.00  0.00    +0.263 A 
ATOM      9  O   UNL     1      -0.023   1.030  -2.796  0.00  0.00    -0.267 OA
ATOM     10  C   UNL     1      -0.029  -0.753  -5.070  0.00  0.00    +0.127 C 
ATOM     11  C   UNL     1       0.429  -2.053  -5.763  0.00  0.00    +0.029 C 
ATOM     12  C   UNL     1       0.020  -3.124  -4.729  0.00  0.00    +0.076 C 
ATOM     13  S   UNL     1       0.039  -2.395   0.639  0.00  0.00    -0.062 S 
ATOM     14  C   UNL     1       0.023  -0.694   1.179  0.00  0.00    +0.102 A 
ENDROOT
BRANCH  14  15
ATOM     15  C   UNL     1       0.029  -0.170   2.547  0.00  0.00    +0.346 C 
ATOM     16  O   UNL     1       0.014   1.032   2.737  0.00  0.00    -0.244 OA
BRANCH  15  17
ATOM     17  O   UNL     1       0.051  -1.019   3.595  0.00  0.00    -0.457 OA
BRANCH  17  18
ATOM     18  C   UNL     1       0.056  -0.438   4.900  0.00  0.00    +0.180 C 
ATOM     19  C   UNL     1      -1.385  -0.250   5.380  0.00  0.00    +0.045 C 
ATOM     20  C   UNL     1      -2.087  -1.609   5.429  0.00  0.00    +0.004 C 
ATOM     21  C   UNL     1      -1.343  -2.532   6.396  0.00  0.00    +0.000 C 
ATOM     22  C   UNL     1       0.097  -2.720   5.916  0.00  0.00    +0.007 C 
ATOM     23  C   UNL     1       0.799  -1.361   5.867  0.00  0.00    +0.027 C 
ATOM     24  C   UNL     1       2.240  -1.549   5.387  0.00  0.00    +0.011 C 
ENDBRANCH  17  18
ENDBRANCH  15  17
ENDBRANCH  14  15
TORSDOF 3
