REMARK  Name = ZINC66679959
REMARK  7 active torsions:
REMARK  status: ('A' for Active; 'I' for Inactive)
REMARK    1  A    between atoms: C_1  and  C_2
REMARK    2  A    between atoms: C_3  and  C_7
REMARK    3  A    between atoms: C_7  and  N_8
REMARK    4  A    between atoms: N_8  and  C_9
REMARK    5  A    between atoms: N_12  and  C_13
REMARK    6  A    between atoms: N_21  and  S_23
REMARK    7  A    between atoms: S_23  and  C_26
REMARK                            x       y       z     vdW  Elec       q    Type
REMARK                         _______ _______ _______ _____ _____    ______ ____
ROOT
ATOM      1  C   UNL     1       3.909   2.549  -3.248  0.00  0.00    +0.038 A 
ATOM      2  C   UNL     1       3.291   3.624  -2.630  0.00  0.00    +0.023 A 
ATOM      3  C   UNL     1       3.937   4.842  -2.565  0.00  0.00    +0.002 A 
ATOM      4  C   UNL     1       5.193   4.983  -3.121  0.00  0.00    +0.005 A 
ATOM      5  C   UNL     1       5.816   3.910  -3.744  0.00  0.00    -0.027 A 
ATOM      6  C   UNL     1       5.184   2.688  -3.799  0.00  0.00    -0.020 A 
ATOM      7  C   UNL     1       5.811   1.471  -4.426  0.00  0.00    +0.054 C 
ATOM      8  C   UNL     1       6.936   1.869  -5.380  0.00  0.00    +0.114 C 
ATOM      9  N   UNL     1       7.791   2.849  -4.690  0.00  0.00    -0.177 NA
ATOM     10  C   UNL     1       7.180   4.140  -4.343  0.00  0.00    +0.144 C 
ENDROOT
BRANCH   1  15
ATOM     11  N   UNL     1       1.294   0.083  -3.621  0.00  0.00    -0.284 N 
ATOM     12  C   UNL     1       2.075  -1.157  -3.630  0.00  0.00    +0.134 C 
ATOM     13  C   UNL     1       1.915   1.269  -3.464  0.00  0.00    +0.307 C 
ATOM     14  O   UNL     1       1.268   2.298  -3.456  0.00  0.00    -0.252 OA
ATOM     15  N   UNL     1       3.254   1.314  -3.316  0.00  0.00    -0.269 N 
ATOM     16  H   UNL     1       3.764   0.491  -3.257  0.00  0.00    +0.156 HD
BRANCH  11  17
ATOM     17  C   UNL     1      -0.161   0.034  -3.781  0.00  0.00    +0.153 C 
BRANCH  17  20
ATOM     18  C   UNL     1      -1.079   2.343  -1.909  0.00  0.00    +0.066 C 
ATOM     19  C   UNL     1      -1.230   0.881  -1.575  0.00  0.00    +0.050 A 
ATOM     20  C   UNL     1      -0.812  -0.089  -2.428  0.00  0.00    +0.029 A 
ATOM     21  S   UNL     1      -1.248  -1.552  -1.501  0.00  0.00    -0.079 S 
ATOM     22  C   UNL     1      -1.902  -0.785  -0.153  0.00  0.00    +0.156 A 
ATOM     23  N   UNL     1      -1.768   0.486  -0.439  0.00  0.00    -0.252 NA
ENDBRANCH  17  20
ENDBRANCH  11  17
ENDBRANCH   1  15
BRANCH   9  24
ATOM     24  S   UNL     1       9.371   2.511  -4.330  0.00  0.00    +0.029 S 
ATOM     25  O   UNL     1       9.669   3.326  -3.204  0.00  0.00    -0.158 OA
ATOM     26  O   UNL     1       9.427   1.095  -4.234  0.00  0.00    -0.158 OA
ATOM     27  C   UNL     1      10.309   3.076  -5.776  0.00  0.00    +0.215 C 
ENDBRANCH   9  24
TORSDOF 4
