REMARK  Name = ZINC53713877
REMARK  2 active torsions:
REMARK  status: ('A' for Active; 'I' for Inactive)
REMARK    1  A    between atoms: C_6  and  C_7
REMARK    2  A    between atoms: C_7  and  C_9
REMARK                            x       y       z     vdW  Elec       q    Type
REMARK                         _______ _______ _______ _____ _____    ______ ____
ROOT
ATOM      1  C   UNL     1      -0.017   1.397   0.010  0.00  0.00    +0.013 A 
ATOM      2  C   UNL     1       1.167   2.081   0.002  0.00  0.00    +0.024 A 
ATOM      3  C   UNL     1       2.407   1.412  -0.018  0.00  0.00    +0.037 A 
ATOM      4  C   UNL     1       2.422   0.029  -0.030  0.00  0.00    -0.025 A 
ATOM      5  C   UNL     1       1.229  -0.665  -0.017  0.00  0.00    +0.016 A 
ATOM      6  C   UNL     1       0.002  -0.004   0.002  0.00  0.00    +0.018 A 
ATOM      7  C   UNL     1       3.653  -0.818  -0.066  0.00  0.00    +0.037 C 
ATOM      8  C   UNL     1       4.793  -0.276  -0.870  0.00  0.00    +0.014 C 
ATOM      9  C   UNL     1       5.557   0.821  -0.168  0.00  0.00    +0.096 C 
ATOM     10  C   UNL     1       4.791   2.095  -0.134  0.00  0.00    +0.217 C 
ATOM     11  O   UNL     1       5.438   3.116  -0.238  0.00  0.00    -0.275 OA
ATOM     12  N   UNL     1       3.503   2.235  -0.006  0.00  0.00    -0.285 N 
ATOM     13  H   UNL     1       3.254   3.162   0.134  0.00  0.00    +0.155 HD
ENDROOT
BRANCH   6  14
ATOM     14  C   UNL     1      -1.253  -0.766   0.015  0.00  0.00    +0.166 C 
ATOM     15  O   UNL     1      -1.227  -1.978   0.008  0.00  0.00    -0.292 OA
BRANCH  14  16
ATOM     16  C   UNL     1      -2.574  -0.041   0.036  0.00  0.00    +0.060 C 
ATOM     17  C   UNL     1      -3.048   0.189  -1.374  0.00  0.00    +0.011 C 
ATOM     18  C   UNL     1      -3.819   1.514  -1.528  0.00  0.00    +0.001 C 
ATOM     19  C   UNL     1      -4.786   1.782  -0.358  0.00  0.00    +0.000 C 
ATOM     20  C   UNL     1      -5.529   0.546   0.069  0.00  0.00    +0.000 C 
ATOM     21  C   UNL     1      -4.759  -0.112   1.233  0.00  0.00    +0.001 C 
ATOM     22  C   UNL     1      -3.624  -0.898   0.772  0.00  0.00    +0.011 C 
ENDBRANCH  14  16
ENDBRANCH   6  14
TORSDOF 2
