REMARK  Name = ZINC62478513
REMARK  10 active torsions:
REMARK  status: ('A' for Active; 'I' for Inactive)
REMARK    1  A    between atoms: C_1  and  N_2
REMARK    2  A    between atoms: N_2  and  C_3
REMARK    3  A    between atoms: N_2  and  C_4
REMARK    4  A    between atoms: C_4  and  C_5
REMARK    5  A    between atoms: C_5  and  N_6
REMARK    6  A    between atoms: N_6  and  C_7
REMARK    7  A    between atoms: C_7  and  C_8
REMARK    8  A    between atoms: N_17  and  C_18
REMARK    9  A    between atoms: C_18  and  C_19
REMARK   10  A    between atoms: C_24  and  N_25
REMARK                            x       y       z     vdW  Elec       q    Type
REMARK                         _______ _______ _______ _____ _____    ______ ____
ROOT
ATOM      1  N   UNL     1      -2.733  -2.544  -0.111  0.00  0.00    -0.283 N 
ATOM      2  C   UNL     1      -3.319  -2.879   1.055  0.00  0.00    +0.303 C 
ATOM      3  O   UNL     1      -4.459  -3.299   1.064  0.00  0.00    -0.253 OA
ATOM      4  N   UNL     1      -2.640  -2.747   2.212  0.00  0.00    -0.295 N 
ATOM      5  H   UNL     1      -1.730  -2.411   2.205  0.00  0.00    +0.151 HD
ENDROOT
BRANCH   1   6
ATOM      6  C   UNL     1      -1.358  -2.037  -0.122  0.00  0.00    +0.091 C 
BRANCH   6   7
ATOM      7  C   UNL     1      -1.376  -0.512   0.012  0.00  0.00    -0.060 C 
BRANCH   7   9
ATOM      8  C   UNL     1      -0.018   1.465   0.010  0.00  0.00    -0.097 C 
ATOM      9  N   UNL     1       0.002  -0.004   0.002  0.00  0.00    +0.377 N 
ATOM     10  C   UNL     1       0.713  -0.491   1.192  0.00  0.00    -0.097 C 
ATOM     11  H   UNL     1       0.474  -0.330  -0.828  0.00  0.00    -0.083 HD
ENDBRANCH   7   9
ENDBRANCH   6   7
ENDBRANCH   1   6
BRANCH   1  12
ATOM     12  C   UNL     1      -3.470  -2.687  -1.369  0.00  0.00    +0.144 C 
BRANCH  12  13
ATOM     13  C   UNL     1      -3.235  -4.063  -1.936  0.00  0.00    -0.030 A 
ATOM     14  C   UNL     1      -2.174  -4.284  -2.795  0.00  0.00    +0.006 A 
ATOM     15  C   UNL     1      -1.957  -5.546  -3.315  0.00  0.00    +0.020 A 
ATOM     16  C   UNL     1      -2.802  -6.588  -2.976  0.00  0.00    +0.041 A 
ATOM     17  C   UNL     1      -3.863  -6.366  -2.116  0.00  0.00    +0.020 A 
ATOM     18  C   UNL     1      -4.076  -5.105  -1.592  0.00  0.00    +0.006 A 
ATOM     19 CL   UNL     1      -2.531  -8.173  -3.630  0.00  0.00    -0.084 Cl
ENDBRANCH  12  13
ENDBRANCH   1  12
BRANCH   4  20
ATOM     20  C   UNL     1      -3.277  -3.111   3.481  0.00  0.00    +0.143 C 
BRANCH  20  21
ATOM     21  C   UNL     1      -2.313  -2.872   4.614  0.00  0.00    -0.000 A 
ATOM     22  C   UNL     1      -1.604  -3.929   5.153  0.00  0.00    +0.007 A 
ATOM     23  C   UNL     1      -0.720  -3.710   6.192  0.00  0.00    +0.000 A 
ATOM     24  C   UNL     1      -0.544  -2.433   6.692  0.00  0.00    +0.002 A 
ATOM     25  C   UNL     1      -1.252  -1.376   6.153  0.00  0.00    +0.033 A 
ATOM     26  C   UNL     1      -2.133  -1.595   5.110  0.00  0.00    +0.131 A 
BRANCH  26  27
ATOM     27  N   UNL     1      -2.888  -0.462   4.529  0.00  0.00    +0.057 N 
ATOM     28  O   UNL     1      -2.731   0.656   4.964  0.00  0.00    -0.126 OA
ATOM     29  O   UNL     1      -3.662  -0.653   3.620  0.00  0.00    -0.126 OA
ENDBRANCH  26  27
ENDBRANCH  20  21
ENDBRANCH   4  20
TORSDOF 8
