REMARK  Name = ZINC13050000
REMARK  6 active torsions:
REMARK  status: ('A' for Active; 'I' for Inactive)
REMARK    1  A    between atoms: C_1  and  C_2
REMARK    2  A    between atoms: C_2  and  C_4
REMARK    3  A    between atoms: C_2  and  O_14
REMARK    4  A    between atoms: N_6  and  C_7
REMARK    5  A    between atoms: O_14  and  C_15
REMARK    6  A    between atoms: C_24  and  C_25
REMARK                            x       y       z     vdW  Elec       q    Type
REMARK                         _______ _______ _______ _____ _____    ______ ____
ROOT
ATOM      1  O   UNL     1      -3.568  -0.745   0.011  0.00  0.00    -0.479 OA
ENDROOT
BRANCH   1   2
ATOM      2  C   UNL     1      -2.405  -0.047  -0.019  0.00  0.00    +0.136 A 
ATOM      3  C   UNL     1      -1.217  -0.716  -0.059  0.00  0.00    +0.055 A 
ATOM      4  C   UNL     1      -0.008  -0.001  -0.091  0.00  0.00    -0.014 A 
ATOM      5  C   UNL     1       1.228  -0.670  -0.132  0.00  0.00    +0.008 A 
ATOM      6  C   UNL     1       2.383   0.049  -0.162  0.00  0.00    +0.001 A 
ATOM      7  C   UNL     1       2.363   1.442  -0.153  0.00  0.00    +0.001 A 
ATOM      8  C   UNL     1       1.187   2.126  -0.114  0.00  0.00    +0.008 A 
ATOM      9  C   UNL     1      -0.029   1.418  -0.082  0.00  0.00    -0.017 A 
ATOM     10  C   UNL     1      -1.257   2.093  -0.036  0.00  0.00    +0.027 A 
ATOM     11  C   UNL     1      -2.436   1.364  -0.010  0.00  0.00    +0.105 A 
BRANCH  11  12
ATOM     12  C   UNL     1      -3.731   2.068   0.033  0.00  0.00    +0.390 C 
ATOM     13  O   UNL     1      -4.767   1.433   0.060  0.00  0.00    -0.240 OA
ATOM     14  O   UNL     1      -3.766   3.415   0.042  0.00  0.00    -0.240 OA
ENDBRANCH  11  12
ENDBRANCH   1   2
BRANCH   1  16
ATOM     15  C   UNL     1      -3.410  -2.553  -1.585  0.00  0.00    +0.062 C 
ATOM     16  C   UNL     1      -3.475  -2.166  -0.106  0.00  0.00    +0.256 C 
BRANCH  16  17
ATOM     17  C   UNL     1      -4.686  -2.802   0.527  0.00  0.00    +0.258 C 
ATOM     18  O   UNL     1      -5.587  -2.107   0.947  0.00  0.00    -0.271 OA
ATOM     19  N   UNL     1      -4.769  -4.144   0.625  0.00  0.00    -0.280 N 
ATOM     20  H   UNL     1      -4.015  -4.696   0.365  0.00  0.00    +0.155 HD
BRANCH  19  21
ATOM     21  C   UNL     1      -5.942  -4.740   1.103  0.00  0.00    +0.069 A 
ATOM     22  C   UNL     1      -7.155  -4.074   0.994  0.00  0.00    +0.026 A 
ATOM     23  C   UNL     1      -8.312  -4.667   1.460  0.00  0.00    +0.002 A 
ATOM     24  C   UNL     1      -8.262  -5.918   2.047  0.00  0.00    +0.003 A 
ATOM     25  C   UNL     1      -7.056  -6.583   2.164  0.00  0.00    +0.040 A 
ATOM     26  C   UNL     1      -5.894  -5.998   1.693  0.00  0.00    +0.144 A 
ATOM     27  F   UNL     1      -4.715  -6.647   1.807  0.00  0.00    -0.204 F 
ENDBRANCH  19  21
ENDBRANCH  16  17
ENDBRANCH   1  16
TORSDOF 5
