REMARK  Name = ZINC20243977
REMARK  7 active torsions:
REMARK  status: ('A' for Active; 'I' for Inactive)
REMARK    1  A    between atoms: C_4  and  O_7
REMARK    2  A    between atoms: O_7  and  C_8
REMARK    3  A    between atoms: C_11  and  C_14
REMARK    4  A    between atoms: N_15  and  N_16
REMARK    5  A    between atoms: C_17  and  C_19
REMARK    6  A    between atoms: C_19  and  O_20
REMARK    7  A    between atoms: O_20  and  C_21
REMARK                            x       y       z     vdW  Elec       q    Type
REMARK                         _______ _______ _______ _____ _____    ______ ____
ROOT
ATOM      1  C   UNL     1       3.062  -6.208  -0.201  0.00  0.00    +0.138 C 
ATOM      2  N   UNL     1       4.120  -6.960  -0.176  0.00  0.00    -0.188 NA
ENDROOT
BRANCH   1   6
ATOM      3  C   UNL     1       3.459  -1.983  -0.077  0.00  0.00    +0.128 A 
ATOM      4  C   UNL     1       2.196  -2.559  -0.144  0.00  0.00    +0.047 A 
ATOM      5  C   UNL     1       2.063  -3.930  -0.185  0.00  0.00    +0.013 A 
ATOM      6  C   UNL     1       3.200  -4.741  -0.158  0.00  0.00    -0.005 A 
ATOM      7  C   UNL     1       4.468  -4.158  -0.090  0.00  0.00    +0.013 A 
ATOM      8  C   UNL     1       4.592  -2.786  -0.055  0.00  0.00    +0.047 A 
BRANCH   3   9
ATOM      9  O   UNL     1       3.586  -0.632  -0.037  0.00  0.00    -0.456 OA
BRANCH   9  13
ATOM     10  C   UNL     1       3.917   1.389  -3.619  0.00  0.00    +0.000 A 
ATOM     11  C   UNL     1       3.777   0.013  -3.612  0.00  0.00    +0.004 A 
ATOM     12  C   UNL     1       3.666  -0.666  -2.415  0.00  0.00    +0.046 A 
ATOM     13  C   UNL     1       3.695   0.034  -1.217  0.00  0.00    +0.128 A 
ATOM     14  C   UNL     1       3.836   1.414  -1.226  0.00  0.00    +0.046 A 
ATOM     15  C   UNL     1       3.946   2.088  -2.426  0.00  0.00    +0.004 A 
ENDBRANCH   9  13
ENDBRANCH   3   9
ENDBRANCH   1   6
BRANCH   2  16
ATOM     16  N   UNL     1       3.989  -8.355  -0.216  0.00  0.00    -0.204 N 
ATOM     17  C   UNL     1       5.087  -9.136  -0.191  0.00  0.00    +0.270 C 
ATOM     18  O   UNL     1       6.189  -8.631  -0.132  0.00  0.00    -0.270 OA
ATOM     19  H   UNL     1       3.108  -8.758  -0.263  0.00  0.00    +0.177 HD
BRANCH  17  20
ATOM     20  C   UNL     1       4.947 -10.635  -0.234  0.00  0.00    +0.326 C 
BRANCH  20  21
ATOM     21  O   UNL     1       6.242 -11.237  -0.196  0.00  0.00    -0.481 OA
BRANCH  21  22
ATOM     22  C   UNL     1       6.294 -12.595  -0.228  0.00  0.00    +0.140 A 
ATOM     23  C   UNL     1       5.122 -13.332  -0.300  0.00  0.00    +0.048 A 
ATOM     24  C   UNL     1       5.176 -14.713  -0.333  0.00  0.00    +0.023 A 
ATOM     25  C   UNL     1       6.398 -15.360  -0.293  0.00  0.00    +0.043 A 
ATOM     26  C   UNL     1       7.569 -14.626  -0.220  0.00  0.00    +0.043 A 
ATOM     27  C   UNL     1       7.520 -13.245  -0.193  0.00  0.00    +0.084 A 
ATOM     28 CL   UNL     1       8.989 -12.325  -0.109  0.00  0.00    -0.080 Cl
ATOM     29 CL   UNL     1       6.463 -17.094  -0.333  0.00  0.00    -0.083 Cl
ENDBRANCH  21  22
ENDBRANCH  20  21
ENDBRANCH  17  20
ENDBRANCH   2  16
TORSDOF 7
