REMARK  Name = ZINC37685890
REMARK  2 active torsions:
REMARK  status: ('A' for Active; 'I' for Inactive)
REMARK    1  A    between atoms: C_6  and  S_7
REMARK    2  A    between atoms: S_7  and  C_8
REMARK                            x       y       z     vdW  Elec       q    Type
REMARK                         _______ _______ _______ _____ _____    ______ ____
ROOT
ATOM      1  C   UNL     1       0.800   0.268   0.887  0.00  0.00    +0.015 A 
ATOM      2  C   UNL     1       1.962   0.967   0.723  0.00  0.00    +0.015 A 
ATOM      3  C   UNL     1       2.331   1.418  -0.548  0.00  0.00    +0.048 A 
ATOM      4  C   UNL     1       1.512   1.157  -1.663  0.00  0.00    +0.046 A 
ATOM      5  C   UNL     1       0.338   0.448  -1.483  0.00  0.00    +0.038 A 
ATOM      6  C   UNL     1      -0.019   0.004  -0.211  0.00  0.00    +0.010 A 
ATOM      7  N   UNL     1       2.091   1.706  -2.805  0.00  0.00    -0.278 N 
ATOM      8  C   UNL     1       3.252   2.320  -2.517  0.00  0.00    +0.289 C 
ATOM      9  O   UNL     1       3.978   2.887  -3.307  0.00  0.00    -0.266 OA
ATOM     10  C   UNL     1       3.487   2.177  -1.044  0.00  0.00    +0.249 C 
ATOM     11  O   UNL     1       4.428   2.597  -0.401  0.00  0.00    -0.282 OA
ATOM     12  H   UNL     1       1.707   1.652  -3.694  0.00  0.00    +0.155 HD
ENDROOT
BRANCH   6  13
ATOM     13  S   UNL     1      -1.516  -0.899   0.012  0.00  0.00    -0.122 S 
BRANCH  13  14
ATOM     14  C   UNL     1      -2.783   0.387   0.185  0.00  0.00    +0.051 C 
ATOM     15  C   UNL     1      -2.557   1.153   1.490  0.00  0.00    +0.014 C 
ATOM     16  C   UNL     1      -3.626   2.238   1.636  0.00  0.00    +0.001 C 
ATOM     17  C   UNL     1      -5.011   1.590   1.659  0.00  0.00    +0.000 C 
ATOM     18  C   UNL     1      -5.237   0.823   0.354  0.00  0.00    +0.001 C 
ATOM     19  C   UNL     1      -4.168  -0.262   0.208  0.00  0.00    +0.014 C 
ENDBRANCH  13  14
ENDBRANCH   6  13
TORSDOF 2
