REMARK  Name = ZINC00654587
REMARK  5 active torsions:
REMARK  status: ('A' for Active; 'I' for Inactive)
REMARK    1  A    between atoms: C_1  and  C_2
REMARK    2  A    between atoms: C_2  and  C_3
REMARK    3  A    between atoms: C_15  and  C_17
REMARK    4  A    between atoms: C_21  and  N_23
REMARK    5  A    between atoms: C_29  and  C_32
REMARK                            x       y       z     vdW  Elec       q    Type
REMARK                         _______ _______ _______ _____ _____    ______ ____
ROOT
ATOM      1  C   UNL     1       3.788   0.786  -2.036  0.00  0.00    +0.220 C 
ATOM      2  O   UNL     1       3.528  -0.398  -2.013  0.00  0.00    -0.275 OA
ATOM      3  N   UNL     1       3.311   1.599  -1.072  0.00  0.00    -0.258 N 
ATOM      4  C   UNL     1       3.616   2.960  -1.108  0.00  0.00    +0.058 A 
ATOM      5  C   UNL     1       3.113   3.787  -2.099  0.00  0.00    +0.025 A 
ATOM      6  C   UNL     1       3.348   5.149  -2.032  0.00  0.00    +0.002 A 
ATOM      7  C   UNL     1       4.079   5.683  -0.986  0.00  0.00    +0.002 A 
ATOM      8  C   UNL     1       4.602   4.856  -0.006  0.00  0.00    +0.025 A 
ATOM      9  C   UNL     1       4.383   3.491  -0.082  0.00  0.00    +0.053 A 
ATOM     10  N   UNL     1       4.917   2.599   0.839  0.00  0.00    -0.316 N 
ATOM     11  C   UNL     1       4.189   1.843   1.701  0.00  0.00    +0.017 C 
ATOM     12  C   UNL     1       3.101   1.131   1.362  0.00  0.00    +0.037 C 
ATOM     13  C   UNL     1       2.490   1.047  -0.016  0.00  0.00    +0.147 C 
ATOM     14  C   UNL     1       2.417   0.368   2.339  0.00  0.00    +0.163 C 
ATOM     15  O   UNL     1       1.448  -0.283   2.002  0.00  0.00    -0.292 OA
ATOM     16  C   UNL     1       2.846   0.336   3.775  0.00  0.00    +0.088 C 
ATOM     17  C   UNL     1       3.541   1.663   4.105  0.00  0.00    +0.032 C 
ATOM     18  C   UNL     1       4.705   1.833   3.130  0.00  0.00    +0.059 C 
ATOM     19  H   UNL     1       5.882   2.510   0.869  0.00  0.00    +0.152 HD
ENDROOT
BRANCH  13  20
ATOM     20  C   UNL     1       1.175   1.783   0.000  0.00  0.00    -0.020 A 
ATOM     21  C   UNL     1       1.146   3.143   0.250  0.00  0.00    +0.006 A 
ATOM     22  C   UNL     1      -0.060   3.817   0.265  0.00  0.00    +0.003 A 
ATOM     23  C   UNL     1      -1.238   3.133   0.029  0.00  0.00    +0.033 A 
ATOM     24  C   UNL     1      -1.209   1.774  -0.224  0.00  0.00    +0.127 A 
ATOM     25  C   UNL     1      -0.003   1.099  -0.234  0.00  0.00    +0.038 A 
BRANCH  24  26
ATOM     26  N   UNL     1      -2.470   1.042  -0.481  0.00  0.00    +0.056 N 
ATOM     27  O   UNL     1      -2.444  -0.155  -0.701  0.00  0.00    -0.126 OA
ATOM     28  O   UNL     1      -3.532   1.638  -0.473  0.00  0.00    -0.126 OA
ENDBRANCH  24  26
ENDBRANCH  13  20
BRANCH  17  29
ATOM     29  C   UNL     1       4.060   1.631   5.519  0.00  0.00    -0.044 A 
ATOM     30  C   UNL     1       4.979   0.670   5.896  0.00  0.00    +0.004 A 
ATOM     31  C   UNL     1       5.459   0.643   7.192  0.00  0.00    +0.000 A 
ATOM     32  C   UNL     1       5.011   1.570   8.114  0.00  0.00    +0.000 A 
ATOM     33  C   UNL     1       4.087   2.528   7.739  0.00  0.00    +0.000 A 
ATOM     34  C   UNL     1       3.612   2.558   6.441  0.00  0.00    +0.004 A 
ENDBRANCH  17  29
BRANCH   1  36
ATOM     35  C   UNL     1       5.049   0.224  -4.095  0.00  0.00    +0.013 C 
ATOM     36  C   UNL     1       4.644   1.349  -3.141  0.00  0.00    +0.093 C 
ENDBRANCH   1  36
TORSDOF 4
