REMARK  Name = ZINC03076270
REMARK  3 active torsions:
REMARK  status: ('A' for Active; 'I' for Inactive)
REMARK    1  A    between atoms: C_3  and  N_19
REMARK    2  A    between atoms: C_6  and  C_7
REMARK    3  A    between atoms: N_9  and  C_10
REMARK                            x       y       z     vdW  Elec       q    Type
REMARK                         _______ _______ _______ _____ _____    ______ ____
ROOT
ATOM      1  C   UNL     1      -3.601   1.692   0.130  0.00  0.00    +0.248 C 
ATOM      2  O   UNL     1      -3.621   2.907   0.137  0.00  0.00    -0.270 OA
ATOM      3  N   UNL     1      -2.428   1.038   0.019  0.00  0.00    -0.281 N 
ATOM      4  H   UNL     1      -2.415  -0.058  -0.074  0.00  0.00    +0.155 HD
ENDROOT
BRANCH   3   5
ATOM      5  C   UNL     1      -1.224   1.753   0.023  0.00  0.00    +0.036 A 
ATOM      6  C   UNL     1      -1.107   2.912   0.780  0.00  0.00    +0.042 A 
ATOM      7  C   UNL     1       0.082   3.614   0.789  0.00  0.00    +0.067 A 
ATOM      8  C   UNL     1       1.158   3.166   0.036  0.00  0.00    +0.207 A 
ATOM      9  C   UNL     1       1.040   2.012  -0.726  0.00  0.00    +0.067 A 
ATOM     10  C   UNL     1      -0.149   1.308  -0.734  0.00  0.00    +0.042 A 
ATOM     11 BR   UNL     1       2.507   1.403  -1.752  0.00  0.00    -0.046 Br
ATOM     12  O   UNL     1       2.329   3.858   0.044  0.00  0.00    -0.286 OA
ATOM     13 BR   UNL     1       0.244   5.188   1.826  0.00  0.00    -0.046 Br
ENDBRANCH   3   5
BRANCH   1  19
ATOM     14  C   UNL     1      -4.844  -0.465   0.230  0.00  0.00    +0.015 A 
ATOM     15  C   UNL     1      -6.025  -1.169   0.341  0.00  0.00    +0.033 A 
ATOM     16  C   UNL     1      -7.228  -0.495   0.454  0.00  0.00    +0.126 A 
ATOM     17  C   UNL     1      -7.255   0.889   0.463  0.00  0.00    +0.033 A 
ATOM     18  C   UNL     1      -6.080   1.605   0.358  0.00  0.00    +0.015 A 
ATOM     19  C   UNL     1      -4.863   0.931   0.243  0.00  0.00    +0.037 A 
BRANCH  16  20
ATOM     20  N   UNL     1      -8.492  -1.256   0.566  0.00  0.00    +0.056 N 
ATOM     21  O   UNL     1      -9.553  -0.665   0.666  0.00  0.00    -0.126 OA
ATOM     22  O   UNL     1      -8.472  -2.474   0.558  0.00  0.00    -0.126 OA
ENDBRANCH  16  20
ENDBRANCH   1  19
TORSDOF 3
