REMARK  Name = ZINC63102924
REMARK  4 active torsions:
REMARK  status: ('A' for Active; 'I' for Inactive)
REMARK    1  A    between atoms: C_1  and  C_2
REMARK    2  A    between atoms: C_4  and  C_13
REMARK    3  A    between atoms: C_10  and  C_12
REMARK    4  A    between atoms: C_18  and  C_21
REMARK                            x       y       z     vdW  Elec       q    Type
REMARK                         _______ _______ _______ _____ _____    ______ ____
ROOT
ATOM      1  C   UNL     1       0.023  -2.842  -2.466  0.00  0.00    +0.247 C 
ATOM      2  O   UNL     1       0.144  -4.051  -2.443  0.00  0.00    -0.270 OA
ATOM      3  N   UNL     1      -0.091  -2.199  -3.644  0.00  0.00    -0.297 N 
ATOM      4  C   UNL     1      -0.103  -0.730  -3.697  0.00  0.00    +0.108 C 
ATOM      5  C   UNL     1       0.974  -0.263  -4.681  0.00  0.00    +0.027 C 
ATOM      6  C   UNL     1       0.752  -0.943  -6.034  0.00  0.00    +0.020 C 
ATOM      7  C   UNL     1       0.872  -2.460  -5.871  0.00  0.00    +0.027 C 
ATOM      8  C   UNL     1      -0.201  -2.951  -4.901  0.00  0.00    +0.108 C 
ENDROOT
BRANCH   1  12
ATOM      9  C   UNL     1      -2.143   0.450   0.614  0.00  0.00    +0.066 C 
ATOM     10  C   UNL     1      -1.021  -0.502   0.287  0.00  0.00    +0.043 A 
ATOM     11  C   UNL     1      -1.045  -1.192  -0.908  0.00  0.00    +0.036 A 
ATOM     12  C   UNL     1       0.001  -2.076  -1.198  0.00  0.00    +0.048 A 
ATOM     13  C   UNL     1       1.019  -2.215  -0.260  0.00  0.00    +0.048 A 
ATOM     14  C   UNL     1       0.980  -1.482   0.920  0.00  0.00    +0.245 A 
ATOM     15  N   UNL     1      -0.035  -0.656   1.146  0.00  0.00    -0.216 NA
ATOM     16  O   UNL     1       2.079  -1.753   1.675  0.00  0.00    -0.386 OA
ATOM     17  N   UNL     1       2.664  -3.018   1.203  0.00  0.00    -0.146 NA
ATOM     18  C   UNL     1       2.272  -3.063  -0.229  0.00  0.00    +0.126 C 
ATOM     19  C   UNL     1       3.364  -2.450  -1.108  0.00  0.00    +0.032 C 
ATOM     20  H   UNL     1       3.667  -3.012   1.304  0.00  0.00    +0.168 HD
ENDBRANCH   1  12
BRANCH   6  21
ATOM     21  C   UNL     1       1.790  -0.460  -7.014  0.00  0.00    -0.038 C 
ATOM     22  C   UNL     1       1.568   0.188  -8.181  0.00  0.00    -0.001 A 
ATOM     23  C   UNL     1       0.341   0.619  -8.860  0.00  0.00    +0.010 A 
ATOM     24  C   UNL     1       0.439   1.261 -10.046  0.00  0.00    +0.001 A 
ATOM     25  C   UNL     1       1.680   1.524 -10.642  0.00  0.00    +0.002 A 
ATOM     26  C   UNL     1       2.851   1.159 -10.079  0.00  0.00    +0.026 A 
ATOM     27  C   UNL     1       2.866   0.478  -8.830  0.00  0.00    +0.043 A 
ATOM     28  N   UNL     1       3.853   0.027  -8.094  0.00  0.00    -0.380 N 
ATOM     29  C   UNL     1       3.291  -0.596  -6.890  0.00  0.00    +0.145 C 
ATOM     30  H   UNL     1       4.796   0.096  -8.308  0.00  0.00    +0.160 HD
ENDBRANCH   6  21
TORSDOF 2
