REMARK  Name = ZINC66097214
REMARK  5 active torsions:
REMARK  status: ('A' for Active; 'I' for Inactive)
REMARK    1  A    between atoms: C_1  and  C_2
REMARK    2  A    between atoms: C_3  and  C_7
REMARK    3  A    between atoms: N_9  and  C_10
REMARK    4  A    between atoms: C_10  and  C_11
REMARK    5  A    between atoms: C_16  and  C_20
REMARK                            x       y       z     vdW  Elec       q    Type
REMARK                         _______ _______ _______ _____ _____    ______ ____
ROOT
ATOM      1  C   UNL     1      -5.768  -2.152   0.018  0.00  0.00    +0.235 C 
ATOM      2  O   UNL     1      -5.269  -3.257   0.009  0.00  0.00    -0.274 OA
ATOM      3  N   UNL     1      -7.109  -2.018   0.026  0.00  0.00    -0.268 N 
ATOM      4  C   UNL     1      -7.927  -3.156   0.023  0.00  0.00    +0.147 A 
ATOM      5  C   UNL     1      -7.482  -4.484   0.018  0.00  0.00    +0.073 A 
ATOM      6  C   UNL     1      -8.582  -5.293   0.017  0.00  0.00    +0.068 A 
ATOM      7  N   UNL     1      -9.681  -4.487   0.021  0.00  0.00    -0.275 N 
ATOM      8  H   UNL     1     -10.606  -4.782   0.022  0.00  0.00    +0.189 HD
ATOM      9  N   UNL     1      -9.239  -3.158   0.030  0.00  0.00    -0.158 NA
ATOM     10  H   UNL     1      -7.508  -1.134   0.033  0.00  0.00    +0.156 HD
ENDROOT
BRANCH   6  11
ATOM     11  C   UNL     1      -8.581  -6.773   0.012  0.00  0.00    +0.003 A 
ATOM     12  C   UNL     1      -7.374  -7.472   0.014  0.00  0.00    +0.030 A 
ATOM     13  C   UNL     1      -7.379  -8.853   0.010  0.00  0.00    +0.043 A 
ATOM     14  C   UNL     1      -8.579  -9.543   0.004  0.00  0.00    +0.040 A 
ATOM     15  C   UNL     1      -9.780  -8.855   0.002  0.00  0.00    +0.043 A 
ATOM     16  C   UNL     1      -9.787  -7.474   0.012  0.00  0.00    +0.030 A 
ATOM     17 CL   UNL     1     -11.280  -9.729  -0.006  0.00  0.00    -0.083 Cl
ATOM     18 CL   UNL     1      -5.878  -9.725   0.012  0.00  0.00    -0.083 Cl
ENDBRANCH   6  11
BRANCH   1  19
ATOM     19  C   UNL     1      -4.888  -0.928   0.021  0.00  0.00    +0.200 C 
BRANCH  19  22
ATOM     20  C   UNL     1      -2.508  -0.405   0.012  0.00  0.00    +0.248 C 
ATOM     21  O   UNL     1      -2.798   0.776   0.021  0.00  0.00    -0.270 OA
ATOM     22  N   UNL     1      -3.482  -1.337   0.011  0.00  0.00    -0.303 N 
ATOM     23  H   UNL     1      -3.251  -2.280   0.005  0.00  0.00    +0.150 HD
BRANCH  20  26
ATOM     24  C   UNL     1      -0.018   1.503   0.010  0.00  0.00    +0.087 C 
ATOM     25  C   UNL     1       0.002  -0.004   0.002  0.00  0.00    +0.114 A 
ATOM     26  C   UNL     1      -1.093  -0.817   0.003  0.00  0.00    +0.077 A 
ATOM     27  C   UNL     1      -0.567  -2.190  -0.008  0.00  0.00    +0.054 A 
ATOM     28  C   UNL     1       0.769  -2.073  -0.014  0.00  0.00    +0.196 A 
ATOM     29  O   UNL     1       1.097  -0.771  -0.013  0.00  0.00    -0.467 OA
ENDBRANCH  20  26
ENDBRANCH  19  22
ENDBRANCH   1  19
TORSDOF 4
