REMARK  Name = ZINC58989600
REMARK  9 active torsions:
REMARK  status: ('A' for Active; 'I' for Inactive)
REMARK    1  A    between atoms: C_3  and  C_7
REMARK    2  A    between atoms: C_10  and  S_13
REMARK    3  A    between atoms: N_11  and  N_12
REMARK    4  A    between atoms: S_13  and  C_14
REMARK    5  A    between atoms: C_14  and  C_15
REMARK    6  A    between atoms: C_15  and  C_16
REMARK    7  A    between atoms: C_16  and  C_17
REMARK    8  A    between atoms: N_19  and  N_20
REMARK    9  A    between atoms: C_21  and  C_22
REMARK                            x       y       z     vdW  Elec       q    Type
REMARK                         _______ _______ _______ _____ _____    ______ ____
ROOT
ATOM      1  C   UNL     1       8.163   4.028   0.028  0.00  0.00    +0.078 C 
ENDROOT
BRANCH   1   2
ATOM      2  S   UNL     1       7.557   2.347   0.340  0.00  0.00    -0.084 S 
BRANCH   2   6
ATOM      3  C   UNL     1       3.680   2.029  -0.023  0.00  0.00    +0.183 A 
ATOM      4  N   UNL     1       3.891   3.297  -0.286  0.00  0.00    -0.127 NA
ATOM      5  N   UNL     1       5.146   3.560  -0.204  0.00  0.00    -0.121 NA
ATOM      6  C   UNL     1       5.814   2.474   0.116  0.00  0.00    +0.209 A 
ATOM      7  N   UNL     1       4.905   1.464   0.249  0.00  0.00    -0.224 N 
BRANCH   3  10
ATOM      8  C   UNL     1      -0.017   1.379   0.010  0.00  0.00    +0.020 A 
ATOM      9  C   UNL     1       1.181   2.073   0.002  0.00  0.00    +0.014 A 
ATOM     10  C   UNL     1       2.373   1.339  -0.013  0.00  0.00    +0.039 A 
ATOM     11  C   UNL     1       2.306  -0.055  -0.020  0.00  0.00    +0.122 A 
ATOM     12  N   UNL     1       1.141  -0.670  -0.013  0.00  0.00    -0.263 NA
ATOM     13  C   UNL     1       0.002  -0.004   0.002  0.00  0.00    +0.111 A 
ENDBRANCH   3  10
BRANCH   7  14
ATOM     14  N   UNL     1       5.158   0.163   0.579  0.00  0.00    -0.295 N 
ATOM     15  H   UNL     1       5.330  -0.393  -0.245  0.00  0.00    +0.163 HD
ATOM     16  H   UNL     1       5.930   0.098   1.226  0.00  0.00    +0.163 HD
ENDBRANCH   7  14
ENDBRANCH   2   6
ENDBRANCH   1   2
BRANCH   1  17
ATOM     17  C   UNL     1       9.684   4.060   0.191  0.00  0.00    +0.020 C 
BRANCH  17  18
ATOM     18  C   UNL     1      10.196   5.478  -0.072  0.00  0.00    +0.098 C 
BRANCH  18  19
ATOM     19  C   UNL     1      11.694   5.510   0.089  0.00  0.00    +0.232 C 
ATOM     20  O   UNL     1      12.293   4.498   0.385  0.00  0.00    -0.274 OA
ATOM     21  N   UNL     1      12.367   6.662  -0.096  0.00  0.00    -0.207 N 
ATOM     22  H   UNL     1      11.887   7.472  -0.333  0.00  0.00    +0.177 HD
BRANCH  21  23
ATOM     23  N   UNL     1      13.760   6.692   0.053  0.00  0.00    -0.188 NA
ATOM     24  C   UNL     1      14.408   7.802  -0.125  0.00  0.00    +0.138 C 
BRANCH  24  25
ATOM     25  C   UNL     1      15.874   7.833   0.032  0.00  0.00    -0.005 A 
ATOM     26  C   UNL     1      16.569   6.668   0.367  0.00  0.00    +0.010 A 
ATOM     27  C   UNL     1      17.939   6.704   0.512  0.00  0.00    +0.016 A 
ATOM     28  C   UNL     1      18.628   7.891   0.326  0.00  0.00    +0.018 A 
ATOM     29  C   UNL     1      17.945   9.049  -0.006  0.00  0.00    +0.016 A 
ATOM     30  C   UNL     1      16.575   9.026  -0.159  0.00  0.00    +0.010 A 
ATOM     31 BR   UNL     1      20.507   7.931   0.528  0.00  0.00    -0.050 Br
ENDBRANCH  24  25
ENDBRANCH  21  23
ENDBRANCH  18  19
ENDBRANCH  17  18
ENDBRANCH   1  17
TORSDOF 9
