REMARK  Name = ZINC54024456
REMARK  4 active torsions:
REMARK  status: ('A' for Active; 'I' for Inactive)
REMARK    1  A    between atoms: C_6  and  C_7
REMARK    2  A    between atoms: C_7  and  N_8
REMARK    3  A    between atoms: N_11  and  N_12
REMARK    4  A    between atoms: C_13  and  C_15
REMARK                            x       y       z     vdW  Elec       q    Type
REMARK                         _______ _______ _______ _____ _____    ______ ____
ROOT
ATOM      1  N   UNL     1      -1.726  -1.017  -1.368  0.00  0.00    -0.294 N 
ATOM      2  C   UNL     1      -2.867  -1.694  -1.606  0.00  0.00    +0.316 C 
ATOM      3  O   UNL     1      -3.537  -2.103  -0.678  0.00  0.00    -0.251 OA
ATOM      4  N   UNL     1      -3.266  -1.917  -2.874  0.00  0.00    -0.218 N 
ATOM      5  H   UNL     1      -1.192  -0.691  -2.108  0.00  0.00    +0.151 HD
ATOM      6  H   UNL     1      -4.087  -2.404  -3.046  0.00  0.00    +0.174 HD
ENDROOT
BRANCH   4   7
ATOM      7  N   UNL     1      -2.494  -1.445  -3.944  0.00  0.00    -0.233 N 
ATOM      8  C   UNL     1      -2.893  -1.668  -5.212  0.00  0.00    +0.234 C 
ATOM      9  O   UNL     1      -3.919  -2.277  -5.427  0.00  0.00    -0.274 OA
ATOM     10  H   UNL     1      -1.673  -0.959  -3.773  0.00  0.00    +0.173 HD
BRANCH   8  11
ATOM     11  C   UNL     1      -2.062  -1.161  -6.363  0.00  0.00    +0.099 C 
ATOM     12  C   UNL     1      -1.968   0.372  -6.300  0.00  0.00    +0.037 C 
ATOM     13  C   UNL     1      -1.402   0.922  -7.631  0.00  0.00    +0.166 C 
ATOM     14  S   UNL     1      -1.931  -0.350  -8.851  0.00  0.00    -0.030 S 
ATOM     15  O   UNL     1      -2.918   0.212  -9.705  0.00  0.00    -0.174 OA
ATOM     16  O   UNL     1      -0.776  -0.954  -9.418  0.00  0.00    -0.174 OA
ATOM     17  C   UNL     1      -2.738  -1.550  -7.710  0.00  0.00    +0.178 C 
ENDBRANCH   8  11
ENDBRANCH   4   7
BRANCH   1  18
ATOM     18  C   UNL     1      -1.293  -0.775   0.011  0.00  0.00    +0.141 C 
BRANCH  18  24
ATOM     19  C   UNL     1      -0.017   1.378   0.010  0.00  0.00    +0.006 A 
ATOM     20  C   UNL     1       1.171   2.086   0.002  0.00  0.00    +0.020 A 
ATOM     21  C   UNL     1       2.378   1.410  -0.013  0.00  0.00    +0.041 A 
ATOM     22  C   UNL     1       2.396   0.027  -0.021  0.00  0.00    +0.020 A 
ATOM     23  C   UNL     1       1.208  -0.679  -0.013  0.00  0.00    +0.006 A 
ATOM     24  C   UNL     1       0.002  -0.004   0.002  0.00  0.00    -0.030 A 
ATOM     25 CL   UNL     1       3.870   2.298  -0.023  0.00  0.00    -0.084 Cl
ENDBRANCH  18  24
ENDBRANCH   1  18
TORSDOF 4
