REMARK  Name = ZINC11012853
REMARK  8 active torsions:
REMARK  status: ('A' for Active; 'I' for Inactive)
REMARK    1  A    between atoms: C_1  and  N_42
REMARK    2  A    between atoms: C_2  and  C_3
REMARK    3  A    between atoms: C_2  and  N_42
REMARK    4  A    between atoms: C_5  and  N_10
REMARK    5  A    between atoms: C_13  and  C_14
REMARK    6  A    between atoms: C_13  and  N_42
REMARK    7  A    between atoms: N_16  and  C_17
REMARK    8  A    between atoms: C_17  and  C_18
REMARK                            x       y       z     vdW  Elec       q    Type
REMARK                         _______ _______ _______ _____ _____    ______ ____
ROOT
ATOM      1  C   UNL     1      -0.497   3.827  -1.747  0.00  0.00    -0.095 C 
ATOM      2  N   UNL     1       0.910   4.073  -1.367  0.00  0.00    +0.386 N 
ATOM      3  H   UNL     1       1.524   3.571  -2.019  0.00  0.00    -0.081 HD
ENDROOT
BRANCH   2   4
ATOM      4  C   UNL     1       1.157   3.578   0.003  0.00  0.00    -0.041 C 
BRANCH   4   5
ATOM      5  C   UNL     1       1.298   2.078  -0.043  0.00  0.00    -0.043 A 
ATOM      6  C   UNL     1       0.279   1.274   0.433  0.00  0.00    +0.036 A 
ATOM      7  C   UNL     1       0.408  -0.102   0.391  0.00  0.00    +0.126 A 
ATOM      8  C   UNL     1       1.555  -0.674  -0.127  0.00  0.00    +0.034 A 
ATOM      9  C   UNL     1       2.574   0.129  -0.603  0.00  0.00    +0.022 A 
ATOM     10  C   UNL     1       2.446   1.506  -0.561  0.00  0.00    +0.042 A 
ATOM     11 CL   UNL     1       3.728   2.516  -1.152  0.00  0.00    -0.083 Cl
BRANCH   7  12
ATOM     12  N   UNL     1      -0.683  -0.962   0.901  0.00  0.00    +0.056 N 
ATOM     13  O   UNL     1      -0.570  -2.175   0.865  0.00  0.00    -0.126 OA
ATOM     14  O   UNL     1      -1.693  -0.459   1.358  0.00  0.00    -0.126 OA
ENDBRANCH   7  12
ENDBRANCH   4   5
ENDBRANCH   2   4
BRANCH   2  15
ATOM     15  C   UNL     1       1.208   5.519  -1.444  0.00  0.00    +0.019 C 
BRANCH  15  16
ATOM     16  C   UNL     1       1.162   5.949  -2.888  0.00  0.00    +0.197 C 
ATOM     17  O   UNL     1       0.893   5.142  -3.752  0.00  0.00    -0.278 OA
ATOM     18  N   UNL     1       1.420   7.230  -3.217  0.00  0.00    -0.313 N 
ATOM     19  H   UNL     1       1.635   7.875  -2.526  0.00  0.00    +0.149 HD
BRANCH  18  20
ATOM     20  C   UNL     1       1.375   7.648  -4.621  0.00  0.00    +0.142 C 
BRANCH  20  21
ATOM     21  C   UNL     1       1.698   9.117  -4.718  0.00  0.00    +0.005 A 
ATOM     22  C   UNL     1       0.680  10.041  -4.861  0.00  0.00    +0.008 A 
ATOM     23  C   UNL     1       0.976  11.388  -4.944  0.00  0.00    +0.000 A 
ATOM     24  C   UNL     1       2.291  11.813  -4.896  0.00  0.00    +0.003 A 
ATOM     25  C   UNL     1       3.311  10.890  -4.759  0.00  0.00    +0.038 A 
ATOM     26  C   UNL     1       3.015   9.540  -4.670  0.00  0.00    +0.128 A 
ATOM     27  F   UNL     1       4.012   8.638  -4.536  0.00  0.00    -0.205 F 
ENDBRANCH  20  21
ENDBRANCH  18  20
ENDBRANCH  15  16
ENDBRANCH   2  15
TORSDOF 7
