REMARK  Name = ZINC22508594
REMARK  10 active torsions:
REMARK  status: ('A' for Active; 'I' for Inactive)
REMARK    1  A    between atoms: C_1  and  C_2
REMARK    2  A    between atoms: C_4  and  C_25
REMARK    3  A    between atoms: C_6  and  C_21
REMARK    4  A    between atoms: C_10  and  C_11
REMARK    5  A    between atoms: C_11  and  N_13
REMARK    6  A    between atoms: C_16  and  C_20
REMARK    7  A    between atoms: C_17  and  C_19
REMARK    8  A    between atoms: C_21  and  C_22
REMARK    9  A    between atoms: C_21  and  C_23
REMARK   10  A    between atoms: C_21  and  C_24
REMARK                            x       y       z     vdW  Elec       q    Type
REMARK                         _______ _______ _______ _____ _____    ______ ____
ROOT
ATOM      1  C   UNL     1       6.794  -1.475   0.266  0.00  0.00    +0.046 C 
ATOM      2  C   UNL     1       5.905  -2.692   0.238  0.00  0.00    -0.020 A 
ATOM      3  C   UNL     1       6.468  -3.976   0.307  0.00  0.00    +0.032 A 
ATOM      4  C   UNL     1       7.829  -4.356   0.407  0.00  0.00    +0.050 A 
ATOM      5  N   UNL     1       8.140  -5.632   0.460  0.00  0.00    -0.236 NA
ATOM      6  C   UNL     1       7.226  -6.587   0.423  0.00  0.00    +0.136 A 
ATOM      7  N   UNL     1       5.941  -6.303   0.331  0.00  0.00    -0.224 NA
ATOM      8  C   UNL     1       5.541  -5.052   0.273  0.00  0.00    +0.113 A 
ATOM      9  S   UNL     1       3.971  -4.234   0.157  0.00  0.00    -0.064 S 
ATOM     10  C   UNL     1       4.556  -2.548   0.146  0.00  0.00    +0.081 A 
ATOM     11  C   UNL     1       8.910  -3.307   0.452  0.00  0.00    +0.066 C 
ENDROOT
BRANCH   6  12
ATOM     12  C   UNL     1       7.660  -8.028   0.488  0.00  0.00    +0.022 C 
ATOM     13  C   UNL     1       6.430  -8.935   0.429  0.00  0.00    +0.019 C 
ATOM     14  C   UNL     1       8.579  -8.337  -0.696  0.00  0.00    +0.019 C 
ATOM     15  C   UNL     1       8.414  -8.275   1.796  0.00  0.00    +0.019 C 
ENDBRANCH   6  12
BRANCH  10  16
ATOM     16  C   UNL     1       3.771  -1.308   0.064  0.00  0.00    +0.276 C 
ATOM     17  O   UNL     1       4.335  -0.230   0.074  0.00  0.00    -0.267 OA
BRANCH  16  18
ATOM     18  N   UNL     1       2.428  -1.365  -0.024  0.00  0.00    -0.152 NA
ATOM     19  C   UNL     1       1.686  -0.194  -0.101  0.00  0.00    +0.164 A 
ATOM     20  N   UNL     1       2.109   1.056  -0.104  0.00  0.00    -0.339 N 
ATOM     21  C   UNL     1       1.262   2.063  -0.185  0.00  0.00    +0.024 A 
ATOM     22  C   UNL     1      -0.063   1.788  -0.265  0.00  0.00    +0.009 A 
ATOM     23  S   UNL     1      -0.035   0.002  -0.220  0.00  0.00    -0.057 S 
ATOM     24  C   UNL     1      -1.236   2.729  -0.371  0.00  0.00    +0.053 C 
ATOM     25  C   UNL     1       1.755   3.487  -0.187  0.00  0.00    +0.064 C 
ATOM     26  H   UNL     1       3.185   1.272  -0.038  0.00  0.00    +0.167 HD
ENDBRANCH  16  18
ENDBRANCH  10  16
TORSDOF 3
