REMARK  Name = ZINC00437788
REMARK  5 active torsions:
REMARK  status: ('A' for Active; 'I' for Inactive)
REMARK    1  A    between atoms: C_4  and  C_7
REMARK    2  A    between atoms: C_8  and  C_9
REMARK    3  A    between atoms: C_14  and  N_15
REMARK    4  A    between atoms: C_16  and  C_18
REMARK    5  A    between atoms: C_22  and  N_24
REMARK                            x       y       z     vdW  Elec       q    Type
REMARK                         _______ _______ _______ _____ _____    ______ ____
ROOT
ATOM      1  C   UNL     1       2.192   8.164  -0.164  0.00  0.00    +0.046 A 
ATOM      2  C   UNL     1       2.108   9.556  -0.253  0.00  0.00    +0.019 A 
ATOM      3  C   UNL     1       0.875  10.173  -0.228  0.00  0.00    +0.001 A 
ATOM      4  C   UNL     1      -0.282   9.419  -0.122  0.00  0.00    +0.002 A 
ATOM      5  C   UNL     1      -0.214   8.042  -0.039  0.00  0.00    +0.024 A 
ATOM      6  C   UNL     1       1.017   7.404  -0.062  0.00  0.00    +0.049 A 
ENDROOT
BRANCH   6   7
ATOM      7  N   UNL     1       1.088   6.012   0.023  0.00  0.00    -0.280 N 
ATOM      8  C   UNL     1       0.090   5.322   0.610  0.00  0.00    +0.248 C 
ATOM      9  O   UNL     1      -0.821   5.914   1.155  0.00  0.00    -0.270 OA
ATOM     10  H   UNL     1       1.855   5.543  -0.341  0.00  0.00    +0.155 HD
BRANCH   8  11
ATOM     11  C   UNL     1       0.105   3.844   0.592  0.00  0.00    +0.039 A 
ATOM     12  C   UNL     1       1.150   3.160  -0.032  0.00  0.00    +0.013 A 
ATOM     13  C   UNL     1       1.157   1.781  -0.046  0.00  0.00    +0.003 A 
ATOM     14  C   UNL     1       0.131   1.075   0.558  0.00  0.00    +0.033 A 
ATOM     15  C   UNL     1      -0.910   1.746   1.173  0.00  0.00    +0.127 A 
ATOM     16  C   UNL     1      -0.927   3.125   1.199  0.00  0.00    +0.045 A 
BRANCH  15  17
ATOM     17  N   UNL     1      -2.007   0.983   1.810  0.00  0.00    +0.056 N 
ATOM     18  O   UNL     1      -1.991  -0.235   1.792  0.00  0.00    -0.126 OA
ATOM     19  O   UNL     1      -2.924   1.572   2.353  0.00  0.00    -0.126 OA
ENDBRANCH  15  17
ENDBRANCH   8  11
ENDBRANCH   6   7
BRANCH   1  21
ATOM     20  C   UNL     1       4.517   6.987  -0.199  0.00  0.00    -0.061 C 
ATOM     21  C   UNL     1       3.470   7.517  -0.183  0.00  0.00    -0.059 C 
BRANCH  20  25
ATOM     22  C   UNL     1       8.265   5.089  -0.255  0.00  0.00    +0.000 A 
ATOM     23  C   UNL     1       8.191   6.468  -0.338  0.00  0.00    +0.001 A 
ATOM     24  C   UNL     1       6.964   7.098  -0.320  0.00  0.00    +0.017 A 
ATOM     25  C   UNL     1       5.795   6.340  -0.218  0.00  0.00    +0.025 A 
ATOM     26  C   UNL     1       5.878   4.948  -0.128  0.00  0.00    +0.017 A 
ATOM     27  C   UNL     1       7.112   4.332  -0.154  0.00  0.00    +0.001 A 
ENDBRANCH  20  25
ENDBRANCH   1  21
TORSDOF 5
