REMARK  Name = ZINC20734233
REMARK  4 active torsions:
REMARK  status: ('A' for Active; 'I' for Inactive)
REMARK    1  A    between atoms: C_1  and  C_2
REMARK    2  A    between atoms: C_10  and  C_12
REMARK    3  A    between atoms: C_20  and  C_23
REMARK    4  A    between atoms: C_28  and  O_29
REMARK                            x       y       z     vdW  Elec       q    Type
REMARK                         _______ _______ _______ _____ _____    ______ ____
ROOT
ATOM      1  C   UNL     1       1.783   6.859  -0.885  0.00  0.00    +0.069 C 
ATOM      2  C   UNL     1       2.701   5.676  -0.717  0.00  0.00    +0.087 A 
ATOM      3  C   UNL     1       2.341   4.382  -0.348  0.00  0.00    +0.049 A 
ATOM      4  C   UNL     1       3.522   3.687  -0.337  0.00  0.00    +0.226 A 
ATOM      5  O   UNL     1       4.469   4.554  -0.678  0.00  0.00    -0.339 OA
ATOM      6  N   UNL     1       4.000   5.657  -0.888  0.00  0.00    -0.081 NA
ATOM      7  N   UNL     1       3.558   2.346  -0.015  0.00  0.00    -0.286 N 
ATOM      8  C   UNL     1       2.376   1.644   0.013  0.00  0.00    +0.019 C 
ATOM      9  C   UNL     1       1.171   2.251   0.003  0.00  0.00    +0.025 C 
ATOM     10  C   UNL     1       1.024   3.759  -0.014  0.00  0.00    +0.097 C 
ATOM     11  C   UNL     1      -0.018   1.499   0.010  0.00  0.00    +0.162 C 
ATOM     12  O   UNL     1      -1.087   2.078   0.018  0.00  0.00    -0.292 OA
ATOM     13  C   UNL     1       0.002  -0.004   0.002  0.00  0.00    +0.088 C 
ATOM     14  C   UNL     1       1.287  -0.480  -0.684  0.00  0.00    +0.035 C 
ATOM     15  C   UNL     1       2.479   0.136   0.051  0.00  0.00    +0.060 C 
ATOM     16  H   UNL     1       4.518   1.860   0.213  0.00  0.00    +0.155 HD
ENDROOT
BRANCH  14  17
ATOM     17  C   UNL     1       1.372  -1.983  -0.618  0.00  0.00    -0.002 A 
ATOM     18  C   UNL     1       1.395  -2.622   0.607  0.00  0.00    +0.007 A 
ATOM     19  C   UNL     1       1.472  -4.000   0.667  0.00  0.00    +0.001 A 
ATOM     20  C   UNL     1       1.526  -4.744  -0.497  0.00  0.00    +0.004 A 
ATOM     21  C   UNL     1       1.502  -4.111  -1.724  0.00  0.00    +0.046 A 
ATOM     22  C   UNL     1       1.420  -2.727  -1.788  0.00  0.00    +0.120 A 
BRANCH  22  23
ATOM     23  O   UNL     1       1.391  -2.102  -2.994  0.00  0.00    -0.506 OA
ATOM     24  H   UNL     1       1.429  -2.693  -3.921  0.00  0.00    +0.292 HD
ENDBRANCH  22  23
ENDBRANCH  14  17
BRANCH  10  25
ATOM     25  C   UNL     1       0.572   4.235   1.343  0.00  0.00    +0.002 A 
ATOM     26  C   UNL     1      -0.552   4.914   1.679  0.00  0.00    +0.012 A 
ATOM     27  C   UNL     1      -0.763   5.250   3.003  0.00  0.00    +0.008 A 
ATOM     28  C   UNL     1       0.162   4.890   3.927  0.00  0.00    +0.045 A 
ATOM     29  S   UNL     1       1.374   4.044   2.926  0.00  0.00    -0.101 S 
ENDBRANCH  10  25
TORSDOF 3
