REMARK  Name = ZINC24123055
REMARK  5 active torsions:
REMARK  status: ('A' for Active; 'I' for Inactive)
REMARK    1  A    between atoms: C_4  and  C_7
REMARK    2  A    between atoms: C_7  and  C_8
REMARK    3  A    between atoms: C_7  and  C_14
REMARK    4  A    between atoms: N_16  and  N_17
REMARK    5  A    between atoms: C_18  and  C_20
REMARK                            x       y       z     vdW  Elec       q    Type
REMARK                         _______ _______ _______ _____ _____    ______ ____
ROOT
ATOM      1  C   UNL     1      -4.542  -1.231  -0.261  0.00  0.00    +0.241 C 
ATOM      2  O   UNL     1      -4.202  -0.068  -0.313  0.00  0.00    -0.273 OA
ATOM      3  N   UNL     1      -3.639  -2.207  -0.483  0.00  0.00    -0.233 N 
ATOM      4  H   UNL     1      -3.948  -3.262  -0.435  0.00  0.00    +0.173 HD
ENDROOT
BRANCH   3   5
ATOM      5  N   UNL     1      -2.309  -1.879  -0.774  0.00  0.00    -0.229 N 
ATOM      6  C   UNL     1      -1.407  -2.855  -0.997  0.00  0.00    +0.276 C 
ATOM      7  O   UNL     1      -1.748  -4.022  -0.944  0.00  0.00    -0.267 OA
ATOM      8  H   UNL     1      -2.001  -0.824  -0.822  0.00  0.00    +0.173 HD
BRANCH   6   9
ATOM      9  C   UNL     1      -0.014  -2.511  -1.302  0.00  0.00    +0.104 A 
ATOM     10  C   UNL     1       1.010  -3.401  -1.549  0.00  0.00    +0.047 A 
ATOM     11  C   UNL     1       2.162  -2.646  -1.791  0.00  0.00    +0.036 A 
ATOM     12  C   UNL     1       1.828  -1.336  -1.690  0.00  0.00    +0.098 A 
ATOM     13  N   UNL     1       0.509  -1.241  -1.393  0.00  0.00    -0.356 N 
ATOM     14  H   UNL     1      -0.139  -0.367  -1.231  0.00  0.00    +0.166 HD
ATOM     15 BR   UNL     1       3.878  -3.330  -2.191  0.00  0.00    -0.049 Br
ENDBRANCH   6   9
ENDBRANCH   3   5
BRANCH   1  16
ATOM     16  C   UNL     1      -5.973  -1.584   0.053  0.00  0.00    +0.136 C 
BRANCH  16  20
ATOM     17  C   UNL     1      -6.109  -3.945   3.610  0.00  0.00    +0.000 A 
ATOM     18  C   UNL     1      -6.753  -4.380   2.467  0.00  0.00    +0.000 A 
ATOM     19  C   UNL     1      -6.709  -3.616   1.316  0.00  0.00    +0.005 A 
ATOM     20  C   UNL     1      -6.021  -2.417   1.308  0.00  0.00    -0.031 A 
ATOM     21  C   UNL     1      -5.372  -1.984   2.450  0.00  0.00    +0.005 A 
ATOM     22  C   UNL     1      -5.421  -2.746   3.602  0.00  0.00    +0.000 A 
ENDBRANCH  16  20
BRANCH  16  23
ATOM     23  C   UNL     1      -6.769  -0.321   0.257  0.00  0.00    -0.031 A 
ATOM     24  C   UNL     1      -6.341   0.625   1.169  0.00  0.00    +0.005 A 
ATOM     25  C   UNL     1      -7.069   1.786   1.353  0.00  0.00    +0.000 A 
ATOM     26  C   UNL     1      -8.230   1.996   0.632  0.00  0.00    +0.000 A 
ATOM     27  C   UNL     1      -8.660   1.047  -0.276  0.00  0.00    +0.000 A 
ATOM     28  C   UNL     1      -7.929  -0.112  -0.464  0.00  0.00    +0.005 A 
ENDBRANCH  16  23
ENDBRANCH   1  16
TORSDOF 5
