REMARK  Name = ZINC24233473
REMARK  5 active torsions:
REMARK  status: ('A' for Active; 'I' for Inactive)
REMARK    1  A    between atoms: C_1  and  C_2
REMARK    2  A    between atoms: C_7  and  C_11
REMARK    3  A    between atoms: N_13  and  N_14
REMARK    4  A    between atoms: C_15  and  C_17
REMARK    5  A    between atoms: N_21  and  C_22
REMARK                            x       y       z     vdW  Elec       q    Type
REMARK                         _______ _______ _______ _____ _____    ______ ____
ROOT
ATOM      1  C   UNL     1      -0.983  -5.584   2.339  0.00  0.00    +0.280 C 
ATOM      2  O   UNL     1      -0.902  -6.632   1.727  0.00  0.00    -0.267 OA
ATOM      3  N   UNL     1      -0.805  -5.569   3.675  0.00  0.00    -0.229 N 
ATOM      4  H   UNL     1      -0.870  -4.733   4.163  0.00  0.00    +0.173 HD
ENDROOT
BRANCH   1  11
ATOM      5  C   UNL     1      -2.364   1.323   0.130  0.00  0.00    +0.044 C 
ATOM      6  C   UNL     1      -2.133  -0.166   0.109  0.00  0.00    -0.046 A 
ATOM      7  C   UNL     1      -2.186  -0.872  -1.106  0.00  0.00    +0.021 A 
ATOM      8  C   UNL     1      -1.980  -2.204  -1.129  0.00  0.00    +0.093 A 
ATOM      9  N   UNL     1      -1.717  -2.889   0.024  0.00  0.00    -0.306 N 
ATOM     10  C   UNL     1      -1.477  -4.206   0.274  0.00  0.00    +0.125 A 
ATOM     11  C   UNL     1      -1.276  -4.330   1.619  0.00  0.00    +0.146 A 
ATOM     12  N   UNL     1      -1.392  -3.109   2.175  0.00  0.00    -0.223 NA
ATOM     13  C   UNL     1      -1.658  -2.227   1.226  0.00  0.00    +0.139 A 
ATOM     14  C   UNL     1      -1.867  -0.832   1.264  0.00  0.00    +0.050 A 
ENDBRANCH   1  11
BRANCH   3  15
ATOM     15  N   UNL     1      -0.527  -6.760   4.359  0.00  0.00    -0.229 N 
ATOM     16  C   UNL     1      -0.349  -6.744   5.694  0.00  0.00    +0.277 C 
ATOM     17  O   UNL     1      -0.328  -5.685   6.293  0.00  0.00    -0.267 OA
ATOM     18  H   UNL     1      -0.462  -7.595   3.870  0.00  0.00    +0.173 HD
BRANCH  16  19
ATOM     19  C   UNL     1      -0.181  -8.004   6.426  0.00  0.00    +0.107 A 
ATOM     20  C   UNL     1      -0.101  -9.264   5.872  0.00  0.00    +0.047 A 
ATOM     21  C   UNL     1       0.057 -10.168   6.928  0.00  0.00    +0.036 A 
ATOM     22  C   UNL     1       0.069  -9.460   8.083  0.00  0.00    +0.101 A 
ATOM     23  N   UNL     1      -0.069  -8.143   7.791  0.00  0.00    -0.345 N 
ATOM     24  C   UNL     1      -0.097  -7.050   8.767  0.00  0.00    +0.149 C 
ATOM     25 BR   UNL     1       0.221 -12.045   6.771  0.00  0.00    -0.049 Br
ENDBRANCH  16  19
ENDBRANCH   3  15
TORSDOF 3
