REMARK  Name = ZINC01587127
REMARK  4 active torsions:
REMARK  status: ('A' for Active; 'I' for Inactive)
REMARK    1  A    between atoms: C_1  and  C_2
REMARK    2  A    between atoms: C_2  and  C_3
REMARK    3  A    between atoms: C_3  and  O_27
REMARK    4  A    between atoms: C_22  and  N_26
REMARK                            x       y       z     vdW  Elec       q    Type
REMARK                         _______ _______ _______ _____ _____    ______ ____
ROOT
ATOM      1  C   UNL     1      -3.342   3.333   4.077  0.00  0.00    +0.188 C 
ATOM      2  C   UNL     1      -2.393   2.708   3.086  0.00  0.00    +0.008 A 
ATOM      3  C   UNL     1      -2.647   2.872   1.718  0.00  0.00    +0.035 A 
ATOM      4  C   UNL     1      -1.807   2.305   0.784  0.00  0.00    +0.071 A 
ATOM      5  N   UNL     1      -0.728   1.573   1.195  0.00  0.00    -0.302 N 
ATOM      6  C   UNL     1      -0.478   1.403   2.506  0.00  0.00    +0.259 A 
ATOM      7  O   UNL     1       0.483   0.736   2.855  0.00  0.00    -0.267 OA
ATOM      8  C   UNL     1      -1.312   1.986   3.483  0.00  0.00    +0.061 A 
ATOM      9  C   UNL     1      -0.963   1.786   4.934  0.00  0.00    +0.273 C 
ATOM     10  O   UNL     1      -2.093   2.116   5.783  0.00  0.00    -0.457 OA
ATOM     11  C   UNL     1      -2.730   3.265   5.457  0.00  0.00    +0.344 C 
ATOM     12  O   UNL     1      -2.806   4.189   6.231  0.00  0.00    -0.247 OA
ATOM     13  C   UNL     1      -0.013   1.086   0.008  0.00  0.00    +0.162 C 
ATOM     14  C   UNL     1      -0.769   1.599  -1.190  0.00  0.00    +0.000 A 
ATOM     15  C   UNL     1      -1.858   2.339  -0.697  0.00  0.00    +0.093 A 
ATOM     16  N   UNL     1      -2.713   2.921  -1.523  0.00  0.00    -0.245 NA
ATOM     17  C   UNL     1      -2.577   2.826  -2.846  0.00  0.00    +0.072 A 
ATOM     18  C   UNL     1      -3.498   3.449  -3.710  0.00  0.00    +0.030 A 
ATOM     19  C   UNL     1      -3.346   3.341  -5.056  0.00  0.00    +0.025 A 
ATOM     20  C   UNL     1      -2.281   2.617  -5.606  0.00  0.00    +0.025 A 
ATOM     21  C   UNL     1      -1.361   1.994  -4.790  0.00  0.00    +0.032 A 
ATOM     22  C   UNL     1      -1.497   2.090  -3.398  0.00  0.00    +0.002 A 
ATOM     23  C   UNL     1      -0.578   1.466  -2.529  0.00  0.00    +0.017 A 
ENDROOT
BRANCH  20  24
ATOM     24  N   UNL     1      -2.150   2.525  -6.992  0.00  0.00    -0.358 N 
ATOM     25  H   UNL     1      -1.414   2.024  -7.378  0.00  0.00    +0.142 HD
ATOM     26  H   UNL     1      -2.795   2.961  -7.571  0.00  0.00    +0.142 HD
ENDBRANCH  20  24
BRANCH   1  28
ATOM     27  C   UNL     1      -5.631   3.208   5.072  0.00  0.00    +0.007 C 
ATOM     28  C   UNL     1      -4.669   2.572   4.066  0.00  0.00    +0.048 C 
ENDBRANCH   1  28
BRANCH   1  29
ATOM     29  O   UNL     1      -3.571   4.699   3.724  0.00  0.00    -0.373 OA
ATOM     30  H   UNL     1      -4.174   5.164   4.320  0.00  0.00    +0.211 HD
ENDBRANCH   1  29
TORSDOF 3
