REMARK  Name = ZINC51362089
REMARK  5 active torsions:
REMARK  status: ('A' for Active; 'I' for Inactive)
REMARK    1  A    between atoms: C_1  and  N_2
REMARK    2  A    between atoms: N_2  and  C_3
REMARK    3  A    between atoms: C_3  and  C_5
REMARK    4  A    between atoms: C_3  and  C_16
REMARK    5  A    between atoms: N_14  and  C_15
REMARK                            x       y       z     vdW  Elec       q    Type
REMARK                         _______ _______ _______ _____ _____    ______ ____
ROOT
ATOM      1  C   UNL     1      -1.376  -0.512   0.012  0.00  0.00    -0.003 C 
ENDROOT
BRANCH   1   2
ATOM      2  C   UNL     1      -2.067  -0.116  -1.267  0.00  0.00    -0.053 A 
ATOM      3  C   UNL     1      -1.380  -0.172  -2.467  0.00  0.00    +0.004 A 
ATOM      4  C   UNL     1      -2.007   0.190  -3.643  0.00  0.00    +0.030 A 
ATOM      5  C   UNL     1      -3.328   0.609  -3.620  0.00  0.00    +0.090 A 
ATOM      6  C   UNL     1      -4.021   0.665  -2.411  0.00  0.00    +0.157 A 
ATOM      7  C   UNL     1      -3.386   0.295  -1.236  0.00  0.00    +0.051 A 
ATOM      8  O   UNL     1      -5.274   1.103  -2.686  0.00  0.00    -0.407 OA
ATOM      9  C   UNL     1      -5.386   1.321  -4.006  0.00  0.00    +0.421 A 
ATOM     10  O   UNL     1      -6.388   1.719  -4.570  0.00  0.00    -0.223 OA
ATOM     11  N   UNL     1      -4.217   1.029  -4.609  0.00  0.00    -0.277 N 
ATOM     12  C   UNL     1      -3.932   1.134  -6.042  0.00  0.00    +0.156 C 
ENDBRANCH   1   2
BRANCH   1  13
ATOM     13  C   UNL     1      -1.356  -2.015   0.128  0.00  0.00    -0.019 A 
ATOM     14  C   UNL     1      -2.169  -2.826   0.848  0.00  0.00    +0.011 A 
ATOM     15  C   UNL     1      -1.963  -4.193   0.803  0.00  0.00    +0.028 A 
ATOM     16  C   UNL     1      -0.954  -4.680   0.040  0.00  0.00    +0.078 A 
ATOM     17  S   UNL     1      -0.261  -3.188  -0.654  0.00  0.00    -0.083 S 
ATOM     18 CL   UNL     1      -0.466  -6.328  -0.205  0.00  0.00    -0.076 Cl
ENDBRANCH   1  13
BRANCH   1  20
ATOM     19  C   UNL     1      -0.018   1.465   0.010  0.00  0.00    -0.099 C 
ATOM     20  N   UNL     1       0.002  -0.004   0.002  0.00  0.00    +0.385 N 
ATOM     21  H   UNL     1       0.474  -0.330  -0.828  0.00  0.00    -0.085 HD
ATOM     22  H   UNL     1       0.490  -0.338   0.820  0.00  0.00    -0.085 HD
ENDBRANCH   1  20
TORSDOF 3
