REMARK  Name = ZINC17300869
REMARK  5 active torsions:
REMARK  status: ('A' for Active; 'I' for Inactive)
REMARK    1  A    between atoms: C_1  and  C_2
REMARK    2  A    between atoms: C_10  and  C_11
REMARK    3  A    between atoms: N_13  and  C_14
REMARK    4  A    between atoms: C_14  and  C_15
REMARK    5  A    between atoms: C_14  and  C_16
REMARK                            x       y       z     vdW  Elec       q    Type
REMARK                         _______ _______ _______ _____ _____    ______ ____
ROOT
ATOM      1  C   UNL     1      -0.013   1.086   0.008  0.00  0.00    +0.048 C 
ATOM      2  C   UNL     1      -0.718   1.572   1.248  0.00  0.00    +0.008 A 
ATOM      3  C   UNL     1      -0.112   1.866   2.546  0.00  0.00    +0.025 A 
ATOM      4  C   UNL     1       1.190   1.809   3.048  0.00  0.00    +0.032 A 
ATOM      5  C   UNL     1       1.432   2.162   4.346  0.00  0.00    +0.042 A 
ATOM      6  C   UNL     1       0.391   2.575   5.168  0.00  0.00    +0.023 A 
ATOM      7  C   UNL     1      -0.900   2.638   4.692  0.00  0.00    +0.048 A 
ATOM      8  C   UNL     1      -1.170   2.284   3.375  0.00  0.00    +0.136 A 
ATOM      9  O   UNL     1      -2.301   2.245   2.643  0.00  0.00    -0.450 OA
ATOM     10  C   UNL     1      -2.044   1.831   1.384  0.00  0.00    +0.193 A 
ATOM     11 CL   UNL     1       3.050   2.091   4.972  0.00  0.00    -0.084 Cl
ENDROOT
BRANCH  10  12
ATOM     12  C   UNL     1      -3.049   1.680   0.323  0.00  0.00    +0.280 C 
ATOM     13  O   UNL     1      -2.714   1.295  -0.782  0.00  0.00    -0.267 OA
ATOM     14  N   UNL     1      -4.342   1.967   0.572  0.00  0.00    -0.306 N 
ATOM     15  H   UNL     1      -4.609   2.274   1.453  0.00  0.00    +0.149 HD
BRANCH  14  16
ATOM     16  C   UNL     1      -5.344   1.816  -0.486  0.00  0.00    +0.067 C 
ATOM     17  C   UNL     1      -5.827   0.365  -0.528  0.00  0.00    +0.027 C 
ATOM     18  C   UNL     1      -6.529   2.741  -0.201  0.00  0.00    +0.027 C 
ENDBRANCH  14  16
ENDBRANCH  10  12
TORSDOF 2
