REMARK  Name = ZINC06893354
REMARK  4 active torsions:
REMARK  status: ('A' for Active; 'I' for Inactive)
REMARK    1  A    between atoms: C_5  and  S_8
REMARK    2  A    between atoms: S_8  and  C_11
REMARK    3  A    between atoms: C_11  and  C_12
REMARK    4  A    between atoms: C_12  and  C_13
REMARK                            x       y       z     vdW  Elec       q    Type
REMARK                         _______ _______ _______ _____ _____    ______ ____
ROOT
ATOM      1  S   UNL     1       2.703   1.572  -0.015  0.00  0.00    -0.001 S 
ATOM      2  O   UNL     1       2.584   0.647  -1.087  0.00  0.00    -0.169 OA
ATOM      3  O   UNL     1       3.693   2.591  -0.044  0.00  0.00    -0.169 OA
ENDROOT
BRANCH   1   8
ATOM      4  C   UNL     1      -1.230   2.405   0.021  0.00  0.00    +0.049 A 
ATOM      5  C   UNL     1      -1.246   3.790   0.034  0.00  0.00    +0.077 A 
ATOM      6  C   UNL     1      -0.047   4.501   0.026  0.00  0.00    +0.144 A 
ATOM      7  C   UNL     1       1.158   3.821   0.011  0.00  0.00    +0.076 A 
ATOM      8  C   UNL     1       1.168   2.438   0.004  0.00  0.00    +0.110 A 
ATOM      9  C   UNL     1      -0.021   1.732   0.012  0.00  0.00    +0.068 A 
ATOM     10 CL   UNL     1       0.002  -0.004   0.002  0.00  0.00    -0.082 Cl
ATOM     11  O   UNL     1      -0.076   5.861   0.032  0.00  0.00    -0.481 OA
ATOM     12  C   UNL     1      -1.170   6.484  -0.647  0.00  0.00    +0.325 C 
ATOM     13  C   UNL     1      -2.459   5.808  -0.257  0.00  0.00    +0.255 C 
ATOM     14  O   UNL     1      -3.493   6.442  -0.219  0.00  0.00    -0.272 OA
ATOM     15  N   UNL     1      -2.460   4.492   0.051  0.00  0.00    -0.280 N 
ATOM     16  H   UNL     1      -3.287   4.040   0.280  0.00  0.00    +0.155 HD
ENDBRANCH   1   8
BRANCH   1  17
ATOM     17  C   UNL     1       2.760   0.690   1.568  0.00  0.00    +0.181 C 
BRANCH  17  18
ATOM     18  C   UNL     1       4.064  -0.105   1.663  0.00  0.00    +0.119 C 
BRANCH  18  19
ATOM     19  C   UNL     1       4.111  -0.839   2.978  0.00  0.00    +0.217 C 
ATOM     20  O   UNL     1       3.193  -0.736   3.763  0.00  0.00    -0.276 OA
ATOM     21  N   UNL     1       5.175  -1.609   3.282  0.00  0.00    -0.301 N 
ATOM     22  C   UNL     1       6.251  -1.715   2.322  0.00  0.00    +0.108 C 
ATOM     23  C   UNL     1       5.976  -2.884   1.353  0.00  0.00    +0.019 C 
ATOM     24  C   UNL     1       6.140  -4.171   2.046  0.00  0.00    +0.002 C 
ATOM     25  C   UNL     1       5.163  -4.395   3.196  0.00  0.00    +0.002 C 
ATOM     26  C   UNL     1       5.711  -3.757   4.449  0.00  0.00    +0.019 C 
ATOM     27  C   UNL     1       5.190  -2.314   4.579  0.00  0.00    +0.108 C 
ENDBRANCH  18  19
ENDBRANCH  17  18
ENDBRANCH   1  17
TORSDOF 4
