REMARK  Name = ZINC31743929
REMARK  6 active torsions:
REMARK  status: ('A' for Active; 'I' for Inactive)
REMARK    1  A    between atoms: C_1  and  C_2
REMARK    2  A    between atoms: C_2  and  C_24
REMARK    3  A    between atoms: N_5  and  C_9
REMARK    4  A    between atoms: C_9  and  C_10
REMARK    5  A    between atoms: N_12  and  C_13
REMARK    6  A    between atoms: C_14  and  C_21
REMARK                            x       y       z     vdW  Elec       q    Type
REMARK                         _______ _______ _______ _____ _____    ______ ____
ROOT
ATOM      1  C   UNL     1      -2.569  -1.986   1.805  0.00  0.00    +0.214 C 
ENDROOT
BRANCH   1   6
ATOM      2  C   UNL     1      -0.019   1.526   0.010  0.00  0.00    +0.047 C 
ATOM      3  C   UNL     1       0.002  -0.004   0.002  0.00  0.00    +0.138 C 
ATOM      4  C   UNL     1      -1.403  -0.557   0.139  0.00  0.00    +0.251 C 
ATOM      5  O   UNL     1      -2.332  -0.392  -0.621  0.00  0.00    -0.272 OA
ATOM      6  N   UNL     1      -1.403  -1.272   1.282  0.00  0.00    -0.215 N 
ATOM      7  C   UNL     1      -0.206  -1.247   1.879  0.00  0.00    +0.310 C 
ATOM      8  O   UNL     1       0.040  -1.819   2.924  0.00  0.00    -0.252 OA
ATOM      9  N   UNL     1       0.695  -0.520   1.195  0.00  0.00    -0.281 N 
ATOM     10  H   UNL     1       1.621  -0.365   1.440  0.00  0.00    +0.152 HD
BRANCH   3  11
ATOM     11  C   UNL     1       0.657  -0.517  -1.255  0.00  0.00    +0.022 A 
ATOM     12  C   UNL     1       1.794  -1.298  -1.172  0.00  0.00    +0.047 A 
ATOM     13  C   UNL     1       2.396  -1.769  -2.326  0.00  0.00    +0.124 A 
ATOM     14  C   UNL     1       1.858  -1.459  -3.564  0.00  0.00    +0.041 A 
ATOM     15  C   UNL     1       0.721  -0.678  -3.646  0.00  0.00    +0.041 A 
ATOM     16  C   UNL     1       0.116  -0.211  -2.491  0.00  0.00    +0.129 A 
ATOM     17  F   UNL     1      -0.999   0.548  -2.572  0.00  0.00    -0.205 F 
ATOM     18  F   UNL     1       3.508  -2.532  -2.245  0.00  0.00    -0.205 F 
ENDBRANCH   3  11
ENDBRANCH   1   6
BRANCH   1  19
ATOM     19  C   UNL     1      -2.585  -3.391   1.260  0.00  0.00    +0.236 C 
ATOM     20  O   UNL     1      -1.707  -3.759   0.508  0.00  0.00    -0.274 OA
ATOM     21  N   UNL     1      -3.573  -4.239   1.608  0.00  0.00    -0.278 N 
ATOM     22  H   UNL     1      -4.275  -3.944   2.209  0.00  0.00    +0.155 HD
BRANCH  21  23
ATOM     23  C   UNL     1      -3.587  -5.531   1.106  0.00  0.00    +0.084 A 
ATOM     24  C   UNL     1      -4.516  -6.527   1.346  0.00  0.00    +0.068 A 
ATOM     25  C   UNL     1      -4.302  -7.815   0.689  0.00  0.00    -0.023 A 
ATOM     26  C   UNL     1      -3.200  -7.862  -0.081  0.00  0.00    -0.004 A 
ATOM     27  S   UNL     1      -2.485  -6.244   0.061  0.00  0.00    -0.077 S 
ATOM     28  C   UNL     1      -3.026  -9.209  -0.729  0.00  0.00    +0.043 C 
ATOM     29  C   UNL     1      -3.945 -10.152   0.079  0.00  0.00    +0.010 C 
ATOM     30  C   UNL     1      -5.002  -9.171   0.625  0.00  0.00    +0.037 C 
BRANCH  24  31
ATOM     31  C   UNL     1      -5.668  -6.300   2.225  0.00  0.00    +0.244 C 
ATOM     32  O   UNL     1      -6.712  -5.878   1.763  0.00  0.00    -0.270 OA
ATOM     33  N   UNL     1      -5.570  -6.558   3.544  0.00  0.00    -0.325 N 
ATOM     34  H   UNL     1      -4.738  -6.894   3.912  0.00  0.00    +0.145 HD
ATOM     35  H   UNL     1      -6.332  -6.408   4.125  0.00  0.00    +0.145 HD
ENDBRANCH  24  31
ENDBRANCH  21  23
ENDBRANCH   1  19
TORSDOF 5
