REMARK  Name = ZINC07962687
REMARK  8 active torsions:
REMARK  status: ('A' for Active; 'I' for Inactive)
REMARK    1  A    between atoms: C_1  and  C_2
REMARK    2  A    between atoms: C_2  and  C_3
REMARK    3  A    between atoms: C_2  and  C_4
REMARK    4  A    between atoms: C_2  and  C_5
REMARK    5  A    between atoms: C_12  and  C_14
REMARK    6  A    between atoms: N_16  and  N_17
REMARK    7  A    between atoms: C_18  and  C_20
REMARK    8  A    between atoms: C_20  and  N_21
REMARK                            x       y       z     vdW  Elec       q    Type
REMARK                         _______ _______ _______ _____ _____    ______ ____
ROOT
ATOM      1  C   UNL     1      -1.193   2.055   0.019  0.00  0.00    +0.267 C 
ATOM      2  O   UNL     1      -2.239   1.432   0.021  0.00  0.00    -0.268 OA
ATOM      3  N   UNL     1      -0.017   1.397   0.010  0.00  0.00    -0.230 N 
ATOM      4  H   UNL     1       0.816   1.893   0.004  0.00  0.00    +0.173 HD
ENDROOT
BRANCH   1  11
ATOM      5  C   UNL     1      -2.598   8.118   0.521  0.00  0.00    -0.001 C 
ATOM      6  C   UNL     1      -1.373   8.483  -0.323  0.00  0.00    +0.009 C 
ATOM      7  C   UNL     1      -0.222   7.535   0.042  0.00  0.00    +0.043 C 
ATOM      8  C   UNL     1      -0.745   6.132   0.038  0.00  0.00    -0.006 A 
ATOM      9  C   UNL     1      -2.054   5.741   0.043  0.00  0.00    -0.036 A 
ATOM     10  C   UNL     1      -2.298   4.378   0.037  0.00  0.00    +0.024 A 
ATOM     11  C   UNL     1      -1.213   3.520   0.027  0.00  0.00    +0.076 A 
ATOM     12  S   UNL     1       0.157   4.665   0.035  0.00  0.00    -0.088 S 
ATOM     13  C   UNL     1      -3.172   6.780   0.055  0.00  0.00    +0.040 C 
BRANCH   5  15
ATOM     14  C   UNL     1      -4.881   8.851   1.224  0.00  0.00    +0.011 C 
ATOM     15  C   UNL     1      -3.661   9.208   0.371  0.00  0.00    -0.035 C 
ATOM     16  C   UNL     1      -3.088  10.547   0.838  0.00  0.00    +0.011 C 
ATOM     17  C   UNL     1      -4.079   9.315  -1.097  0.00  0.00    +0.011 C 
ENDBRANCH   5  15
ENDBRANCH   1  11
BRANCH   3  18
ATOM     18  N   UNL     1       0.002  -0.004   0.002  0.00  0.00    -0.233 N 
ATOM     19  C   UNL     1       1.178  -0.662  -0.013  0.00  0.00    +0.246 C 
ATOM     20  O   UNL     1       2.220  -0.041  -0.019  0.00  0.00    -0.273 OA
ATOM     21  H   UNL     1      -0.831  -0.500   0.007  0.00  0.00    +0.173 HD
BRANCH  19  22
ATOM     22  C   UNL     1       1.199  -2.169  -0.021  0.00  0.00    +0.205 C 
BRANCH  22  23
ATOM     23  N   UNL     1       2.586  -2.638  -0.037  0.00  0.00    -0.283 N 
ATOM     24  C   UNL     1       3.248  -2.865  -1.301  0.00  0.00    +0.120 C 
ATOM     25  C   UNL     1       4.703  -3.353  -1.148  0.00  0.00    +0.098 C 
ATOM     26  S   UNL     1       4.858  -3.409   0.678  0.00  0.00    -0.066 S 
ATOM     27  C   UNL     1       3.224  -2.857   1.122  0.00  0.00    +0.275 C 
ATOM     28  O   UNL     1       2.779  -2.709   2.244  0.00  0.00    -0.263 OA
ENDBRANCH  22  23
ENDBRANCH  19  22
ENDBRANCH   3  18
TORSDOF 5
