REMARK  Name = ZINC04193821
REMARK  6 active torsions:
REMARK  status: ('A' for Active; 'I' for Inactive)
REMARK    1  A    between atoms: C_1  and  C_2
REMARK    2  A    between atoms: C_2  and  C_3
REMARK    3  A    between atoms: C_2  and  N_4
REMARK    4  A    between atoms: C_8  and  N_12
REMARK    5  A    between atoms: N_12  and  C_13
REMARK    6  A    between atoms: C_19  and  N_23
REMARK                            x       y       z     vdW  Elec       q    Type
REMARK                         _______ _______ _______ _____ _____    ______ ____
ROOT
ATOM      1  C   UNL     1      -4.310  -1.777  -2.948  0.00  0.00    +0.037 A 
ATOM      2  C   UNL     1      -3.608  -2.940  -3.191  0.00  0.00    +0.023 A 
ATOM      3  C   UNL     1      -3.930  -3.750  -4.276  0.00  0.00    +0.002 A 
ATOM      4  C   UNL     1      -4.942  -3.419  -5.124  0.00  0.00    +0.009 A 
ATOM      5  C   UNL     1      -5.681  -2.243  -4.910  0.00  0.00    -0.014 A 
ATOM      6  C   UNL     1      -5.366  -1.413  -3.807  0.00  0.00    +0.024 A 
ATOM      7  C   UNL     1      -6.112  -0.236  -3.591  0.00  0.00    +0.034 A 
ATOM      8  C   UNL     1      -7.138   0.084  -4.455  0.00  0.00    +0.023 A 
ATOM      9  C   UNL     1      -7.443  -0.742  -5.533  0.00  0.00    +0.002 A 
ATOM     10  C   UNL     1      -6.731  -1.878  -5.772  0.00  0.00    +0.009 A 
ENDROOT
BRANCH   7  11
ATOM     11  N   UNL     1      -5.815   0.596  -2.514  0.00  0.00    -0.357 N 
ATOM     12  H   UNL     1      -4.925   0.971  -2.421  0.00  0.00    +0.142 HD
ATOM     13  H   UNL     1      -6.498   0.800  -1.856  0.00  0.00    +0.142 HD
ENDBRANCH   7  11
BRANCH   1  14
ATOM     14  N   UNL     1      -3.980  -0.973  -1.859  0.00  0.00    -0.332 N 
ATOM     15  H   UNL     1      -4.553  -0.230  -1.614  0.00  0.00    +0.147 HD
BRANCH  14  20
ATOM     16  N   UNL     1      -1.123   0.355  -0.709  0.00  0.00    -0.238 N 
ATOM     17  C   UNL     1      -1.789   0.314   0.452  0.00  0.00    +0.224 C 
ATOM     18  O   UNL     1      -1.537   0.985   1.430  0.00  0.00    -0.275 OA
ATOM     19  C   UNL     1      -2.904  -0.703   0.351  0.00  0.00    +0.128 C 
ATOM     20  C   UNL     1      -2.767  -1.249  -1.085  0.00  0.00    +0.166 C 
ATOM     21  C   UNL     1      -1.592  -0.478  -1.646  0.00  0.00    +0.243 C 
ATOM     22  O   UNL     1      -1.144  -0.598  -2.767  0.00  0.00    -0.273 OA
BRANCH  16  24
ATOM     23  C   UNL     1      -0.420   2.697  -0.750  0.00  0.00    +0.028 C 
ATOM     24  C   UNL     1       0.019   1.243  -0.937  0.00  0.00    +0.078 C 
ATOM     25  C   UNL     1       1.129   0.912   0.062  0.00  0.00    +0.028 C 
ENDBRANCH  16  24
ENDBRANCH  14  20
ENDBRANCH   1  14
TORSDOF 4
