REMARK  Name = ZINC63303134
REMARK  6 active torsions:
REMARK  status: ('A' for Active; 'I' for Inactive)
REMARK    1  A    between atoms: C_1  and  C_2
REMARK    2  A    between atoms: C_3  and  C_12
REMARK    3  A    between atoms: N_14  and  C_15
REMARK    4  A    between atoms: C_15  and  C_17
REMARK    5  A    between atoms: C_15  and  C_18
REMARK    6  A    between atoms: C_18  and  C_19
REMARK                            x       y       z     vdW  Elec       q    Type
REMARK                         _______ _______ _______ _____ _____    ______ ____
ROOT
ATOM      1  C   UNL     1      -0.008  -0.258  -2.567  0.00  0.00    +0.253 C 
ATOM      2  O   UNL     1      -0.025   0.936  -2.804  0.00  0.00    -0.270 OA
ATOM      3  N   UNL     1      -0.001  -1.146  -3.581  0.00  0.00    -0.308 N 
ATOM      4  H   UNL     1       0.014  -2.097  -3.392  0.00  0.00    +0.149 HD
ENDROOT
BRANCH   1   7
ATOM      5  C   UNL     1      -0.018   1.503   0.010  0.00  0.00    +0.067 C 
ATOM      6  C   UNL     1       0.002  -0.004   0.002  0.00  0.00    +0.060 A 
ATOM      7  C   UNL     1       0.006  -0.729  -1.181  0.00  0.00    +0.098 A 
ATOM      8  S   UNL     1       0.032  -2.397  -0.543  0.00  0.00    -0.044 S 
ATOM      9  C   UNL     1       0.035  -2.020   1.097  0.00  0.00    +0.178 A 
ATOM     10  N   UNL     1       0.022  -0.700   1.111  0.00  0.00    -0.227 NA
ATOM     11  N   UNL     1       0.052  -2.890   2.179  0.00  0.00    -0.302 N 
ATOM     12  C   UNL     1       0.075  -4.256   2.104  0.00  0.00    +0.093 A 
ATOM     13  C   UNL     1       0.086  -4.745   3.360  0.00  0.00    +0.019 A 
ATOM     14  C   UNL     1       0.068  -3.647   4.244  0.00  0.00    +0.019 A 
ATOM     15  C   UNL     1       0.053  -2.525   3.497  0.00  0.00    +0.093 A 
ENDBRANCH   1   7
BRANCH   3  16
ATOM     16  C   UNL     1      -0.014  -0.674  -4.968  0.00  0.00    +0.074 C 
ATOM     17  C   UNL     1      -1.457  -0.411  -5.403  0.00  0.00    +0.028 C 
BRANCH  16  18
ATOM     18  C   UNL     1       0.606  -1.739  -5.875  0.00  0.00    +0.055 C 
BRANCH  18  19
ATOM     19  C   UNL     1       2.062  -1.911  -5.526  0.00  0.00    -0.040 C 
ATOM     20  C   UNL     1       2.596  -2.833  -4.694  0.00  0.00    -0.001 A 
ATOM     21  C   UNL     1       2.003  -3.912  -3.893  0.00  0.00    +0.010 A 
ATOM     22  C   UNL     1       2.812  -4.689  -3.139  0.00  0.00    +0.001 A 
ATOM     23  C   UNL     1       4.200  -4.492  -3.103  0.00  0.00    +0.002 A 
ATOM     24  C   UNL     1       4.817  -3.522  -3.810  0.00  0.00    +0.026 A 
ATOM     25  C   UNL     1       4.063  -2.646  -4.638  0.00  0.00    +0.043 A 
ATOM     26  N   UNL     1       4.422  -1.646  -5.406  0.00  0.00    -0.380 N 
ATOM     27  C   UNL     1       3.223  -1.089  -6.042  0.00  0.00    +0.144 C 
ATOM     28  H   UNL     1       5.330  -1.330  -5.536  0.00  0.00    +0.160 HD
ENDBRANCH  18  19
ENDBRANCH  16  18
ENDBRANCH   3  16
TORSDOF 4
