REMARK  Name = ZINC59771022
REMARK  2 active torsions:
REMARK  status: ('A' for Active; 'I' for Inactive)
REMARK    1  A    between atoms: C_7  and  C_9
REMARK    2  A    between atoms: C_15  and  C_17
REMARK                            x       y       z     vdW  Elec       q    Type
REMARK                         _______ _______ _______ _____ _____    ______ ____
ROOT
ATOM      1  C   UNL     1       4.770  -2.424  -0.057  0.00  0.00    +0.305 C 
ATOM      2  O   UNL     1       4.252  -3.522  -0.059  0.00  0.00    -0.265 OA
ATOM      3  N   UNL     1       6.113  -2.312  -0.069  0.00  0.00    -0.255 N 
ATOM      4  C   UNL     1       6.904  -3.452  -0.084  0.00  0.00    +0.188 A 
ATOM      5  N   UNL     1       6.556  -4.732  -0.093  0.00  0.00    -0.126 NA
ATOM      6  N   UNL     1       7.416  -5.655  -0.106  0.00  0.00    -0.144 NA
ATOM      7  C   UNL     1       8.711  -5.408  -0.110  0.00  0.00    +0.107 A 
ATOM      8  S   UNL     1       8.687  -3.618  -0.101  0.00  0.00    -0.035 S 
ATOM      9  H   UNL     1       6.527  -1.435  -0.068  0.00  0.00    +0.157 HD
ENDROOT
BRANCH   1  16
ATOM     10  C   UNL     1      -0.022   1.786   0.012  0.00  0.00    +0.183 A 
ATOM     11  N   UNL     1       1.273   2.034   0.001  0.00  0.00    -0.148 NA
ATOM     12  N   UNL     1       2.133   1.111  -0.012  0.00  0.00    -0.126 NA
ATOM     13  C   UNL     1       1.785  -0.169  -0.016  0.00  0.00    +0.188 A 
ATOM     14  S   UNL     1       0.002  -0.004   0.002  0.00  0.00    -0.039 S 
ATOM     15  N   UNL     1       2.576  -1.310  -0.030  0.00  0.00    -0.255 N 
ATOM     16  C   UNL     1       3.919  -1.198  -0.042  0.00  0.00    +0.305 C 
ATOM     17  O   UNL     1       4.437  -0.100  -0.041  0.00  0.00    -0.265 OA
ATOM     18  H   UNL     1       2.163  -2.187  -0.031  0.00  0.00    +0.157 HD
ENDBRANCH   1  16
BRANCH   7  19
ATOM     19  C   UNL     1       9.879  -6.360  -0.124  0.00  0.00    +0.047 C 
ATOM     20  C   UNL     1       9.813  -7.230  -1.381  0.00  0.00    +0.010 C 
ATOM     21  C   UNL     1      10.998  -8.197  -1.395  0.00  0.00    +0.001 C 
ATOM     22  C   UNL     1      10.943  -9.090  -0.154  0.00  0.00    +0.000 C 
ATOM     23  C   UNL     1      11.009  -8.220   1.103  0.00  0.00    +0.001 C 
ATOM     24  C   UNL     1       9.824  -7.253   1.117  0.00  0.00    +0.010 C 
ENDBRANCH   7  19
TORSDOF 2
