REMARK  Name = ZINC53266826
REMARK  9 active torsions:
REMARK  status: ('A' for Active; 'I' for Inactive)
REMARK    1  A    between atoms: C_1  and  C_2
REMARK    2  A    between atoms: N_6  and  C_14
REMARK    3  A    between atoms: C_14  and  C_15
REMARK    4  A    between atoms: C_15  and  C_16
REMARK    5  A    between atoms: N_18  and  C_19
REMARK    6  A    between atoms: C_19  and  C_20
REMARK    7  A    between atoms: C_20  and  N_26
REMARK    8  A    between atoms: N_26  and  C_27
REMARK    9  A    between atoms: N_26  and  C_28
REMARK                            x       y       z     vdW  Elec       q    Type
REMARK                         _______ _______ _______ _____ _____    ______ ____
ROOT
ATOM      1  C   UNL     1      -4.359  -3.815  -0.789  0.00  0.00    +0.214 C 
ATOM      2  O   UNL     1      -5.074  -3.555   0.155  0.00  0.00    -0.276 OA
ATOM      3  N   UNL     1      -4.831  -4.561  -1.808  0.00  0.00    -0.317 N 
ATOM      4  H   UNL     1      -4.259  -4.769  -2.563  0.00  0.00    +0.149 HD
ENDROOT
BRANCH   1   5
ATOM      5  C   UNL     1      -2.942  -3.303  -0.825  0.00  0.00    +0.115 C 
BRANCH   5   6
ATOM      6  C   UNL     1      -2.662  -2.490   0.441  0.00  0.00    +0.123 C 
BRANCH   6  11
ATOM      7  C   UNL     1       0.454   1.214  -0.185  0.00  0.00    +0.062 C 
ATOM      8  C   UNL     1       0.427  -0.316  -0.209  0.00  0.00    +0.256 C 
ATOM      9  C   UNL     1      -1.002  -0.794  -0.149  0.00  0.00    +0.260 C 
ATOM     10  O   UNL     1      -1.894  -0.105  -0.598  0.00  0.00    -0.271 OA
ATOM     11  N   UNL     1      -1.284  -1.992   0.407  0.00  0.00    -0.265 N 
ATOM     12  C   UNL     1      -0.239  -2.752   0.950  0.00  0.00    +0.078 A 
ATOM     13  C   UNL     1      -0.415  -4.096   1.236  0.00  0.00    +0.027 A 
ATOM     14  C   UNL     1       0.628  -4.828   1.773  0.00  0.00    +0.002 A 
ATOM     15  C   UNL     1       1.846  -4.221   2.024  0.00  0.00    +0.004 A 
ATOM     16  C   UNL     1       2.028  -2.880   1.741  0.00  0.00    +0.047 A 
ATOM     17  C   UNL     1       0.988  -2.142   1.203  0.00  0.00    +0.143 A 
ATOM     18  O   UNL     1       1.150  -0.823   0.916  0.00  0.00    -0.478 OA
ENDBRANCH   6  11
ENDBRANCH   5   6
ENDBRANCH   1   5
BRANCH   3  19
ATOM     19  C   UNL     1      -6.209  -5.059  -1.773  0.00  0.00    +0.092 C 
BRANCH  19  20
ATOM     20  C   UNL     1      -6.535  -5.749  -3.099  0.00  0.00    -0.050 C 
ATOM     21  C   UNL     1      -8.010  -6.154  -3.114  0.00  0.00    -0.010 C 
ATOM     22  C   UNL     1      -8.286  -7.116  -1.957  0.00  0.00    -0.001 C 
ATOM     23  C   UNL     1      -7.413  -8.363  -2.111  0.00  0.00    -0.000 C 
ATOM     24  C   UNL     1      -5.938  -7.958  -2.097  0.00  0.00    -0.001 C 
ATOM     25  C   UNL     1      -5.662  -6.996  -3.254  0.00  0.00    -0.010 C 
BRANCH  20  26
ATOM     26  N   UNL     1      -6.270  -4.825  -4.210  0.00  0.00    +0.381 N 
ATOM     27  C   UNL     1      -6.616  -5.475  -5.481  0.00  0.00    -0.096 C 
ATOM     28  C   UNL     1      -7.082  -3.612  -4.043  0.00  0.00    -0.096 C 
ATOM     29  H   UNL     1      -5.292  -4.577  -4.215  0.00  0.00    -0.082 HD
ENDBRANCH  20  26
ENDBRANCH  19  20
ENDBRANCH   3  19
TORSDOF 6
