REMARK  Name = ZINC40569526
REMARK  11 active torsions:
REMARK  status: ('A' for Active; 'I' for Inactive)
REMARK    1  A    between atoms: C_1  and  C_2
REMARK    2  A    between atoms: C_2  and  C_3
REMARK    3  A    between atoms: C_3  and  C_4
REMARK    4  A    between atoms: N_10  and  C_11
REMARK    5  A    between atoms: C_11  and  C_12
REMARK    6  A    between atoms: C_12  and  N_13
REMARK    7  A    between atoms: N_13  and  C_14
REMARK    8  A    between atoms: N_13  and  C_15
REMARK    9  A    between atoms: C_16  and  C_24
REMARK   10  A    between atoms: C_18  and  C_22
REMARK   11  A    between atoms: C_19  and  N_21
REMARK                            x       y       z     vdW  Elec       q    Type
REMARK                         _______ _______ _______ _____ _____    ______ ____
ROOT
ATOM      1  C   UNL     1      -1.401  -2.042   0.131  0.00  0.00    +0.025 A 
ATOM      2  C   UNL     1      -1.565  -2.621   1.340  0.00  0.00    +0.068 A 
ATOM      3  C   UNL     1      -1.597  -4.027   1.445  0.00  0.00    +0.141 A 
ATOM      4  C   UNL     1      -1.459  -4.785   0.301  0.00  0.00    +0.072 A 
ATOM      5  C   UNL     1      -1.291  -4.141  -0.931  0.00  0.00    +0.259 A 
ATOM      6  O   UNL     1      -1.167  -4.799  -1.952  0.00  0.00    -0.267 OA
ATOM      7  N   UNL     1      -1.271  -2.796  -0.992  0.00  0.00    -0.314 N 
ATOM      8  C   UNL     1      -1.489  -6.287   0.367  0.00  0.00    +0.103 C 
ATOM      9  C   UNL     1      -1.278  -6.748   1.782  0.00  0.00    +0.098 C 
ATOM     10  C   UNL     1      -1.423  -5.898   2.826  0.00  0.00    +0.199 C 
ATOM     11  O   UNL     1      -1.761  -4.609   2.652  0.00  0.00    -0.441 OA
ENDROOT
BRANCH   8  12
ATOM     12  C   UNL     1      -2.825  -6.782  -0.123  0.00  0.00    -0.034 A 
ATOM     13  C   UNL     1      -3.985  -6.390   0.519  0.00  0.00    +0.006 A 
ATOM     14  C   UNL     1      -5.211  -6.844   0.070  0.00  0.00    +0.020 A 
ATOM     15  C   UNL     1      -5.277  -7.690  -1.022  0.00  0.00    +0.041 A 
ATOM     16  C   UNL     1      -4.117  -8.082  -1.664  0.00  0.00    +0.020 A 
ATOM     17  C   UNL     1      -2.892  -7.623  -1.218  0.00  0.00    +0.006 A 
ATOM     18 CL   UNL     1      -6.817  -8.261  -1.586  0.00  0.00    -0.084 Cl
ENDBRANCH   8  12
BRANCH  10  19
ATOM     19  N   UNL     1      -1.221  -6.367   4.100  0.00  0.00    -0.328 N 
ATOM     20  H   UNL     1      -0.977  -7.296   4.242  0.00  0.00    +0.145 HD
ATOM     21  H   UNL     1      -1.321  -5.771   4.859  0.00  0.00    +0.145 HD
ENDBRANCH  10  19
BRANCH   9  22
ATOM     22  C   UNL     1      -0.918  -8.112   2.031  0.00  0.00    +0.101 C 
ATOM     23  N   UNL     1      -0.632  -9.193   2.229  0.00  0.00    -0.191 NA
ENDBRANCH   9  22
BRANCH   1  24
ATOM     24  C   UNL     1      -1.368  -0.539   0.025  0.00  0.00    +0.053 C 
BRANCH  24  26
ATOM     25  C   UNL     1      -2.767   1.514  -0.236  0.00  0.00    +0.004 C 
ATOM     26  C   UNL     1      -2.779  -0.016  -0.248  0.00  0.00    +0.003 C 
ENDBRANCH  24  26
ENDBRANCH   1  24
BRANCH   7  27
ATOM     27  C   UNL     1      -1.100  -2.135  -2.288  0.00  0.00    +0.106 C 
BRANCH  27  28
ATOM     28  C   UNL     1       0.392  -2.003  -2.600  0.00  0.00    -0.058 C 
BRANCH  28  29
ATOM     29  N   UNL     1       0.562  -1.454  -3.952  0.00  0.00    +0.377 N 
ATOM     30  C   UNL     1       0.034  -0.084  -3.994  0.00  0.00    -0.097 C 
ATOM     31  C   UNL     1       1.990  -1.438  -4.298  0.00  0.00    -0.097 C 
ATOM     32  H   UNL     1       0.062  -2.028  -4.614  0.00  0.00    -0.083 HD
ENDBRANCH  28  29
ENDBRANCH  27  28
ENDBRANCH   7  27
TORSDOF 8
