REMARK  Name = ZINC12706142
REMARK  8 active torsions:
REMARK  status: ('A' for Active; 'I' for Inactive)
REMARK    1  A    between atoms: C_1  and  O_2
REMARK    2  A    between atoms: O_2  and  C_3
REMARK    3  A    between atoms: C_6  and  N_11
REMARK    4  A    between atoms: C_7  and  O_9
REMARK    5  A    between atoms: O_9  and  C_10
REMARK    6  A    between atoms: C_13  and  C_23
REMARK    7  A    between atoms: N_25  and  C_26
REMARK    8  A    between atoms: C_26  and  C_27
REMARK                            x       y       z     vdW  Elec       q    Type
REMARK                         _______ _______ _______ _____ _____    ______ ____
ROOT
ATOM      1  N   UNL     1      -4.685  -1.065  -6.159  0.00  0.00    -0.209 NA
ATOM      2  C   UNL     1      -4.234   0.150  -6.378  0.00  0.00    +0.233 A 
ATOM      3  C   UNL     1      -3.462   0.873  -5.346  0.00  0.00    +0.099 A 
ATOM      4  C   UNL     1      -2.570   1.840  -5.787  0.00  0.00    +0.030 A 
ATOM      5  C   UNL     1      -2.464   2.051  -7.233  0.00  0.00    +0.020 A 
ATOM      6  C   UNL     1      -1.409   2.796  -7.774  0.00  0.00    +0.031 A 
ATOM      7  C   UNL     1      -1.333   2.977  -9.138  0.00  0.00    +0.042 A 
ATOM      8  C   UNL     1      -2.294   2.424  -9.974  0.00  0.00    +0.023 A 
ATOM      9  C   UNL     1      -3.340   1.689  -9.454  0.00  0.00    +0.048 A 
ATOM     10  C   UNL     1      -3.438   1.496  -8.084  0.00  0.00    +0.138 A 
ATOM     11  O   UNL     1      -4.462   0.779  -7.560  0.00  0.00    -0.437 OA
ATOM     12 CL   UNL     1      -0.027   3.899  -9.814  0.00  0.00    -0.084 Cl
ENDROOT
BRANCH   1  16
ATOM     13  C   UNL     1      -7.128  -2.902  -8.957  0.00  0.00    +0.124 A 
ATOM     14  C   UNL     1      -5.757  -3.120  -8.982  0.00  0.00    +0.048 A 
ATOM     15  C   UNL     1      -4.940  -2.510  -8.053  0.00  0.00    +0.035 A 
ATOM     16  C   UNL     1      -5.492  -1.672  -7.083  0.00  0.00    +0.109 A 
ATOM     17  C   UNL     1      -6.877  -1.458  -7.056  0.00  0.00    +0.149 A 
ATOM     18  C   UNL     1      -7.686  -2.071  -7.996  0.00  0.00    +0.093 A 
BRANCH  13  20
ATOM     19  C   UNL     1      -7.288  -4.351 -10.836  0.00  0.00    +0.277 C 
ATOM     20  O   UNL     1      -7.927  -3.507  -9.876  0.00  0.00    -0.495 OA
ENDBRANCH  13  20
BRANCH  17  21
ATOM     21  O   UNL     1      -7.423  -0.648  -6.111  0.00  0.00    -0.493 OA
ATOM     22  C   UNL     1      -8.841  -0.477  -6.144  0.00  0.00    +0.277 C 
ENDBRANCH  17  21
ENDBRANCH   1  16
BRANCH   3  23
ATOM     23  C   UNL     1      -3.636   0.583  -3.913  0.00  0.00    +0.249 C 
ATOM     24  O   UNL     1      -4.430  -0.267  -3.556  0.00  0.00    -0.270 OA
ATOM     25  N   UNL     1      -2.917   1.260  -2.996  0.00  0.00    -0.309 N 
ATOM     26  H   UNL     1      -2.284   1.938  -3.281  0.00  0.00    +0.149 HD
BRANCH  25  27
ATOM     27  C   UNL     1      -3.090   0.973  -1.570  0.00  0.00    +0.136 C 
BRANCH  27  28
ATOM     28  C   UNL     1      -2.163   1.873  -0.752  0.00  0.00    +0.135 C 
ATOM     29  C   UNL     1      -2.331   1.569   0.752  0.00  0.00    +0.035 C 
ATOM     30  C   UNL     1      -0.869   1.664   1.275  0.00  0.00    +0.031 C 
ATOM     31  C   UNL     1      -0.087   1.119   0.052  0.00  0.00    +0.160 C 
ATOM     32  O   UNL     1      -0.798   1.607  -1.097  0.00  0.00    -0.375 OA
ENDBRANCH  27  28
ENDBRANCH  25  27
ENDBRANCH   3  23
TORSDOF 6
