REMARK  Name = ZINC22853760
REMARK  6 active torsions:
REMARK  status: ('A' for Active; 'I' for Inactive)
REMARK    1  A    between atoms: C_1  and  C_2
REMARK    2  A    between atoms: C_2  and  C_3
REMARK    3  A    between atoms: C_9  and  C_11
REMARK    4  A    between atoms: C_11  and  C_13
REMARK    5  A    between atoms: C_11  and  N_20
REMARK    6  A    between atoms: C_23  and  C_26
REMARK                            x       y       z     vdW  Elec       q    Type
REMARK                         _______ _______ _______ _____ _____    ______ ____
ROOT
ATOM      1  C   UNL     1       1.406  -2.157  -0.022  0.00  0.00    +0.006 C 
ENDROOT
BRANCH   1   8
ATOM      2  C   UNL     1      -0.314   3.552   0.025  0.00  0.00    +0.152 A 
ATOM      3  N   UNL     1       0.994   3.301   0.011  0.00  0.00    -0.205 NA
ATOM      4  C   UNL     1       1.185   2.010   0.002  0.00  0.00    +0.199 A 
ATOM      5  N   UNL     1      -0.017   1.370   0.010  0.00  0.00    -0.170 N 
ATOM      6  N   UNL     1      -0.969   2.422   0.030  0.00  0.00    -0.146 NA
ATOM      7  C   UNL     1       0.002  -0.004   0.002  0.00  0.00    +0.282 A 
ATOM      8  C   UNL     1       1.163  -0.670  -0.013  0.00  0.00    +0.050 A 
ATOM      9  S   UNL     1       2.348   0.667  -0.017  0.00  0.00    -0.050 S 
ATOM     10  O   UNL     1      -1.171  -0.694   0.010  0.00  0.00    -0.265 OA
BRANCH   2  12
ATOM     11  C   UNL     1      -1.165   5.396  -1.397  0.00  0.00    +0.012 C 
ATOM     12  C   UNL     1      -0.939   4.923   0.040  0.00  0.00    +0.075 C 
ENDBRANCH   2  12
ENDBRANCH   1   8
BRANCH   1  13
ATOM     13  C   UNL     1       1.837  -2.587  -1.401  0.00  0.00    -0.056 A 
ATOM     14  C   UNL     1       3.145  -2.399  -1.806  0.00  0.00    +0.005 A 
ATOM     15  C   UNL     1       3.543  -2.798  -3.068  0.00  0.00    +0.038 A 
ATOM     16  C   UNL     1       2.627  -3.374  -3.932  0.00  0.00    +0.123 A 
ATOM     17  C   UNL     1       1.315  -3.556  -3.528  0.00  0.00    +0.038 A 
ATOM     18  C   UNL     1       0.921  -3.163  -2.263  0.00  0.00    +0.005 A 
ATOM     19  F   UNL     1       3.013  -3.758  -5.168  0.00  0.00    -0.205 F 
ENDBRANCH   1  13
BRANCH   1  20
ATOM     20  N   UNL     1       2.461  -2.487   0.945  0.00  0.00    +0.387 N 
ATOM     21  C   UNL     1       2.796  -3.916   0.892  0.00  0.00    -0.077 C 
ATOM     22  C   UNL     1       3.992  -4.196   1.804  0.00  0.00    -0.006 C 
ATOM     23  C   UNL     1       3.642  -3.787   3.237  0.00  0.00    +0.071 C 
ATOM     24  C   UNL     1       3.251  -2.307   3.257  0.00  0.00    -0.006 C 
ATOM     25  C   UNL     1       2.075  -2.082   2.303  0.00  0.00    -0.077 C 
ATOM     26  H   UNL     1       3.363  -1.921   0.670  0.00  0.00    -0.080 HD
BRANCH  23  27
ATOM     27  C   UNL     1       4.836  -4.004   4.130  0.00  0.00    +0.213 C 
ATOM     28  O   UNL     1       5.327  -3.068   4.725  0.00  0.00    -0.276 OA
ATOM     29  N   UNL     1       5.359  -5.239   4.269  0.00  0.00    -0.329 N 
ATOM     30  H   UNL     1       6.230  -5.397   4.921  0.00  0.00    +0.145 HD
ATOM     31  H   UNL     1       4.913  -6.088   3.730  0.00  0.00    +0.145 HD
ENDBRANCH  23  27
ENDBRANCH   1  20
TORSDOF 5
