REMARK  Name = ZINC09435670
REMARK  10 active torsions:
REMARK  status: ('A' for Active; 'I' for Inactive)
REMARK    1  A    between atoms: C_1  and  C_2
REMARK    2  A    between atoms: C_2  and  C_3
REMARK    3  A    between atoms: C_3  and  N_4
REMARK    4  A    between atoms: C_6  and  S_23
REMARK    5  A    between atoms: C_12  and  N_16
REMARK    6  A    between atoms: C_21  and  C_22
REMARK    7  A    between atoms: C_21  and  N_66
REMARK    8  A    between atoms: S_23  and  C_26
REMARK    9  A    between atoms: C_28  and  C_33
REMARK   10  A    between atoms: C_30  and  C_32
REMARK                            x       y       z     vdW  Elec       q    Type
REMARK                         _______ _______ _______ _____ _____    ______ ____
ROOT
ATOM      1  N   UNL     1      -0.090   5.507   0.031  0.00  0.00    -0.345 N 
ATOM      2  C   UNL     1       1.064   6.220   0.023  0.00  0.00    +0.117 A 
ATOM      3  C   UNL     1       2.278   5.633   0.009  0.00  0.00    +0.157 A 
ATOM      4  C   UNL     1       2.385   4.222   0.001  0.00  0.00    +0.215 A 
ATOM      5  O   UNL     1       3.475   3.673  -0.013  0.00  0.00    -0.285 OA
ATOM      6  C   UNL     1       1.140   3.438   0.009  0.00  0.00    +0.050 A 
ATOM      7  C   UNL     1      -0.086   4.129   0.024  0.00  0.00    +0.055 A 
ATOM      8  C   UNL     1      -1.275   3.409   0.032  0.00  0.00    +0.052 A 
ATOM      9  C   UNL     1      -1.238   2.025   0.019  0.00  0.00    +0.067 A 
ATOM     10  C   UNL     1      -0.016   1.347   0.009  0.00  0.00    +0.145 A 
ATOM     11  C   UNL     1       1.160   2.042   0.002  0.00  0.00    +0.054 A 
ATOM     12  F   UNL     1       0.002  -0.004   0.002  0.00  0.00    -0.204 F 
ENDROOT
BRANCH   9  13
ATOM     13  N   UNL     1      -2.430   1.302   0.021  0.00  0.00    -0.331 N 
ATOM     14  C   UNL     1      -3.200   1.553  -1.205  0.00  0.00    +0.086 C 
ATOM     15  C   UNL     1      -4.459   0.683  -1.201  0.00  0.00    -0.060 C 
ATOM     16  C   UNL     1      -4.489   0.739   1.218  0.00  0.00    -0.060 C 
ATOM     17  C   UNL     1      -3.230   1.609   1.214  0.00  0.00    +0.086 C 
ATOM     18  N   UNL     1      -5.265   1.017  -0.008  0.00  0.00    +0.382 N 
ATOM     19  H   UNL     1      -5.501   2.016  -0.034  0.00  0.00    -0.082 HD
BRANCH  18  20
ATOM     20  C   UNL     1      -6.515   0.228  -0.006  0.00  0.00    -0.082 C 
ATOM     21  C   UNL     1      -7.167   0.315  -1.387  0.00  0.00    -0.017 C 
ENDBRANCH  18  20
ENDBRANCH   9  13
BRANCH   3  22
ATOM     22  S   UNL     1       3.733   6.626   0.000  0.00  0.00    +0.030 S 
ATOM     23  O   UNL     1       4.564   6.119  -1.036  0.00  0.00    -0.164 OA
ATOM     24  O   UNL     1       3.302   7.979   0.037  0.00  0.00    -0.164 OA
BRANCH  22  25
ATOM     25  C   UNL     1       4.579   6.324   1.516  0.00  0.00    +0.094 A 
ATOM     26  C   UNL     1       4.308   7.104   2.625  0.00  0.00    +0.030 A 
ATOM     27  C   UNL     1       4.968   6.865   3.816  0.00  0.00    -0.048 A 
ATOM     28  C   UNL     1       5.905   5.851   3.896  0.00  0.00    +0.006 A 
ATOM     29  C   UNL     1       6.180   5.075   2.785  0.00  0.00    -0.048 A 
ATOM     30  C   UNL     1       5.517   5.312   1.595  0.00  0.00    +0.030 A 
ATOM     31  C   UNL     1       7.202   3.971   2.872  0.00  0.00    +0.044 C 
ATOM     32  C   UNL     1       4.669   7.711   5.027  0.00  0.00    +0.044 C 
ENDBRANCH  22  25
ENDBRANCH   3  22
BRANCH   1  33
ATOM     33  C   UNL     1      -1.370   6.219   0.046  0.00  0.00    +0.121 C 
BRANCH  33  35
ATOM     34  C   UNL     1      -3.200   7.094   1.504  0.00  0.00    +0.005 C 
ATOM     35  C   UNL     1      -1.863   6.351   1.488  0.00  0.00    +0.018 C 
ENDBRANCH  33  35
ENDBRANCH   1  33
TORSDOF 6
