REMARK  Name = ZINC41637683
REMARK  3 active torsions:
REMARK  status: ('A' for Active; 'I' for Inactive)
REMARK    1  A    between atoms: C_3  and  C_6
REMARK    2  A    between atoms: C_6  and  C_8
REMARK    3  A    between atoms: C_6  and  N_17
REMARK                            x       y       z     vdW  Elec       q    Type
REMARK                         _______ _______ _______ _____ _____    ______ ____
ROOT
ATOM      1  C   UNL     1       3.761   1.845  -0.024  0.00  0.00    +0.012 C 
ENDROOT
BRANCH   1   2
ATOM      2  C   UNL     1       4.303   1.790  -1.429  0.00  0.00    +0.051 A 
ATOM      3  C   UNL     1       4.680   2.794  -2.230  0.00  0.00    +0.282 A 
ATOM      4  N   UNL     1       5.155   2.542  -3.494  0.00  0.00    -0.170 N 
ATOM      5  C   UNL     1       5.223   1.240  -3.886  0.00  0.00    +0.199 A 
ATOM      6  S   UNL     1       4.620   0.366  -2.461  0.00  0.00    -0.050 S 
ATOM      7  N   UNL     1       5.690   1.172  -5.103  0.00  0.00    -0.208 NA
ATOM      8  C   UNL     1       5.942   2.402  -5.546  0.00  0.00    +0.246 A 
ATOM      9  N   UNL     1       5.637   3.266  -4.615  0.00  0.00    -0.150 NA
ATOM     10  O   UNL     1       4.591   4.078  -1.787  0.00  0.00    -0.265 OA
ENDBRANCH   1   2
BRANCH   1  11
ATOM     11  N   UNL     1       4.589   1.008   0.854  0.00  0.00    +0.388 N 
ATOM     12  C   UNL     1       3.990   1.000   2.203  0.00  0.00    -0.077 C 
ATOM     13  C   UNL     1       4.428  -0.259   2.908  0.00  0.00    -0.019 C 
ATOM     14  C   UNL     1       5.656  -0.007   3.802  0.00  0.00    -0.002 C 
ATOM     15  C   UNL     1       6.679   0.925   3.120  0.00  0.00    -0.002 C 
ATOM     16  C   UNL     1       6.856   0.610   1.657  0.00  0.00    -0.019 C 
ATOM     17  C   UNL     1       5.898   1.494   0.831  0.00  0.00    -0.077 C 
ATOM     18  H   UNL     1       4.588   0.065   0.495  0.00  0.00    -0.080 HD
ENDBRANCH   1  11
BRANCH   1  21
ATOM     19  C   UNL     1      -0.016   1.351   0.009  0.00  0.00    +0.008 A 
ATOM     20  C   UNL     1       1.183   2.038   0.002  0.00  0.00    +0.010 A 
ATOM     21  C   UNL     1       2.343   1.336  -0.013  0.00  0.00    -0.019 A 
ATOM     22  S   UNL     1       1.754  -0.349  -0.017  0.00  0.00    -0.103 S 
ATOM     23  C   UNL     1       0.002  -0.004   0.002  0.00  0.00    +0.045 A 
ENDBRANCH   1  21
TORSDOF 3
