REMARK  Name = ZINC57422581
REMARK  10 active torsions:
REMARK  status: ('A' for Active; 'I' for Inactive)
REMARK    1  A    between atoms: C_4  and  C_8
REMARK    2  A    between atoms: C_8  and  C_9
REMARK    3  A    between atoms: C_9  and  N_10
REMARK    4  A    between atoms: N_13  and  C_14
REMARK    5  A    between atoms: C_14  and  C_16
REMARK    6  A    between atoms: C_14  and  C_18
REMARK    7  A    between atoms: C_16  and  O_17
REMARK    8  A    between atoms: C_18  and  C_20
REMARK    9  A    between atoms: C_18  and  O_29
REMARK   10  A    between atoms: C_23  and  N_26
REMARK                            x       y       z     vdW  Elec       q    Type
REMARK                         _______ _______ _______ _____ _____    ______ ____
ROOT
ATOM      1  N   UNK A   0       5.454  -1.678   1.381  0.00  0.00    -0.299 N 
ATOM      2  C   UNK A   0       6.054  -2.013   2.540  0.00  0.00    +0.300 C 
ATOM      3  O   UNK A   0       5.534  -1.722   3.600  0.00  0.00    -0.253 OA
ATOM      4  N   UNK A   1       7.230  -2.671   2.525  0.00  0.00    -0.292 N 
ATOM      5  H   UNK A   0       5.868  -1.910   0.535  0.00  0.00    +0.150 HD
ATOM      6  H   UNK A   1       7.645  -2.903   1.679  0.00  0.00    +0.151 HD
ENDROOT
BRANCH   1   7
ATOM      7  C   UNK A   0       4.175  -0.964   1.398  0.00  0.00    +0.110 C 
BRANCH   7   8
ATOM      8  C   UNK A   0       3.715  -0.707  -0.038  0.00  0.00    +0.059 C 
BRANCH   8  12
ATOM      9  C   UNK A   0      -0.017   1.378   0.010  0.00  0.00    +0.006 A 
ATOM     10  C   UNK A   0       1.170   2.086   0.002  0.00  0.00    +0.039 A 
ATOM     11  C   UNK A   0       2.379   1.412  -0.013  0.00  0.00    +0.129 A 
ATOM     12  C   UNK A   0       2.399   0.028  -0.021  0.00  0.00    +0.024 A 
ATOM     13  C   UNK A   0       1.210  -0.681  -0.013  0.00  0.00    +0.129 A 
ATOM     14  C   UNK A   0       0.002  -0.004   0.002  0.00  0.00    +0.039 A 
ATOM     15  F   UNK A   0       1.228  -2.031  -0.020  0.00  0.00    -0.205 F 
ATOM     16  F   UNK A   0       3.539   2.104  -0.022  0.00  0.00    -0.205 F 
ENDBRANCH   8  12
ENDBRANCH   7   8
ENDBRANCH   1   7
BRANCH   4  17
ATOM     17  C   UNK A   1       7.883  -3.035   3.785  0.00  0.00    +0.133 C 
BRANCH  17  18
ATOM     18  C   UNK A   1       7.315  -4.363   4.288  0.00  0.00    +0.181 C 
BRANCH  18  19
ATOM     19  O   UNK A   1       7.655  -5.405   3.371  0.00  0.00    -0.393 OA
ATOM     20  H   UNK A   1       7.327  -6.277   3.628  0.00  0.00    +0.209 HD
ENDBRANCH  18  19
ENDBRANCH  17  18
BRANCH  17  21
ATOM     21  C   UNK A   1       9.389  -3.178   3.557  0.00  0.00    +0.167 C 
BRANCH  21  22
ATOM     22  C   UNK A   1       9.949  -1.870   3.061  0.00  0.00    -0.017 A 
ATOM     23  C   UNK A   1       9.810  -1.518   1.731  0.00  0.00    +0.008 A 
ATOM     24  C   UNK A   1      10.323  -0.318   1.276  0.00  0.00    +0.033 A 
ATOM     25  C   UNK A   1      10.975   0.531   2.151  0.00  0.00    +0.126 A 
ATOM     26  C   UNK A   1      11.113   0.180   3.481  0.00  0.00    +0.033 A 
ATOM     27  C   UNK A   1      10.596  -1.018   3.937  0.00  0.00    +0.008 A 
BRANCH  25  28
ATOM     28  N   UNK A   1      11.525   1.816   1.664  0.00  0.00    +0.056 N 
ATOM     29  O   UNK A   1      11.405   2.123   0.501  0.00  0.00    -0.126 OA
ATOM     30  O   UNK A   1      12.095   2.558   2.429  0.00  0.00    -0.126 OA
ENDBRANCH  25  28
ENDBRANCH  21  22
BRANCH  21  31
ATOM     31  O   UNK A   1       9.628  -4.197   2.584  0.00  0.00    -0.385 OA
ATOM     32  H   UNK A   1       9.225  -4.022   1.723  0.00  0.00    +0.210 HD
ENDBRANCH  21  31
ENDBRANCH  17  21
ENDBRANCH   4  17
TORSDOF 10
