REMARK  Name = ZINC30993426
REMARK  2 active torsions:
REMARK  status: ('A' for Active; 'I' for Inactive)
REMARK    1  A    between atoms: C_1  and  C_2
REMARK    2  A    between atoms: N_14  and  C_15
REMARK                            x       y       z     vdW  Elec       q    Type
REMARK                         _______ _______ _______ _____ _____    ______ ____
ROOT
ATOM      1  C   UNL     1      -1.757  -1.309  -1.208  0.00  0.00    +0.033 C 
ATOM      2  C   UNL     1      -1.367  -0.692   0.136  0.00  0.00    +0.105 C 
ATOM      3  C   UNL     1      -1.210  -1.792   1.185  0.00  0.00    -0.017 A 
ATOM      4  C   UNL     1      -2.290  -2.473   1.745  0.00  0.00    +0.013 A 
ATOM      5  C   UNL     1      -2.076  -3.441   2.665  0.00  0.00    +0.046 A 
ATOM      6  S   UNL     1      -0.294  -3.439   2.793  0.00  0.00    -0.101 S 
ATOM      7  C   UNL     1       0.029  -2.152   1.616  0.00  0.00    -0.004 A 
ATOM      8  C   UNL     1       1.348  -1.590   1.193  0.00  0.00    +0.062 C 
ATOM      9  C   UNL     1       1.151  -0.803  -0.118  0.00  0.00    +0.115 C 
ATOM     10  N   UNL     1      -0.075  -0.003   0.011  0.00  0.00    -0.278 N 
ATOM     11  C   UNL     1      -0.016   1.344   0.009  0.00  0.00    +0.303 C 
ATOM     12  O   UNL     1       1.062   1.905   0.002  0.00  0.00    -0.253 OA
ATOM     13  N   UNL     1      -1.153   2.068   0.022  0.00  0.00    -0.296 N 
ATOM     14  H   UNL     1      -2.126   1.563   0.115  0.00  0.00    +0.151 HD
ENDROOT
BRANCH  13  15
ATOM     15  C   UNL     1      -1.092   3.528  -0.089  0.00  0.00    +0.074 C 
ATOM     16  C   UNL     1      -0.914   4.156   1.309  0.00  0.00    +0.022 C 
ATOM     17  C   UNL     1      -1.769   5.448   1.255  0.00  0.00    +0.002 C 
ATOM     18  C   UNL     1      -3.001   5.008   0.427  0.00  0.00    +0.002 C 
ATOM     19  C   UNL     1      -2.419   4.069  -0.649  0.00  0.00    +0.022 C 
ENDBRANCH  13  15
TORSDOF 1
