REMARK  Name = ZINC39519855
REMARK  9 active torsions:
REMARK  status: ('A' for Active; 'I' for Inactive)
REMARK    1  A    between atoms: C_1  and  C_2
REMARK    2  A    between atoms: C_2  and  C_3
REMARK    3  A    between atoms: C_2  and  S_4
REMARK    4  A    between atoms: S_4  and  C_7
REMARK    5  A    between atoms: C_13  and  S_26
REMARK    6  A    between atoms: N_18  and  C_19
REMARK    7  A    between atoms: C_19  and  C_20
REMARK    8  A    between atoms: S_26  and  O_29
REMARK    9  A    between atoms: O_29  and  C_30
REMARK                            x       y       z     vdW  Elec       q    Type
REMARK                         _______ _______ _______ _____ _____    ______ ____
ROOT
ATOM      1  C   UNL     1      -2.400   0.681  -2.008  0.00  0.00    +0.129 C 
ATOM      2  C   UNL     1      -2.350   2.195  -2.330  0.00  0.00    +0.025 C 
ATOM      3  C   UNL     1      -3.500   2.407  -3.337  0.00  0.00    -0.008 C 
ATOM      4  C   UNL     1      -4.496   1.259  -3.110  0.00  0.00    -0.037 C 
ATOM      5  C   UNL     1      -3.921   0.383  -1.978  0.00  0.00    +0.016 C 
ATOM      6  C   UNL     1      -4.628   0.425  -4.383  0.00  0.00    +0.161 C 
ATOM      7  C   UNL     1      -5.193   1.302  -5.505  0.00  0.00    +0.026 C 
ATOM      8  C   UNL     1      -6.528   1.899  -5.049  0.00  0.00    -0.017 C 
ATOM      9  C   UNL     1      -6.312   2.690  -3.757  0.00  0.00    -0.077 C 
ATOM     10  N   UNL     1      -5.798   1.796  -2.712  0.00  0.00    +0.387 N 
ATOM     11  H   UNL     1      -6.447   1.036  -2.573  0.00  0.00    -0.080 HD
ENDROOT
BRANCH   1  12
ATOM     12  S   UNL     1      -1.647   0.342  -0.393  0.00  0.00    -0.026 S 
ATOM     13  O   UNL     1      -1.653  -1.063  -0.181  0.00  0.00    -0.174 OA
ATOM     14  O   UNL     1      -2.255   1.189   0.573  0.00  0.00    -0.174 OA
BRANCH  12  16
ATOM     15  C   UNL     1       0.867   0.616   0.648  0.00  0.00    +0.031 C 
ATOM     16  C   UNL     1       0.069   0.880  -0.630  0.00  0.00    +0.125 C 
ATOM     17  C   UNL     1       0.692   0.102  -1.791  0.00  0.00    +0.031 C 
ENDBRANCH  12  16
ENDBRANCH   1  12
BRANCH   6  18
ATOM     18  S   UNL     1      -2.996  -0.202  -4.868  0.00  0.00    +0.122 S 
ATOM     19  O   UNL     1      -2.115   0.880  -5.134  0.00  0.00    -0.137 OA
ATOM     20  O   UNL     1      -2.604  -1.261  -4.005  0.00  0.00    -0.137 OA
BRANCH  18  21
ATOM     21  O   UNL     1      -3.218  -0.865  -6.220  0.00  0.00    -0.346 OA
BRANCH  21  22
ATOM     22  C   UNL     1      -3.837  -2.072  -6.149  0.00  0.00    +0.156 A 
ATOM     23  C   UNL     1      -3.095  -3.222  -5.920  0.00  0.00    +0.048 A 
ATOM     24  C   UNL     1      -3.727  -4.448  -5.848  0.00  0.00    +0.004 A 
ATOM     25  C   UNL     1      -5.098  -4.530  -6.005  0.00  0.00    +0.000 A 
ATOM     26  C   UNL     1      -5.841  -3.386  -6.233  0.00  0.00    +0.004 A 
ATOM     27  C   UNL     1      -5.214  -2.157  -6.300  0.00  0.00    +0.048 A 
ENDBRANCH  21  22
ENDBRANCH  18  21
ENDBRANCH   6  18
BRANCH  10  28
ATOM     28  C   UNL     1      -5.654   2.546  -1.457  0.00  0.00    -0.042 C 
BRANCH  28  29
ATOM     29  C   UNL     1      -7.008   3.017  -0.994  0.00  0.00    -0.064 A 
ATOM     30  C   UNL     1      -7.493   4.243  -1.407  0.00  0.00    +0.002 A 
ATOM     31  C   UNL     1      -8.735   4.675  -0.982  0.00  0.00    +0.000 A 
ATOM     32  C   UNL     1      -9.494   3.879  -0.144  0.00  0.00    +0.000 A 
ATOM     33  C   UNL     1      -9.010   2.652   0.269  0.00  0.00    +0.000 A 
ATOM     34  C   UNL     1      -7.769   2.219  -0.159  0.00  0.00    +0.002 A 
ENDBRANCH  28  29
ENDBRANCH  10  28
TORSDOF 7
