REMARK  Name = ZINC15045842
REMARK  10 active torsions:
REMARK  status: ('A' for Active; 'I' for Inactive)
REMARK    1  A    between atoms: C_1  and  C_2
REMARK    2  A    between atoms: C_2  and  C_4
REMARK    3  A    between atoms: C_2  and  N_46
REMARK    4  A    between atoms: N_6  and  C_7
REMARK    5  A    between atoms: C_10  and  N_14
REMARK    6  A    between atoms: C_17  and  N_46
REMARK    7  A    between atoms: C_18  and  C_19
REMARK    8  A    between atoms: C_18  and  N_46
REMARK    9  A    between atoms: C_19  and  O_20
REMARK   10  A    between atoms: O_20  and  C_21
REMARK                            x       y       z     vdW  Elec       q    Type
REMARK                         _______ _______ _______ _____ _____    ______ ____
ROOT
ATOM      1  C   UNL     1      -2.117   3.001   3.063  0.00  0.00    -0.004 C 
ATOM      2  C   UNL     1      -1.334   2.970   1.749  0.00  0.00    +0.016 C 
ENDROOT
BRANCH   2   3
ATOM      3  C   UNL     1      -2.191   3.523   0.639  0.00  0.00    +0.203 C 
ATOM      4  O   UNL     1      -2.882   2.777  -0.021  0.00  0.00    -0.277 OA
ATOM      5  N   UNL     1      -2.189   4.846   0.382  0.00  0.00    -0.286 N 
ATOM      6  H   UNL     1      -1.577   5.431   0.854  0.00  0.00    +0.155 HD
BRANCH   5   7
ATOM      7  C   UNL     1      -3.072   5.375  -0.567  0.00  0.00    +0.052 A 
ATOM      8  C   UNL     1      -4.195   4.653  -0.951  0.00  0.00    +0.027 A 
ATOM      9  C   UNL     1      -5.064   5.178  -1.888  0.00  0.00    +0.034 A 
ATOM     10  C   UNL     1      -4.818   6.421  -2.443  0.00  0.00    +0.128 A 
ATOM     11  C   UNL     1      -3.702   7.142  -2.063  0.00  0.00    +0.054 A 
ATOM     12  C   UNL     1      -2.830   6.625  -1.122  0.00  0.00    +0.064 A 
ATOM     13 CL   UNL     1      -1.433   7.535  -0.640  0.00  0.00    -0.082 Cl
BRANCH  10  14
ATOM     14  N   UNL     1      -5.752   6.980  -3.446  0.00  0.00    +0.056 N 
ATOM     15  O   UNL     1      -6.737   6.345  -3.781  0.00  0.00    -0.126 OA
ATOM     16  O   UNL     1      -5.537   8.074  -3.935  0.00  0.00    -0.126 OA
ENDBRANCH  10  14
ENDBRANCH   5   7
ENDBRANCH   2   3
BRANCH   2  18
ATOM     17  C   UNL     1      -0.213   1.515   0.171  0.00  0.00    -0.095 C 
ATOM     18  N   UNL     1      -0.983   1.570   1.431  0.00  0.00    +0.387 N 
ATOM     19  H   UNL     1      -1.847   1.027   1.318  0.00  0.00    -0.081 HD
BRANCH  18  20
ATOM     20  C   UNL     1      -0.190   0.986   2.534  0.00  0.00    -0.037 C 
BRANCH  20  21
ATOM     21  C   UNL     1      -0.157  -0.534   2.363  0.00  0.00    +0.211 C 
BRANCH  21  22
ATOM     22  O   UNL     1       0.557  -0.864   1.169  0.00  0.00    -0.491 OA
BRANCH  22  23
ATOM     23  C   UNL     1       0.679  -2.184   0.868  0.00  0.00    +0.155 A 
ATOM     24  C   UNL     1       0.129  -3.142   1.706  0.00  0.00    +0.048 A 
ATOM     25  C   UNL     1       0.251  -4.483   1.396  0.00  0.00    +0.004 A 
ATOM     26  C   UNL     1       0.929  -4.872   0.256  0.00  0.00    +0.003 A 
ATOM     27  C   UNL     1       1.484  -3.921  -0.580  0.00  0.00    +0.042 A 
ATOM     28  C   UNL     1       1.361  -2.576  -0.277  0.00  0.00    +0.165 A 
ATOM     29  F   UNL     1       1.903  -1.647  -1.093  0.00  0.00    -0.202 F 
ENDBRANCH  22  23
ENDBRANCH  21  22
ENDBRANCH  20  21
ENDBRANCH  18  20
ENDBRANCH   2  18
TORSDOF 8
