REMARK  Name = ZINC22462476
REMARK  5 active torsions:
REMARK  status: ('A' for Active; 'I' for Inactive)
REMARK    1  A    between atoms: C_4  and  C_7
REMARK    2  A    between atoms: C_7  and  C_8
REMARK    3  A    between atoms: C_10  and  C_13
REMARK    4  A    between atoms: C_18  and  N_19
REMARK    5  A    between atoms: C_20  and  C_22
REMARK                            x       y       z     vdW  Elec       q    Type
REMARK                         _______ _______ _______ _____ _____    ______ ____
ROOT
ATOM      1  C   UNL     1      -2.432   0.943   0.113  0.00  0.00    +0.061 A 
ATOM      2  C   UNL     1      -3.642   1.640   0.120  0.00  0.00    +0.015 A 
ATOM      3  C   UNL     1      -3.644   3.014   0.015  0.00  0.00    +0.001 A 
ATOM      4  C   UNL     1      -2.450   3.709  -0.091  0.00  0.00    +0.002 A 
ATOM      5  C   UNL     1      -1.246   3.034  -0.094  0.00  0.00    +0.024 A 
ATOM      6  C   UNL     1      -1.225   1.650   0.010  0.00  0.00    +0.046 A 
ENDROOT
BRANCH   1   9
ATOM      7  C   UNL     1      -2.986  -2.567   0.389  0.00  0.00    +0.176 A 
ATOM      8  N   UNL     1      -3.478  -1.320   0.325  0.00  0.00    -0.191 NA
ATOM      9  C   UNL     1      -2.423  -0.529   0.218  0.00  0.00    +0.260 A 
ATOM     10  O   UNL     1      -1.343  -1.326   0.229  0.00  0.00    -0.333 OA
ATOM     11  N   UNL     1      -1.690  -2.484   0.328  0.00  0.00    -0.061 NA
BRANCH   7  12
ATOM     12  C   UNL     1      -3.792  -3.835   0.515  0.00  0.00    +0.114 C 
BRANCH  12  16
ATOM     13  C   UNL     1      -4.380  -4.744   4.647  0.00  0.00    +0.000 A 
ATOM     14  C   UNL     1      -5.295  -3.955   3.976  0.00  0.00    +0.000 A 
ATOM     15  C   UNL     1      -5.105  -3.661   2.639  0.00  0.00    +0.004 A 
ATOM     16  C   UNL     1      -3.999  -4.155   1.973  0.00  0.00    -0.040 A 
ATOM     17  C   UNL     1      -3.086  -4.949   2.643  0.00  0.00    +0.004 A 
ATOM     18  C   UNL     1      -3.274  -5.239   3.982  0.00  0.00    +0.000 A 
ENDBRANCH  12  16
ENDBRANCH   7  12
ENDBRANCH   1   9
BRANCH   6  19
ATOM     19  N   UNL     1      -0.011   0.966   0.007  0.00  0.00    -0.278 N 
ATOM     20  C   UNL     1       1.073   1.516   0.589  0.00  0.00    +0.284 C 
ATOM     21  O   UNL     1       1.014   2.642   1.046  0.00  0.00    -0.266 OA
ATOM     22  H   UNL     1       0.062  -0.023  -0.469  0.00  0.00    +0.155 HD
BRANCH  20  23
ATOM     23  C   UNL     1       2.328   0.755   0.670  0.00  0.00    +0.191 A 
ATOM     24  C   UNL     1       3.480   1.206   1.232  0.00  0.00    +0.063 A 
ATOM     25  C   UNL     1       4.452   0.123   1.086  0.00  0.00    +0.021 A 
ATOM     26  C   UNL     1       5.792  -0.038   1.448  0.00  0.00    +0.011 A 
ATOM     27  C   UNL     1       6.435  -1.209   1.160  0.00  0.00    +0.001 A 
ATOM     28  C   UNL     1       5.766  -2.237   0.510  0.00  0.00    +0.004 A 
ATOM     29  C   UNL     1       4.445  -2.098   0.145  0.00  0.00    +0.047 A 
ATOM     30  C   UNL     1       3.770  -0.916   0.426  0.00  0.00    +0.136 A 
ATOM     31  O   UNL     1       2.508  -0.498   0.204  0.00  0.00    -0.450 OA
ENDBRANCH  20  23
ENDBRANCH   6  19
TORSDOF 5
