REMARK  Name = ZINC40146962
REMARK  8 active torsions:
REMARK  status: ('A' for Active; 'I' for Inactive)
REMARK    1  A    between atoms: C_1  and  C_2
REMARK    2  A    between atoms: C_2  and  C_3
REMARK    3  A    between atoms: C_3  and  C_4
REMARK    4  A    between atoms: C_4  and  C_6
REMARK    5  A    between atoms: C_4  and  N_22
REMARK    6  A    between atoms: C_11  and  C_14
REMARK    7  A    between atoms: N_25  and  C_26
REMARK    8  A    between atoms: C_26  and  C_27
REMARK                            x       y       z     vdW  Elec       q    Type
REMARK                         _______ _______ _______ _____ _____    ______ ____
ROOT
ATOM      1  C   UNL     1       0.761  -2.047   1.232  0.00  0.00    +0.160 C 
ENDROOT
BRANCH   1   2
ATOM      2  C   UNL     1       1.492  -2.540   2.454  0.00  0.00    +0.236 C 
ATOM      3  O   UNL     1       2.673  -2.807   2.388  0.00  0.00    -0.274 OA
ATOM      4  N   UNL     1       0.832  -2.684   3.621  0.00  0.00    -0.300 N 
ATOM      5  C   UNL     1      -0.620  -2.470   3.691  0.00  0.00    +0.108 C 
ATOM      6  C   UNL     1      -0.914  -1.451   4.797  0.00  0.00    +0.032 C 
ATOM      7  C   UNL     1      -0.285  -1.929   6.107  0.00  0.00    +0.078 C 
ATOM      8  C   UNL     1       1.232  -2.034   5.938  0.00  0.00    +0.032 C 
ATOM      9  C   UNL     1       1.551  -3.064   4.845  0.00  0.00    +0.108 C 
BRANCH   7  10
ATOM     10  C   UNL     1      -0.602  -0.947   7.205  0.00  0.00    +0.222 C 
ATOM     11  O   UNL     1      -1.266   0.039   6.963  0.00  0.00    -0.275 OA
ATOM     12  N   UNL     1      -0.148  -1.163   8.455  0.00  0.00    -0.264 N 
ATOM     13  C   UNL     1      -0.440  -0.257   9.467  0.00  0.00    +0.164 A 
ATOM     14  N   UNL     1      -1.143   0.853   9.393  0.00  0.00    -0.233 NA
ATOM     15  C   UNL     1      -1.332   1.613  10.456  0.00  0.00    +0.120 A 
ATOM     16  C   UNL     1      -0.771   1.198  11.618  0.00  0.00    +0.068 A 
ATOM     17  S   UNL     1       0.013  -0.316  11.087  0.00  0.00    -0.061 S 
ATOM     18  H   UNL     1       0.383  -1.952   8.648  0.00  0.00    +0.157 HD
ENDBRANCH   7  10
ENDBRANCH   1   2
BRANCH   1  19
ATOM     19  N   UNL     1       1.467  -2.494   0.028  0.00  0.00    -0.288 N 
ATOM     20  C   UNL     1       0.797  -2.631  -1.134  0.00  0.00    +0.300 C 
ATOM     21  O   UNL     1      -0.392  -2.384  -1.183  0.00  0.00    -0.253 OA
ATOM     22  N   UNL     1       1.446  -3.042  -2.241  0.00  0.00    -0.295 N 
ATOM     23  H   UNL     1       2.416  -2.691   0.067  0.00  0.00    +0.151 HD
ATOM     24  H   UNL     1       2.395  -3.239  -2.202  0.00  0.00    +0.151 HD
BRANCH  22  25
ATOM     25  C   UNL     1       0.719  -3.191  -3.504  0.00  0.00    +0.141 C 
BRANCH  25  26
ATOM     26  C   UNL     1       1.667  -3.659  -4.578  0.00  0.00    -0.030 A 
ATOM     27  C   UNL     1       2.354  -2.735  -5.343  0.00  0.00    +0.008 A 
ATOM     28  C   UNL     1       3.224  -3.163  -6.328  0.00  0.00    +0.038 A 
ATOM     29  C   UNL     1       3.407  -4.518  -6.548  0.00  0.00    +0.123 A 
ATOM     30  C   UNL     1       2.719  -5.442  -5.780  0.00  0.00    +0.038 A 
ATOM     31  C   UNL     1       1.853  -5.012  -4.793  0.00  0.00    +0.008 A 
ATOM     32  F   UNL     1       4.257  -4.937  -7.511  0.00  0.00    -0.205 F 
ENDBRANCH  25  26
ENDBRANCH  22  25
ENDBRANCH   1  19
BRANCH   1  33
ATOM     33  C   UNL     1       0.706  -0.518   1.252  0.00  0.00    +0.031 C 
BRANCH  33  35
ATOM     34  C   UNL     1      -0.218   1.506   0.115  0.00  0.00    +0.004 C 
ATOM     35  C   UNL     1      -0.163  -0.023   0.094  0.00  0.00    -0.001 C 
ENDBRANCH  33  35
ENDBRANCH   1  33
TORSDOF 7
