REMARK  Name = ZINC33942249
REMARK  7 active torsions:
REMARK  status: ('A' for Active; 'I' for Inactive)
REMARK    1  A    between atoms: C_1  and  C_2
REMARK    2  A    between atoms: C_7  and  N_8
REMARK    3  A    between atoms: C_9  and  C_11
REMARK    4  A    between atoms: C_14  and  C_23
REMARK    5  A    between atoms: C_15  and  C_16
REMARK    6  A    between atoms: C_15  and  C_17
REMARK    7  A    between atoms: N_19  and  O_20
REMARK                            x       y       z     vdW  Elec       q    Type
REMARK                         _______ _______ _______ _____ _____    ______ ____
ROOT
ATOM      1  C   UNL     1      -0.168   0.052   4.882  0.00  0.00    +0.117 C 
ATOM      2  C   UNL     1      -1.433   0.949   5.052  0.00  0.00    +0.026 C 
ATOM      3  C   UNL     1      -1.539   1.177   6.578  0.00  0.00    +0.015 C 
ATOM      4  C   UNL     1      -0.327   0.394   7.171  0.00  0.00    +0.023 C 
ATOM      5  C   UNL     1      -0.258  -0.824   6.182  0.00  0.00    -0.003 C 
ATOM      6  C   UNL     1       0.991  -1.685   6.385  0.00  0.00    +0.013 C 
ATOM      7  C   UNL     1      -1.539  -1.658   6.229  0.00  0.00    +0.013 C 
ATOM      8  C   UNL     1       0.902   1.192   6.713  0.00  0.00    +0.129 C 
ATOM      9  N   UNL     1       1.688   1.908   7.452  0.00  0.00    -0.088 NA
ATOM     10  C   UNL     1       1.017   0.960   5.243  0.00  0.00    +0.196 C 
ATOM     11  O   UNL     1       1.853   1.407   4.486  0.00  0.00    -0.290 OA
ATOM     12  C   UNL     1      -0.411   0.055   8.660  0.00  0.00    +0.018 C 
ENDROOT
BRANCH   1  14
ATOM     13  N   UNL     1       0.025  -0.015   2.417  0.00  0.00    -0.284 N 
ATOM     14  C   UNL     1      -0.056  -0.694   3.578  0.00  0.00    +0.232 C 
ATOM     15  O   UNL     1      -0.040  -1.907   3.573  0.00  0.00    -0.274 OA
ATOM     16  H   UNL     1       0.078   0.954   2.425  0.00  0.00    +0.155 HD
BRANCH  13  23
ATOM     17  C   UNL     1      -1.264   1.184   0.181  0.00  0.00    +0.045 C 
ATOM     18  C   UNL     1      -0.583  -0.158   0.084  0.00  0.00    -0.029 A 
ATOM     19  C   UNL     1      -0.568  -0.840  -1.117  0.00  0.00    +0.005 A 
ATOM     20  C   UNL     1       0.056  -2.071  -1.206  0.00  0.00    +0.000 A 
ATOM     21  C   UNL     1       0.667  -2.622  -0.095  0.00  0.00    +0.002 A 
ATOM     22  C   UNL     1       0.655  -1.945   1.108  0.00  0.00    +0.023 A 
ATOM     23  C   UNL     1       0.034  -0.706   1.201  0.00  0.00    +0.036 A 
ENDBRANCH  13  23
ENDBRANCH   1  14
BRANCH   9  24
ATOM     24  O   UNL     1       2.785   2.586   6.869  0.00  0.00    -0.409 OA
ATOM     25  H   UNL     1       3.314   3.094   7.500  0.00  0.00    +0.328 HD
ENDBRANCH   9  24
TORSDOF 3
