REMARK  Name = ZINC62562191
REMARK  7 active torsions:
REMARK  status: ('A' for Active; 'I' for Inactive)
REMARK    1  A    between atoms: C_1  and  C_2
REMARK    2  A    between atoms: C_9  and  S_14
REMARK    3  A    between atoms: S_14  and  N_17
REMARK    4  A    between atoms: N_17  and  C_18
REMARK    5  A    between atoms: C_18  and  C_20
REMARK    6  A    between atoms: C_18  and  C_21
REMARK    7  A    between atoms: C_21  and  O_22
REMARK                            x       y       z     vdW  Elec       q    Type
REMARK                         _______ _______ _______ _____ _____    ______ ____
ROOT
ATOM      1  C   UNL     1      -0.019   1.526   0.010  0.00  0.00    +0.062 C 
ATOM      2  C   UNL     1       0.002  -0.004   0.002  0.00  0.00    +0.256 C 
ATOM      3  C   UNL     1      -1.413  -0.525   0.011  0.00  0.00    +0.258 C 
ATOM      4  O   UNL     1      -2.306   0.131  -0.480  0.00  0.00    -0.271 OA
ATOM      5  N   UNL     1      -1.680  -1.726   0.568  0.00  0.00    -0.279 N 
ATOM      6  C   UNL     1      -0.635  -2.448   1.161  0.00  0.00    +0.078 A 
ATOM      7  C   UNL     1      -0.781  -3.794   1.454  0.00  0.00    +0.055 A 
ATOM      8  C   UNL     1       0.262  -4.488   2.040  0.00  0.00    +0.107 A 
ATOM      9  C   UNL     1       1.449  -3.842   2.333  0.00  0.00    +0.032 A 
ATOM     10  C   UNL     1       1.602  -2.498   2.042  0.00  0.00    +0.049 A 
ATOM     11  C   UNL     1       0.562  -1.798   1.455  0.00  0.00    +0.143 A 
ATOM     12  O   UNL     1       0.695  -0.477   1.160  0.00  0.00    -0.478 OA
ATOM     13  H   UNL     1      -2.582  -2.084   0.558  0.00  0.00    +0.155 HD
ENDROOT
BRANCH   8  14
ATOM     14  S   UNL     1       0.078  -6.200   2.414  0.00  0.00    +0.059 S 
ATOM     15  O   UNL     1       1.000  -6.489   3.456  0.00  0.00    -0.153 OA
ATOM     16  O   UNL     1      -1.317  -6.440   2.543  0.00  0.00    -0.153 OA
BRANCH  14  17
ATOM     17  N   UNL     1       0.583  -7.048   1.085  0.00  0.00    -0.185 NA
ATOM     18  H   UNL     1      -0.049  -7.587   0.584  0.00  0.00    +0.148 HD
BRANCH  17  19
ATOM     19  C   UNL     1       1.986  -6.986   0.666  0.00  0.00    +0.099 C 
ATOM     20  C   UNL     1       2.149  -5.912  -0.411  0.00  0.00    +0.028 C 
BRANCH  19  21
ATOM     21  C   UNL     1       2.410  -8.344   0.101  0.00  0.00    +0.175 C 
BRANCH  21  22
ATOM     22  O   UNL     1       1.671  -8.615  -1.091  0.00  0.00    -0.393 OA
ATOM     23  H   UNL     1       1.888  -9.462  -1.505  0.00  0.00    +0.209 HD
ENDBRANCH  21  22
ENDBRANCH  19  21
ENDBRANCH  17  19
ENDBRANCH  14  17
ENDBRANCH   8  14
TORSDOF 5
