REMARK  Name = ZINC00781525
REMARK  10 active torsions:
REMARK  status: ('A' for Active; 'I' for Inactive)
REMARK    1  A    between atoms: C_1  and  C_2
REMARK    2  A    between atoms: C_5  and  C_33
REMARK    3  A    between atoms: C_6  and  O_8
REMARK    4  A    between atoms: O_8  and  C_9
REMARK    5  A    between atoms: C_9  and  C_10
REMARK    6  A    between atoms: C_10  and  N_11
REMARK    7  A    between atoms: C_13  and  C_20
REMARK    8  A    between atoms: C_21  and  C_22
REMARK    9  A    between atoms: C_21  and  C_24
REMARK   10  A    between atoms: N_26  and  C_27
REMARK                            x       y       z     vdW  Elec       q    Type
REMARK                         _______ _______ _______ _____ _____    ______ ____
ROOT
ATOM      1  N   UNL     1      -3.805  -0.397  -0.184  0.00  0.00    -0.343 N 
ATOM      2  C   UNL     1      -2.510  -0.039  -0.085  0.00  0.00    +0.095 A 
ATOM      3  C   UNL     1      -2.410   1.339  -0.073  0.00  0.00    +0.002 A 
ATOM      4  C   UNL     1      -3.791   1.851  -0.169  0.00  0.00    +0.007 A 
ATOM      5  C   UNL     1      -4.617   0.718  -0.242  0.00  0.00    +0.050 A 
ATOM      6  C   UNL     1      -5.994   0.885  -0.345  0.00  0.00    +0.026 A 
ATOM      7  C   UNL     1      -6.533   2.152  -0.381  0.00  0.00    +0.002 A 
ATOM      8  C   UNL     1      -5.715   3.270  -0.315  0.00  0.00    +0.001 A 
ATOM      9  C   UNL     1      -4.348   3.126  -0.212  0.00  0.00    +0.010 A 
ENDROOT
BRANCH   3  10
ATOM     10  C   UNL     1      -1.225   2.103   0.019  0.00  0.00    +0.034 C 
ATOM     11  C   UNL     1      -0.054   1.514   0.462  0.00  0.00    +0.114 C 
BRANCH  11  12
ATOM     12  C   UNL     1       1.210   2.260   0.406  0.00  0.00    +0.255 C 
ATOM     13  O   UNL     1       1.226   3.397  -0.025  0.00  0.00    -0.269 OA
ATOM     14  N   UNL     1       2.351   1.684   0.832  0.00  0.00    -0.308 N 
ATOM     15  H   UNL     1       2.338   0.777   1.176  0.00  0.00    +0.149 HD
BRANCH  14  16
ATOM     16  C   UNL     1       3.612   2.427   0.776  0.00  0.00    +0.073 C 
ATOM     17  C   UNL     1       4.230   2.280  -0.616  0.00  0.00    +0.022 C 
ATOM     18  C   UNL     1       5.547   3.056  -0.674  0.00  0.00    +0.002 C 
ATOM     19  C   UNL     1       6.513   2.502   0.374  0.00  0.00    +0.000 C 
ATOM     20  C   UNL     1       5.896   2.649   1.766  0.00  0.00    +0.002 C 
ATOM     21  C   UNL     1       4.579   1.873   1.825  0.00  0.00    +0.022 C 
ENDBRANCH  14  16
ENDBRANCH  11  12
BRANCH  11  22
ATOM     22  C   UNL     1      -0.073   0.175   0.970  0.00  0.00    +0.104 C 
ATOM     23  N   UNL     1      -0.089  -0.887   1.373  0.00  0.00    -0.191 NA
ENDBRANCH  11  22
ENDBRANCH   3  10
BRANCH   1  24
ATOM     24  C   UNL     1      -4.286  -1.780  -0.225  0.00  0.00    +0.163 C 
BRANCH  24  25
ATOM     25  C   UNL     1      -4.463  -2.216  -1.681  0.00  0.00    +0.250 C 
BRANCH  25  26
ATOM     26  O   UNL     1      -4.932  -3.565  -1.721  0.00  0.00    -0.490 OA
BRANCH  26  32
ATOM     27  C   UNL     1      -4.857  -3.100  -6.579  0.00  0.00    +0.044 C 
ATOM     28  C   UNL     1      -5.118  -3.914  -5.337  0.00  0.00    -0.047 A 
ATOM     29  C   UNL     1      -5.571  -5.216  -5.447  0.00  0.00    +0.004 A 
ATOM     30  C   UNL     1      -5.811  -5.965  -4.310  0.00  0.00    +0.007 A 
ATOM     31  C   UNL     1      -5.598  -5.414  -3.061  0.00  0.00    -0.009 A 
ATOM     32  C   UNL     1      -5.143  -4.109  -2.948  0.00  0.00    +0.124 A 
ATOM     33  C   UNL     1      -4.908  -3.357  -4.091  0.00  0.00    +0.049 A 
ATOM     34  C   UNL     1      -5.859  -6.231  -1.822  0.00  0.00    +0.047 C 
ENDBRANCH  26  32
ENDBRANCH  25  26
ENDBRANCH  24  25
ENDBRANCH   1  24
TORSDOF 8
