REMARK  Name = ZINC51632544
REMARK  1 active torsions:
REMARK  status: ('A' for Active; 'I' for Inactive)
REMARK    1  A    between atoms: C_9  and  N_12
REMARK                            x       y       z     vdW  Elec       q    Type
REMARK                         _______ _______ _______ _____ _____    ______ ____
ROOT
ATOM      1  C   UNL     1      -0.017   1.375   0.010  0.00  0.00    +0.000 A 
ATOM      2  C   UNL     1       1.174   2.078   0.002  0.00  0.00    +0.000 A 
ATOM      3  C   UNL     1       2.372   1.395  -0.016  0.00  0.00    +0.004 A 
ATOM      4  C   UNL     1       2.393   0.006  -0.025  0.00  0.00    -0.042 A 
ATOM      5  C   UNL     1       1.208  -0.694  -0.013  0.00  0.00    -0.044 A 
ATOM      6  C   UNL     1       0.002  -0.004   0.002  0.00  0.00    +0.004 A 
ATOM      7  C   UNL     1       1.155  -2.199  -0.005  0.00  0.00    +0.037 C 
ATOM      8  C   UNL     1       2.493  -2.786  -0.452  0.00  0.00    +0.027 C 
ATOM      9  C   UNL     1       3.607  -2.135   0.376  0.00  0.00    +0.076 C 
ATOM     10  C   UNL     1       3.736  -0.675  -0.053  0.00  0.00    +0.057 C 
ENDROOT
BRANCH   9  11
ATOM     11  N   UNL     1       4.872  -2.834   0.137  0.00  0.00    -0.324 N 
ATOM     12  C   UNL     1       5.876  -2.804   1.099  0.00  0.00    +0.142 A 
ATOM     13  C   UNL     1       5.680  -2.113   2.295  0.00  0.00    +0.048 A 
ATOM     14  C   UNL     1       6.711  -2.113   3.221  0.00  0.00    +0.045 A 
ATOM     15  C   UNL     1       7.875  -2.801   2.901  0.00  0.00    +0.152 A 
ATOM     16  N   UNL     1       7.974  -3.427   1.745  0.00  0.00    -0.136 NA
ATOM     17  N   UNL     1       7.021  -3.435   0.886  0.00  0.00    -0.133 NA
ATOM     18 CL   UNL     1       9.200  -2.834   4.023  0.00  0.00    -0.060 Cl
ATOM     19  H   UNL     1       5.009  -3.318  -0.692  0.00  0.00    +0.148 HD
ENDBRANCH   9  11
TORSDOF 1
