REMARK  Name = ZINC39337033
REMARK  5 active torsions:
REMARK  status: ('A' for Active; 'I' for Inactive)
REMARK    1  A    between atoms: C_1  and  C_2
REMARK    2  A    between atoms: C_2  and  C_20
REMARK    3  A    between atoms: C_6  and  S_15
REMARK    4  A    between atoms: C_8  and  C_9
REMARK    5  A    between atoms: S_15  and  C_16
REMARK                            x       y       z     vdW  Elec       q    Type
REMARK                         _______ _______ _______ _____ _____    ______ ____
ROOT
ATOM      1  C   UNL     1      -0.019   1.526   0.010  0.00  0.00    +0.011 C 
ATOM      2  C   UNL     1       0.002  -0.004   0.002  0.00  0.00    -0.024 C 
ATOM      3  C   UNL     1      -1.437  -0.530  -0.011  0.00  0.00    +0.043 C 
ATOM      4  C   UNL     1      -1.373  -2.052   0.026  0.00  0.00    -0.023 A 
ATOM      5  C   UNL     1      -0.232  -2.747   0.635  0.00  0.00    +0.041 A 
ATOM      6  C   UNL     1      -0.283  -4.141   0.601  0.00  0.00    +0.056 A 
ATOM      7  S   UNL     1      -1.730  -4.492  -0.169  0.00  0.00    -0.083 S 
ATOM      8  C   UNL     1      -2.327  -2.848  -0.484  0.00  0.00    +0.025 A 
ATOM      9  C   UNL     1       0.840  -2.011   1.224  0.00  0.00    +0.166 C 
ATOM     10  O   UNL     1       1.803  -2.579   1.698  0.00  0.00    -0.292 OA
ATOM     11  C   UNL     1       0.741  -0.506   1.240  0.00  0.00    +0.086 C 
ATOM     12  C   UNL     1       0.727  -0.493  -1.253  0.00  0.00    +0.011 C 
ENDROOT
BRANCH   8  13
ATOM     13  C   UNL     1      -3.608  -2.441  -1.165  0.00  0.00    +0.189 C 
ATOM     14  C   UNL     1      -4.803  -2.708  -0.266  0.00  0.00    +0.028 C 
ATOM     15  C   UNL     1      -5.530  -3.593  -0.952  0.00  0.00    +0.133 C 
ATOM     16  N   UNL     1      -4.939  -3.889  -2.130  0.00  0.00    -0.162 NA
ATOM     17  N   UNL     1      -3.872  -3.297  -2.334  0.00  0.00    -0.175 NA
ENDBRANCH   8  13
BRANCH   6  18
ATOM     18  S   UNL     1       0.908  -5.279   1.227  0.00  0.00    -0.121 S 
ATOM     19  C   UNL     1       0.203  -6.907   0.845  0.00  0.00    +0.090 C 
ENDBRANCH   6  18
TORSDOF 2
