REMARK  Name = ZINC14163068
REMARK  3 active torsions:
REMARK  status: ('A' for Active; 'I' for Inactive)
REMARK    1  A    between atoms: C_1  and  C_2
REMARK    2  A    between atoms: C_7  and  C_25
REMARK    3  A    between atoms: C_14  and  C_23
REMARK                            x       y       z     vdW  Elec       q    Type
REMARK                         _______ _______ _______ _____ _____    ______ ____
ROOT
ATOM      1  C   UNL     1       3.843   3.833  -3.907  0.00  0.00    +0.028 C 
ATOM      2  C   UNL     1       3.341   2.401  -3.713  0.00  0.00    +0.073 C 
ATOM      3  C   UNL     1       3.750   1.540  -4.918  0.00  0.00    +0.022 C 
ATOM      4  C   UNL     1       3.038   2.055  -6.171  0.00  0.00    +0.004 C 
ATOM      5  C   UNL     1       1.523   1.934  -5.985  0.00  0.00    +0.022 C 
ATOM      6  C   UNL     1       1.089   2.794  -4.794  0.00  0.00    +0.073 C 
ATOM      7  N   UNL     1       1.875   2.402  -3.616  0.00  0.00    -0.300 N 
ATOM      8  C   UNL     1       1.256   2.051  -2.454  0.00  0.00    +0.176 C 
ATOM      9  N   UNL     1      -0.056   2.180  -2.340  0.00  0.00    -0.150 NA
ATOM     10  C   UNL     1      -0.713   1.838  -1.241  0.00  0.00    +0.258 C 
ATOM     11  O   UNL     1      -1.916   2.005  -1.189  0.00  0.00    -0.272 OA
ATOM     12  C   UNL     1       0.002   1.246  -0.053  0.00  0.00    +0.202 C 
ATOM     13  C   UNL     1       1.452   1.740  -0.051  0.00  0.00    +0.058 C 
ATOM     14  N   UNL     1       1.992   1.568  -1.408  0.00  0.00    -0.312 N 
ATOM     15  C   UNL     1       2.278   0.919   0.938  0.00  0.00    +0.027 C 
ATOM     16  C   UNL     1       3.727   1.411   0.926  0.00  0.00    +0.002 C 
ATOM     17  C   UNL     1       3.766   2.889   1.322  0.00  0.00    +0.000 C 
ATOM     18  C   UNL     1       2.945   3.707   0.324  0.00  0.00    +0.002 C 
ATOM     19  C   UNL     1       1.495   3.217   0.335  0.00  0.00    +0.027 C 
ATOM     20  C   UNL     1      -0.399   2.574  -4.514  0.00  0.00    +0.028 C 
ATOM     21  H   UNL     1       2.842   1.127  -1.556  0.00  0.00    +0.149 HD
ENDROOT
BRANCH  12  22
ATOM     22  C   UNL     1      -0.019  -0.223  -0.146  0.00  0.00    +0.077 C 
ATOM     23  N   UNL     1      -0.035  -1.356  -0.218  0.00  0.00    -0.196 NA
ENDBRANCH  12  22
TORSDOF 1
