REMARK  Name = ZINC37828446
REMARK  4 active torsions:
REMARK  status: ('A' for Active; 'I' for Inactive)
REMARK    1  A    between atoms: C_1  and  C_2
REMARK    2  A    between atoms: C_10  and  C_12
REMARK    3  A    between atoms: C_13  and  C_15
REMARK    4  A    between atoms: C_15  and  C_17
REMARK                            x       y       z     vdW  Elec       q    Type
REMARK                         _______ _______ _______ _____ _____    ______ ____
ROOT
ATOM      1  C   UNL     1      -0.542   1.609   0.549  0.00  0.00    +0.063 C 
ATOM      2  C   UNL     1      -0.517   0.110   0.389  0.00  0.00    +0.016 A 
ATOM      3  C   UNL     1      -0.797  -0.569  -0.743  0.00  0.00    +0.023 A 
ATOM      4  C   UNL     1      -0.660  -1.943  -0.457  0.00  0.00    +0.025 A 
ATOM      5  C   UNL     1      -0.303  -2.049   0.833  0.00  0.00    +0.039 A 
ATOM      6  N   UNL     1      -0.202  -0.790   1.360  0.00  0.00    -0.345 N 
ATOM      7  C   UNL     1       0.186  -0.495   2.744  0.00  0.00    +0.141 C 
ATOM      8  C   UNL     1       0.004  -1.753   3.599  0.00  0.00    +0.130 C 
ATOM      9  N   UNL     1       0.579  -2.908   2.893  0.00  0.00    -0.290 N 
ATOM     10  C   UNL     1      -0.042  -3.314   1.617  0.00  0.00    +0.120 C 
ATOM     11  C   UNL     1       0.924  -4.216   0.845  0.00  0.00    +0.035 C 
ATOM     12  C   UNL     1       1.634  -3.575   3.400  0.00  0.00    +0.238 C 
ATOM     13  O   UNL     1       2.033  -4.583   2.855  0.00  0.00    -0.274 OA
ENDROOT
BRANCH  12  14
ATOM     14  C   UNL     1       2.318  -3.071   4.645  0.00  0.00    +0.196 C 
ATOM     15 CL   UNL     1       3.878  -2.286   4.197  0.00  0.00    -0.107 Cl
BRANCH  14  16
ATOM     16  C   UNL     1       2.586  -4.226   5.574  0.00  0.00    -0.021 A 
ATOM     17  C   UNL     1       3.468  -5.223   5.202  0.00  0.00    +0.005 A 
ATOM     18  C   UNL     1       3.713  -6.283   6.055  0.00  0.00    +0.000 A 
ATOM     19  C   UNL     1       3.078  -6.345   7.281  0.00  0.00    +0.000 A 
ATOM     20  C   UNL     1       2.197  -5.347   7.654  0.00  0.00    +0.000 A 
ATOM     21  C   UNL     1       1.954  -4.285   6.803  0.00  0.00    +0.005 A 
ENDBRANCH  14  16
ENDBRANCH  12  14
TORSDOF 2
