REMARK  Name = ZINC54063324
REMARK  6 active torsions:
REMARK  status: ('A' for Active; 'I' for Inactive)
REMARK    1  A    between atoms: C_1  and  C_2
REMARK    2  A    between atoms: C_2  and  C_4
REMARK    3  A    between atoms: C_2  and  N_12
REMARK    4  A    between atoms: C_9  and  O_10
REMARK    5  A    between atoms: O_10  and  C_11
REMARK    6  A    between atoms: C_18  and  N_21
REMARK                            x       y       z     vdW  Elec       q    Type
REMARK                         _______ _______ _______ _____ _____    ______ ____
ROOT
ATOM      1  N   UNL     1      -1.415  -0.530  -0.055  0.00  0.00    -0.293 N 
ATOM      2  C   UNL     1      -1.984  -0.751  -1.256  0.00  0.00    +0.303 C 
ATOM      3  O   UNL     1      -1.332  -0.609  -2.273  0.00  0.00    -0.253 OA
ATOM      4  N   UNL     1      -3.275  -1.130  -1.331  0.00  0.00    -0.286 N 
ATOM      5  C   UNL     1      -4.046  -1.408  -0.112  0.00  0.00    +0.111 C 
ATOM      6  C   UNL     1      -5.326  -0.568  -0.135  0.00  0.00    +0.044 C 
ATOM      7  C   UNL     1      -6.087  -0.840  -1.434  0.00  0.00    +0.095 C 
ATOM      8  C   UNL     1      -5.221  -0.433  -2.629  0.00  0.00    +0.044 C 
ATOM      9  C   UNL     1      -3.941  -1.266  -2.634  0.00  0.00    +0.111 C 
ATOM     10  H   UNL     1      -1.910  -0.718   0.758  0.00  0.00    +0.151 HD
ENDROOT
BRANCH   7  11
ATOM     11  N   UNL     1      -7.329  -0.062  -1.445  0.00  0.00    -0.289 N 
ATOM     12  C   UNL     1      -8.617  -0.585  -1.522  0.00  0.00    +0.070 A 
ATOM     13  C   UNL     1      -9.117  -1.876  -1.607  0.00  0.00    +0.028 A 
ATOM     14  C   UNL     1     -10.480  -2.083  -1.672  0.00  0.00    +0.002 A 
ATOM     15  C   UNL     1     -11.351  -1.006  -1.653  0.00  0.00    +0.002 A 
ATOM     16  C   UNL     1     -10.863   0.283  -1.569  0.00  0.00    +0.028 A 
ATOM     17  C   UNL     1      -9.495   0.500  -1.503  0.00  0.00    +0.067 A 
ATOM     18  N   UNL     1      -8.713   1.649  -1.414  0.00  0.00    -0.306 N 
ATOM     19  H   UNL     1      -9.044   2.560  -1.381  0.00  0.00    +0.170 HD
ATOM     20  C   UNL     1      -7.419   1.279  -1.375  0.00  0.00    +0.328 A 
ATOM     21  O   UNL     1      -6.474   2.042  -1.293  0.00  0.00    -0.247 OA
ENDBRANCH   7  11
BRANCH   1  23
ATOM     22  C   UNL     1      -0.091   1.525   0.035  0.00  0.00    +0.033 C 
ATOM     23  C   UNL     1      -0.050  -0.005   0.024  0.00  0.00    +0.105 C 
BRANCH  23  24
ATOM     24  C   UNL     1       0.606  -0.499   1.287  0.00  0.00    +0.014 A 
ATOM     25  C   UNL     1      -0.166  -0.821   2.387  0.00  0.00    +0.009 A 
ATOM     26  C   UNL     1       0.436  -1.274   3.547  0.00  0.00    +0.001 A 
ATOM     27  C   UNL     1       1.811  -1.406   3.609  0.00  0.00    +0.004 A 
ATOM     28  C   UNL     1       2.587  -1.085   2.512  0.00  0.00    +0.046 A 
ATOM     29  C   UNL     1       1.986  -0.636   1.346  0.00  0.00    +0.125 A 
BRANCH  29  30
ATOM     30  O   UNL     1       2.747  -0.326   0.263  0.00  0.00    -0.495 OA
ATOM     31  C   UNL     1       4.160  -0.491   0.395  0.00  0.00    +0.277 C 
ENDBRANCH  29  30
ENDBRANCH  23  24
ENDBRANCH   1  23
TORSDOF 4
