REMARK  Name = ZINC19479634
REMARK  3 active torsions:
REMARK  status: ('A' for Active; 'I' for Inactive)
REMARK    1  A    between atoms: C_1  and  C_2
REMARK    2  A    between atoms: C_5  and  C_23
REMARK    3  A    between atoms: C_10  and  C_12
REMARK                            x       y       z     vdW  Elec       q    Type
REMARK                         _______ _______ _______ _____ _____    ______ ____
ROOT
ATOM      1  C   UNL     1      -2.648   4.553  -1.944  0.00  0.00    +0.276 C 
ATOM      2  C   UNL     1      -1.470   5.183  -2.700  0.00  0.00    +0.155 C 
ATOM      3  N   UNL     1      -1.946   5.544  -4.046  0.00  0.00    -0.337 N 
ATOM      4  C   UNL     1      -3.218   6.128  -4.153  0.00  0.00    +0.070 A 
ATOM      5  C   UNL     1      -3.603   6.743  -5.334  0.00  0.00    +0.026 A 
ATOM      6  C   UNL     1      -4.859   7.314  -5.435  0.00  0.00    +0.002 A 
ATOM      7  C   UNL     1      -5.727   7.274  -4.360  0.00  0.00    +0.004 A 
ATOM      8  C   UNL     1      -5.347   6.663  -3.180  0.00  0.00    +0.047 A 
ATOM      9  C   UNL     1      -4.090   6.088  -3.068  0.00  0.00    +0.142 A 
ATOM     10  O   UNL     1      -3.724   5.493  -1.902  0.00  0.00    -0.476 OA
ATOM     11  H   UNL     1      -1.312   5.353  -4.924  0.00  0.00    +0.146 HD
ENDROOT
BRANCH   1  19
ATOM     12  C   UNL     1      -0.459   0.037  -2.185  0.00  0.00    +0.009 C 
ATOM     13  C   UNL     1      -1.073   0.918  -1.095  0.00  0.00    +0.004 C 
ATOM     14  C   UNL     1      -0.406   0.610   0.247  0.00  0.00    +0.009 C 
ATOM     15  C   UNL     1      -1.043   1.467   1.344  0.00  0.00    +0.004 C 
ATOM     16  C   UNL     1      -0.821   2.948   1.022  0.00  0.00    +0.111 C 
ATOM     17  N   UNL     1      -1.332   3.220  -0.328  0.00  0.00    -0.298 N 
ATOM     18  C   UNL     1      -0.853   2.393  -1.444  0.00  0.00    +0.111 C 
ATOM     19  C   UNL     1      -2.222   4.210  -0.540  0.00  0.00    +0.258 C 
ATOM     20  O   UNL     1      -2.680   4.825   0.400  0.00  0.00    -0.271 OA
ATOM     21  C   UNL     1      -2.544   1.178   1.411  0.00  0.00    +0.009 C 
ENDBRANCH   1  19
TORSDOF 1
