REMARK  Name = ZINC59947848
REMARK  7 active torsions:
REMARK  status: ('A' for Active; 'I' for Inactive)
REMARK    1  A    between atoms: C_1  and  C_2
REMARK    2  A    between atoms: C_2  and  C_28
REMARK    3  A    between atoms: C_12  and  O_20
REMARK    4  A    between atoms: N_16  and  C_19
REMARK    5  A    between atoms: O_20  and  C_21
REMARK    6  A    between atoms: C_22  and  C_26
REMARK    7  A    between atoms: C_23  and  N_25
REMARK                            x       y       z     vdW  Elec       q    Type
REMARK                         _______ _______ _______ _____ _____    ______ ____
ROOT
ATOM      1  C   UNL     1      -0.019   1.526   0.010  0.00  0.00    +0.012 C 
ATOM      2  C   UNL     1       0.002  -0.004   0.002  0.00  0.00    -0.021 C 
ATOM      3  C   UNL     1      -1.431  -0.538   0.038  0.00  0.00    +0.081 C 
ATOM      4  C   UNL     1      -1.410  -2.047   0.072  0.00  0.00    +0.116 C 
ATOM      5  C   UNL     1      -0.399  -2.708   0.666  0.00  0.00    +0.058 C 
ATOM      6  C   UNL     1       0.673  -2.019   1.266  0.00  0.00    +0.165 C 
ATOM      7  O   UNL     1       1.557  -2.648   1.811  0.00  0.00    -0.292 OA
ATOM      8  C   UNL     1       0.743  -0.516   1.242  0.00  0.00    +0.086 C 
ATOM      9  C   UNL     1      -0.390  -4.215   0.703  0.00  0.00    +0.144 C 
ATOM     10  C   UNL     1      -0.727  -4.713   2.074  0.00  0.00    +0.002 A 
ATOM     11  C   UNL     1      -1.863  -4.571   2.841  0.00  0.00    +0.052 A 
ATOM     12  C   UNL     1      -1.854  -5.170   4.101  0.00  0.00    +0.121 A 
ATOM     13  C   UNL     1      -0.751  -5.873   4.554  0.00  0.00    +0.047 A 
ATOM     14  C   UNL     1       0.392  -6.017   3.784  0.00  0.00    +0.027 A 
ATOM     15  C   UNL     1       0.393  -5.422   2.522  0.00  0.00    +0.041 A 
ATOM     16  N   UNL     1       1.388  -5.409   1.557  0.00  0.00    -0.273 N 
ATOM     17  C   UNL     1       1.016  -4.723   0.457  0.00  0.00    +0.240 C 
ATOM     18  O   UNL     1       1.681  -4.548  -0.542  0.00  0.00    -0.274 OA
ATOM     19  C   UNL     1       2.690  -6.061   1.714  0.00  0.00    +0.138 C 
ATOM     20  C   UNL     1      -1.329  -4.779  -0.322  0.00  0.00    +0.110 C 
ATOM     21  C   UNL     1      -2.292  -3.996  -0.870  0.00  0.00    +0.199 C 
ATOM     22  O   UNL     1      -2.430  -2.710  -0.507  0.00  0.00    -0.445 OA
ATOM     23  C   UNL     1       0.709  -0.502  -1.260  0.00  0.00    +0.012 C 
ENDROOT
BRANCH  21  24
ATOM     24  N   UNL     1      -3.140  -4.527  -1.811  0.00  0.00    -0.328 N 
ATOM     25  H   UNL     1      -3.047  -5.454  -2.079  0.00  0.00    +0.145 HD
ATOM     26  H   UNL     1      -3.831  -3.974  -2.207  0.00  0.00    +0.145 HD
ENDBRANCH  21  24
BRANCH  12  27
ATOM     27  O   UNL     1      -2.949  -5.060   4.900  0.00  0.00    -0.495 OA
ATOM     28  C   UNL     1      -2.885  -5.693   6.179  0.00  0.00    +0.277 C 
ENDBRANCH  12  27
BRANCH  20  29
ATOM     29  C   UNL     1      -1.208  -6.148  -0.724  0.00  0.00    +0.102 C 
ATOM     30  N   UNL     1      -1.111  -7.234  -1.043  0.00  0.00    -0.191 NA
ENDBRANCH  20  29
TORSDOF 3
