REMARK  Name = ZINC13466364
REMARK  4 active torsions:
REMARK  status: ('A' for Active; 'I' for Inactive)
REMARK    1  A    between atoms: C_9  and  C_12
REMARK    2  A    between atoms: N_13  and  O_14
REMARK    3  A    between atoms: O_14  and  C_15
REMARK    4  A    between atoms: C_15  and  C_17
REMARK                            x       y       z     vdW  Elec       q    Type
REMARK                         _______ _______ _______ _____ _____    ______ ____
ROOT
ATOM      1  C   UNL     1       4.898  -2.639  -0.071  0.00  0.00    +0.177 C 
ATOM      2  N   UNL     1       5.691  -3.108   0.835  0.00  0.00    -0.060 NA
ATOM      3  N   UNL     1       5.244  -2.726  -1.399  0.00  0.00    -0.341 N 
ATOM      4  H   UNL     1       4.648  -2.374  -2.080  0.00  0.00    +0.144 HD
ATOM      5  H   UNL     1       6.083  -3.139  -1.656  0.00  0.00    +0.144 HD
ENDROOT
BRANCH   1  14
ATOM      6  C   UNL     1      -0.017   1.378   0.010  0.00  0.00    +0.004 A 
ATOM      7  C   UNL     1       1.170   2.088   0.002  0.00  0.00    +0.004 A 
ATOM      8  C   UNL     1       2.378   1.418  -0.014  0.00  0.00    +0.049 A 
ATOM      9  C   UNL     1       2.404   0.031  -0.023  0.00  0.00    +0.163 A 
ATOM     10  C   UNL     1       1.212  -0.683  -0.013  0.00  0.00    +0.162 A 
ATOM     11  C   UNL     1       0.002  -0.004   0.002  0.00  0.00    +0.049 A 
ATOM     12  O   UNL     1       1.214  -2.044  -0.013  0.00  0.00    -0.484 OA
ATOM     13  C   UNL     1       2.434  -2.685  -0.404  0.00  0.00    +0.281 C 
ATOM     14  C   UNL     1       3.594  -1.997   0.328  0.00  0.00    +0.276 C 
ATOM     15  O   UNL     1       3.602  -0.615  -0.043  0.00  0.00    -0.474 OA
ENDBRANCH   1  14
BRANCH   2  16
ATOM     16  O   UNL     1       5.336  -3.019   2.203  0.00  0.00    -0.310 OA
BRANCH  16  17
ATOM     17  C   UNL     1       6.248  -3.544   3.042  0.00  0.00    +0.368 C 
ATOM     18  O   UNL     1       7.267  -4.037   2.600  0.00  0.00    -0.243 OA
BRANCH  17  19
ATOM     19  C   UNL     1       6.011  -3.522   4.498  0.00  0.00    +0.080 A 
ATOM     20  C   UNL     1       4.838  -2.961   5.010  0.00  0.00    +0.018 A 
ATOM     21  C   UNL     1       4.622  -2.943   6.371  0.00  0.00    +0.021 A 
ATOM     22  C   UNL     1       5.566  -3.480   7.233  0.00  0.00    +0.042 A 
ATOM     23  C   UNL     1       6.730  -4.037   6.734  0.00  0.00    +0.040 A 
ATOM     24  C   UNL     1       6.957  -4.066   5.372  0.00  0.00    +0.056 A 
ATOM     25 CL   UNL     1       8.415  -4.771   4.747  0.00  0.00    -0.083 Cl
ATOM     26 CL   UNL     1       5.285  -3.452   8.946  0.00  0.00    -0.083 Cl
ENDBRANCH  17  19
ENDBRANCH  16  17
ENDBRANCH   2  16
TORSDOF 4
