REMARK  Name = ZINC04302657
REMARK  6 active torsions:
REMARK  status: ('A' for Active; 'I' for Inactive)
REMARK    1  A    between atoms: C_1  and  C_2
REMARK    2  A    between atoms: C_3  and  C_29
REMARK    3  A    between atoms: C_4  and  C_20
REMARK    4  A    between atoms: C_10  and  C_15
REMARK    5  A    between atoms: C_29  and  O_31
REMARK    6  A    between atoms: O_31  and  C_32
REMARK                            x       y       z     vdW  Elec       q    Type
REMARK                         _______ _______ _______ _____ _____    ______ ____
ROOT
ATOM      1  C   UNL     1      -3.011   6.774  -1.161  0.00  0.00    +0.061 C 
ATOM      2  C   UNL     1      -2.615   5.320  -1.188  0.00  0.00    +0.031 C 
ATOM      3  C   UNL     1      -2.598   4.654  -2.356  0.00  0.00    +0.153 C 
ATOM      4  C   UNL     1      -2.214   3.206  -2.421  0.00  0.00    +0.073 C 
ATOM      5  C   UNL     1      -1.485   2.780  -1.171  0.00  0.00    +0.025 C 
ATOM      6  C   UNL     1      -1.547   3.528  -0.049  0.00  0.00    +0.049 C 
ATOM      7  N   UNL     1      -2.276   4.686  -0.025  0.00  0.00    -0.260 NA
ATOM      8  C   UNL     1      -0.820   3.108   1.205  0.00  0.00    +0.067 C 
ATOM      9  C   UNL     1      -0.727   1.584   1.264  0.00  0.00    +0.068 C 
ATOM     10  C   UNL     1      -0.007   1.089   0.005  0.00  0.00    +0.091 C 
ATOM     11  C   UNL     1      -0.742   1.588  -1.209  0.00  0.00    +0.162 C 
ATOM     12  O   UNL     1      -0.692   0.948  -2.241  0.00  0.00    -0.292 OA
ENDROOT
BRANCH   4  13
ATOM     13  C   UNL     1      -3.464   2.377  -2.572  0.00  0.00    -0.038 A 
ATOM     14  C   UNL     1      -4.436   2.403  -1.589  0.00  0.00    +0.008 A 
ATOM     15  C   UNL     1      -5.580   1.644  -1.721  0.00  0.00    +0.046 A 
ATOM     16  C   UNL     1      -5.766   0.844  -2.846  0.00  0.00    +0.124 A 
ATOM     17  C   UNL     1      -4.785   0.831  -3.829  0.00  0.00    -0.002 A 
ATOM     18  C   UNL     1      -3.644   1.592  -3.696  0.00  0.00    +0.011 A 
ATOM     19  C   UNL     1      -5.263  -0.105  -4.921  0.00  0.00    +0.080 C 
ATOM     20  C   UNL     1      -6.764  -0.258  -4.578  0.00  0.00    +0.234 C 
ATOM     21  O   UNL     1      -6.797   0.015  -3.167  0.00  0.00    -0.491 OA
ENDBRANCH   4  13
BRANCH   9  22
ATOM     22  C   UNL     1       0.050   1.169   2.488  0.00  0.00    +0.109 A 
ATOM     23  C   UNL     1      -0.408   0.386   3.481  0.00  0.00    +0.045 A 
ATOM     24  C   UNL     1       0.644   0.256   4.417  0.00  0.00    +0.041 A 
ATOM     25  C   UNL     1       1.681   0.967   3.940  0.00  0.00    +0.195 A 
ATOM     26  O   UNL     1       1.317   1.513   2.768  0.00  0.00    -0.468 OA
ENDBRANCH   9  22
BRANCH   3  27
ATOM     27  C   UNL     1      -2.945   5.334  -3.547  0.00  0.00    +0.316 C 
ATOM     28  O   UNL     1      -3.255   6.510  -3.508  0.00  0.00    -0.250 OA
BRANCH  27  29
ATOM     29  O   UNL     1      -2.932   4.678  -4.726  0.00  0.00    -0.467 OA
ATOM     30  C   UNL     1      -3.293   5.426  -5.888  0.00  0.00    +0.280 C 
ENDBRANCH  27  29
ENDBRANCH   3  27
TORSDOF 4
