REMARK  Name = ZINC64539187
REMARK  8 active torsions:
REMARK  status: ('A' for Active; 'I' for Inactive)
REMARK    1  A    between atoms: C_1  and  C_2
REMARK    2  A    between atoms: C_4  and  S_12
REMARK    3  A    between atoms: C_5  and  C_11
REMARK    4  A    between atoms: N_7  and  C_8
REMARK    5  A    between atoms: C_8  and  C_9
REMARK    6  A    between atoms: C_8  and  C_10
REMARK    7  A    between atoms: S_12  and  N_15
REMARK    8  A    between atoms: C_21  and  C_23
REMARK                            x       y       z     vdW  Elec       q    Type
REMARK                         _______ _______ _______ _____ _____    ______ ____
ROOT
ATOM      1  N   UNL     1       0.699   1.341  -3.396  0.00  0.00    -0.174 NA
ATOM      2  C   UNL     1      -0.170   2.374  -2.816  0.00  0.00    +0.128 C 
ATOM      3  C   UNL     1       0.672   3.258  -1.888  0.00  0.00    +0.125 C 
ATOM      4  N   UNL     1       1.884   3.674  -2.608  0.00  0.00    -0.295 N 
ATOM      5  C   UNL     1       2.753   2.641  -3.188  0.00  0.00    +0.125 C 
ATOM      6  C   UNL     1       1.913   1.756  -4.111  0.00  0.00    +0.128 C 
ATOM      7  C   UNL     1       2.192   4.980  -2.735  0.00  0.00    +0.247 C 
ATOM      8  O   UNL     1       1.422   5.829  -2.329  0.00  0.00    -0.270 OA
ENDROOT
BRANCH   7   9
ATOM      9  C   UNL     1       3.463   5.379  -3.364  0.00  0.00    +0.042 C 
ATOM     10  C   UNL     1       3.658   5.407  -4.750  0.00  0.00    +0.013 C 
ATOM     11  C   UNL     1       4.904   5.798  -5.278  0.00  0.00    -0.001 C 
ATOM     12  C   UNL     1       6.042   5.865  -4.577  0.00  0.00    +0.004 C 
ATOM     13  C   UNL     1       6.045   5.473  -3.125  0.00  0.00    +0.159 C 
ATOM     14  C   UNL     1       4.644   5.792  -2.602  0.00  0.00    -0.006 C 
ATOM     15  C   UNL     1       4.824   6.463  -1.465  0.00  0.00    +0.026 C 
ATOM     16  C   UNL     1       6.189   6.810  -1.336  0.00  0.00    +0.106 C 
ATOM     17  N   UNL     1       6.937   6.266  -2.289  0.00  0.00    -0.279 NA
ENDBRANCH   7   9
BRANCH   1  18
ATOM     18  S   UNL     1       0.320  -0.264  -3.241  0.00  0.00    +0.060 S 
ATOM     19  O   UNL     1      -0.402  -0.395  -2.024  0.00  0.00    -0.153 OA
ATOM     20  O   UNL     1       1.513  -0.990  -3.500  0.00  0.00    -0.153 OA
BRANCH  18  23
ATOM     21  C   UNL     1       0.278   0.160  -6.637  0.00  0.00    +0.032 C 
ATOM     22  C   UNL     1      -0.446  -1.010  -5.967  0.00  0.00    +0.124 C 
ATOM     23  C   UNL     1      -0.804  -0.662  -4.538  0.00  0.00    +0.119 C 
ATOM     24  C   UNL     1      -2.118  -0.715  -4.451  0.00  0.00    +0.040 C 
ATOM     25  N   UNL     1      -2.697  -1.059  -5.657  0.00  0.00    -0.280 N 
ATOM     26  N   UNL     1      -1.747  -1.254  -6.622  0.00  0.00    -0.218 NA
ATOM     27  C   UNL     1      -2.893  -0.435  -3.189  0.00  0.00    +0.063 C 
ATOM     28  H   UNL     1      -3.652  -1.151  -5.800  0.00  0.00    +0.166 HD
BRANCH  26  29
ATOM     29  C   UNL     1      -1.815  -2.619  -7.163  0.00  0.00    +0.070 C 
ATOM     30  C   UNL     1      -1.766  -3.626  -6.012  0.00  0.00    +0.025 C 
ATOM     31  C   UNL     1      -3.122  -2.794  -7.939  0.00  0.00    +0.025 C 
ENDBRANCH  26  29
ENDBRANCH  18  23
ENDBRANCH   1  18
TORSDOF 4
