REMARK  Name = ZINC06783322
REMARK  3 active torsions:
REMARK  status: ('A' for Active; 'I' for Inactive)
REMARK    1  A    between atoms: C_5  and  N_7
REMARK    2  A    between atoms: N_10  and  S_13
REMARK    3  A    between atoms: S_13  and  C_16
REMARK                            x       y       z     vdW  Elec       q    Type
REMARK                         _______ _______ _______ _____ _____    ______ ____
ROOT
ATOM      1  S   UNL     1       0.107  -6.212  -0.039  0.00  0.00    +0.061 S 
ATOM      2  O   UNL     1       0.658  -6.602  -1.290  0.00  0.00    -0.153 OA
ATOM      3  O   UNL     1       0.671  -6.616   1.201  0.00  0.00    -0.153 OA
ENDROOT
BRANCH   1   4
ATOM      4  C   UNL     1      -1.568  -6.759  -0.034  0.00  0.00    +0.107 A 
ATOM      5  C   UNL     1      -2.216  -6.974   1.169  0.00  0.00    +0.030 A 
ATOM      6  C   UNL     1      -3.531  -7.402   1.177  0.00  0.00    +0.018 A 
ATOM      7  C   UNL     1      -4.194  -7.615  -0.020  0.00  0.00    +0.030 A 
ATOM      8  C   UNL     1      -3.546  -7.404  -1.237  0.00  0.00    +0.049 A 
ATOM      9  C   UNL     1      -2.226  -6.966  -1.230  0.00  0.00    +0.053 A 
ATOM     10  N   UNL     1      -4.189  -7.620  -2.453  0.00  0.00    -0.284 N 
ATOM     11  C   UNL     1      -5.504  -7.639  -2.655  0.00  0.00    +0.227 C 
ATOM     12  O   UNL     1      -5.907  -7.833  -3.783  0.00  0.00    -0.275 OA
ATOM     13  C   UNL     1      -6.517  -7.434  -1.563  0.00  0.00    +0.170 C 
ATOM     14  S   UNL     1      -5.874  -8.156  -0.024  0.00  0.00    -0.114 S 
ATOM     15  H   UNL     1      -3.624  -7.772  -3.227  0.00  0.00    +0.155 HD
ENDBRANCH   1   4
BRANCH   1  19
ATOM     16  N   UNL     1       1.236  -2.079  -0.021  0.00  0.00    -0.325 N 
ATOM     17  C   UNL     1       1.254  -2.834   1.239  0.00  0.00    +0.122 C 
ATOM     18  C   UNL     1       0.076  -3.815   1.240  0.00  0.00    +0.128 C 
ATOM     19  N   UNL     1       0.081  -4.556  -0.030  0.00  0.00    -0.174 NA
ATOM     20  C   UNL     1       0.063  -3.801  -1.290  0.00  0.00    +0.128 C 
ATOM     21  C   UNL     1       1.236  -2.820  -1.291  0.00  0.00    +0.122 C 
BRANCH  16  26
ATOM     22  C   UNL     1      -0.017   1.377   0.010  0.00  0.00    +0.002 A 
ATOM     23  C   UNL     1       1.170   2.087   0.002  0.00  0.00    +0.003 A 
ATOM     24  C   UNL     1       2.380   1.418  -0.013  0.00  0.00    +0.040 A 
ATOM     25  C   UNL     1       2.406   0.035  -0.021  0.00  0.00    +0.144 A 
ATOM     26  C   UNL     1       1.214  -0.681  -0.013  0.00  0.00    +0.065 A 
ATOM     27  C   UNL     1       0.002  -0.004   0.002  0.00  0.00    +0.026 A 
ATOM     28  F   UNL     1       3.588  -0.619  -0.036  0.00  0.00    -0.204 F 
ENDBRANCH  16  26
ENDBRANCH   1  19
TORSDOF 3
