REMARK  Name = ZINC40034270
REMARK  5 active torsions:
REMARK  status: ('A' for Active; 'I' for Inactive)
REMARK    1  A    between atoms: C_7  and  C_10
REMARK    2  A    between atoms: C_10  and  C_12
REMARK    3  A    between atoms: C_12  and  S_13
REMARK    4  A    between atoms: S_13  and  C_14
REMARK    5  A    between atoms: N_18  and  C_19
REMARK                            x       y       z     vdW  Elec       q    Type
REMARK                         _______ _______ _______ _____ _____    ______ ____
ROOT
ATOM      1  C   UNL     1       1.187  -4.547  -0.033  0.00  0.00    +0.156 C 
ENDROOT
BRANCH   1   2
ATOM      2  C   UNL     1       0.657  -3.136  -0.021  0.00  0.00    +0.172 C 
ATOM      3  O   UNL     1      -0.541  -2.938  -0.009  0.00  0.00    -0.291 OA
BRANCH   2  10
ATOM      4  C   UNL     1      -0.016   1.348   0.009  0.00  0.00    +0.001 A 
ATOM      5  C   UNL     1       1.158   2.117   0.002  0.00  0.00    +0.002 A 
ATOM      6  C   UNL     1       2.384   1.551  -0.012  0.00  0.00    +0.026 A 
ATOM      7  C   UNL     1       2.494   0.083  -0.021  0.00  0.00    +0.043 A 
ATOM      8  N   UNL     1       3.525  -0.712  -0.035  0.00  0.00    -0.380 N 
ATOM      9  C   UNL     1       3.065  -2.104  -0.039  0.00  0.00    +0.152 C 
ATOM     10  C   UNL     1       1.553  -2.046  -0.024  0.00  0.00    +0.024 C 
ATOM     11  C   UNL     1       1.234  -0.700  -0.013  0.00  0.00    +0.006 A 
ATOM     12  C   UNL     1       0.002  -0.004   0.002  0.00  0.00    +0.010 A 
ATOM     13  H   UNL     1       4.453  -0.428  -0.043  0.00  0.00    +0.160 HD
ENDBRANCH   2  10
ENDBRANCH   1   2
BRANCH   1  14
ATOM     14  S   UNL     1      -0.202  -5.714  -0.026  0.00  0.00    -0.076 S 
BRANCH  14  15
ATOM     15  C   UNL     1       0.572  -7.297  -0.042  0.00  0.00    +0.214 A 
ATOM     16  N   UNL     1       1.866  -7.535  -0.049  0.00  0.00    -0.101 NA
ATOM     17  N   UNL     1       2.091  -8.800  -0.059  0.00  0.00    -0.022 NA
ATOM     18  N   UNL     1       0.980  -9.454  -0.059  0.00  0.00    -0.038 NA
ATOM     19  N   UNL     1      -0.054  -8.501  -0.042  0.00  0.00    -0.187 N 
BRANCH  19  20
ATOM     20  C   UNL     1      -1.435  -8.743  -0.031  0.00  0.00    +0.070 A 
ATOM     21  C   UNL     1      -2.284  -7.894   0.665  0.00  0.00    +0.029 A 
ATOM     22  C   UNL     1      -3.644  -8.134   0.674  0.00  0.00    +0.022 A 
ATOM     23  C   UNL     1      -4.161  -9.220  -0.010  0.00  0.00    +0.041 A 
ATOM     24  C   UNL     1      -3.316 -10.069  -0.705  0.00  0.00    +0.022 A 
ATOM     25  C   UNL     1      -1.956  -9.829  -0.721  0.00  0.00    +0.029 A 
ATOM     26 CL   UNL     1      -5.870  -9.520   0.004  0.00  0.00    -0.084 Cl
ENDBRANCH  19  20
ENDBRANCH  14  15
ENDBRANCH   1  14
TORSDOF 5
