REMARK  Name = ZINC63025289
REMARK  8 active torsions:
REMARK  status: ('A' for Active; 'I' for Inactive)
REMARK    1  A    between atoms: C_1  and  C_2
REMARK    2  A    between atoms: C_2  and  C_3
REMARK    3  A    between atoms: C_2  and  C_4
REMARK    4  A    between atoms: C_2  and  C_5
REMARK    5  A    between atoms: C_5  and  C_7
REMARK    6  A    between atoms: C_5  and  N_23
REMARK    7  A    between atoms: C_7  and  C_8
REMARK    8  A    between atoms: C_13  and  N_14
REMARK                            x       y       z     vdW  Elec       q    Type
REMARK                         _______ _______ _______ _____ _____    ______ ____
ROOT
ATOM      1  C   UNL     1       2.909  -0.653  -2.368  0.00  0.00    -0.017 A 
ATOM      2  C   UNL     1       3.199   0.034  -3.526  0.00  0.00    +0.034 A 
ATOM      3  C   UNL     1       3.940  -0.589  -4.532  0.00  0.00    +0.078 A 
ATOM      4  C   UNL     1       4.382  -1.918  -4.344  0.00  0.00    +0.067 A 
ATOM      5  C   UNL     1       4.078  -2.595  -3.165  0.00  0.00    +0.048 A 
ATOM      6  C   UNL     1       3.350  -1.957  -2.184  0.00  0.00    +0.130 A 
ATOM      7  C   UNL     1       5.160  -2.545  -5.423  0.00  0.00    +0.259 A 
ATOM      8  O   UNL     1       5.570  -3.687  -5.325  0.00  0.00    -0.267 OA
ATOM      9  N   UNL     1       5.402  -1.804  -6.529  0.00  0.00    -0.313 N 
ATOM     10  H   UNL     1       5.911  -2.185  -7.261  0.00  0.00    +0.170 HD
ATOM     11  C   UNL     1       4.936  -0.531  -6.624  0.00  0.00    +0.199 A 
ATOM     12  N   UNL     1       4.248   0.049  -5.689  0.00  0.00    -0.237 NA
ENDROOT
BRANCH   6  13
ATOM     13  N   UNL     1       3.030  -2.669  -0.927  0.00  0.00    +0.057 N 
ATOM     14  O   UNL     1       3.315  -3.838  -0.805  0.00  0.00    -0.126 OA
ATOM     15  O   UNL     1       2.483  -2.083  -0.022  0.00  0.00    -0.126 OA
ENDBRANCH   6  13
BRANCH   1  16
ATOM     16  C   UNL     1       2.110   0.022  -1.283  0.00  0.00    +0.022 C 
BRANCH  16  17
ATOM     17  C   UNL     1       0.668  -0.490  -1.319  0.00  0.00    -0.065 C 
BRANCH  17  19
ATOM     18  C   UNL     1      -0.123   1.670  -0.343  0.00  0.00    +0.009 C 
ATOM     19  C   UNL     1      -0.128   0.149  -0.179  0.00  0.00    -0.050 C 
ATOM     20  C   UNL     1       0.511  -0.223   1.160  0.00  0.00    +0.009 C 
ATOM     21  C   UNL     1      -1.570  -0.363  -0.215  0.00  0.00    +0.009 C 
ENDBRANCH  17  19
BRANCH  17  22
ATOM     22  N   UNL     1       0.054  -0.133  -2.605  0.00  0.00    +0.381 N 
ATOM     23  H   UNL     1       0.131   0.863  -2.750  0.00  0.00    -0.090 HD
ATOM     24  H   UNL     1       0.529  -0.619  -3.351  0.00  0.00    -0.090 HD
ATOM     25  H   UNL     1      -0.919  -0.398  -2.598  0.00  0.00    -0.090 HD
ENDBRANCH  17  22
ENDBRANCH  16  17
ENDBRANCH   1  16
TORSDOF 5
