REMARK  Name = ZINC66239861
REMARK  5 active torsions:
REMARK  status: ('A' for Active; 'I' for Inactive)
REMARK    1  A    between atoms: C_1  and  C_2
REMARK    2  A    between atoms: C_12  and  C_14
REMARK    3  A    between atoms: C_17  and  N_20
REMARK    4  A    between atoms: C_21  and  N_27
REMARK    5  A    between atoms: C_22  and  C_25
REMARK                            x       y       z     vdW  Elec       q    Type
REMARK                         _______ _______ _______ _____ _____    ______ ____
ROOT
ATOM      1  C   UNL     1      -0.239  -8.180   2.269  0.00  0.00    +0.037 A 
ATOM      2  C   UNL     1       0.738  -8.540   3.200  0.00  0.00    +0.015 A 
ATOM      3  C   UNL     1       0.847  -9.851   3.609  0.00  0.00    +0.028 A 
ATOM      4  C   UNL     1      -0.015 -10.815   3.097  0.00  0.00    +0.067 A 
ATOM      5  C   UNL     1      -0.989 -10.459   2.170  0.00  0.00    +0.028 A 
ATOM      6  C   UNL     1      -1.107  -9.150   1.760  0.00  0.00    +0.015 A 
ENDROOT
BRANCH   1  17
ATOM      7  C   UNL     1      -0.019   1.526   0.010  0.00  0.00    +0.008 C 
ATOM      8  C   UNL     1       0.002  -0.004   0.002  0.00  0.00    -0.009 C 
ATOM      9  C   UNL     1      -1.433  -0.537   0.019  0.00  0.00    +0.010 C 
ATOM     10  C   UNL     1      -1.438  -2.046  -0.235  0.00  0.00    +0.056 C 
ATOM     11  C   UNL     1      -0.479  -2.708   0.744  0.00  0.00    +0.054 A 
ATOM     12  C   UNL     1       0.472  -1.978   1.381  0.00  0.00    +0.015 A 
ATOM     13  S   UNL     1       1.291  -3.193   2.376  0.00  0.00    -0.057 S 
ATOM     14  C   UNL     1       0.366  -4.521   1.905  0.00  0.00    +0.165 A 
ATOM     15  N   UNL     1      -0.487  -4.003   1.049  0.00  0.00    -0.229 NA
ATOM     16  N   UNL     1       0.479  -5.842   2.320  0.00  0.00    -0.261 N 
ATOM     17  C   UNL     1      -0.359  -6.776   1.828  0.00  0.00    +0.250 C 
ATOM     18  O   UNL     1      -1.214  -6.463   1.022  0.00  0.00    -0.270 OA
ATOM     19  C   UNL     1       0.739  -0.516   1.250  0.00  0.00    +0.047 C 
ATOM     20  H   UNL     1       1.160  -6.092   2.963  0.00  0.00    +0.157 HD
ENDBRANCH   1  17
BRANCH   4  21
ATOM     21  N   UNL     1       0.098 -12.144   3.514  0.00  0.00    -0.218 N 
ATOM     22  C   UNL     1      -0.930 -13.016   3.678  0.00  0.00    +0.137 A 
ATOM     23  C   UNL     1      -0.376 -14.222   4.101  0.00  0.00    +0.111 A 
ATOM     24  C   UNL     1       1.023 -14.030   4.181  0.00  0.00    +0.155 A 
ATOM     25  N   UNL     1       1.291 -12.805   3.827  0.00  0.00    -0.172 NA
BRANCH  22  26
ATOM     26  N   UNL     1      -2.270 -12.757   3.466  0.00  0.00    -0.342 N 
ATOM     27  H   UNL     1      -2.552 -11.878   3.170  0.00  0.00    +0.144 HD
ATOM     28  H   UNL     1      -2.928 -13.454   3.613  0.00  0.00    +0.144 HD
ENDBRANCH  22  26
BRANCH  23  29
ATOM     29  C   UNL     1      -1.089 -15.428   4.398  0.00  0.00    +0.104 C 
ATOM     30  N   UNL     1      -1.654 -16.384   4.634  0.00  0.00    -0.191 NA
ENDBRANCH  23  29
ENDBRANCH   4  21
TORSDOF 4
