REMARK  Name = ZINC02380886
REMARK  3 active torsions:
REMARK  status: ('A' for Active; 'I' for Inactive)
REMARK    1  A    between atoms: C_5  and  C_7
REMARK    2  A    between atoms: C_7  and  C_8
REMARK    3  A    between atoms: N_10  and  N_11
REMARK                            x       y       z     vdW  Elec       q    Type
REMARK                         _______ _______ _______ _____ _____    ______ ____
ROOT
ATOM      1  C   UNL     1       1.506  -2.705   1.367  0.00  0.00    +0.237 C 
ATOM      2  O   UNL     1       1.841  -1.942   2.248  0.00  0.00    -0.274 OA
ATOM      3  N   UNL     1       1.338  -4.015   1.639  0.00  0.00    -0.206 N 
ATOM      4  H   UNL     1       1.070  -4.626   0.935  0.00  0.00    +0.177 HD
ENDROOT
BRANCH   3   5
ATOM      5  N   UNL     1       1.550  -4.494   2.939  0.00  0.00    -0.175 NA
ATOM      6  C   UNL     1       1.492  -5.780   3.181  0.00  0.00    +0.152 C 
ATOM      7  C   UNL     1       1.400  -6.881   2.193  0.00  0.00    +0.028 A 
ATOM      8  C   UNL     1       1.349  -6.912   0.804  0.00  0.00    +0.012 A 
ATOM      9  C   UNL     1       1.263  -8.124   0.149  0.00  0.00    +0.001 A 
ATOM     10  C   UNL     1       1.228  -9.303   0.874  0.00  0.00    +0.002 A 
ATOM     11  C   UNL     1       1.278  -9.283   2.253  0.00  0.00    +0.024 A 
ATOM     12  C   UNL     1       1.365  -8.072   2.930  0.00  0.00    +0.043 A 
ATOM     13  N   UNL     1       1.429  -7.775   4.287  0.00  0.00    -0.280 N 
ATOM     14  C   UNL     1       1.511  -6.450   4.497  0.00  0.00    +0.269 C 
ATOM     15  O   UNL     1       1.585  -5.900   5.580  0.00  0.00    -0.268 OA
ATOM     16  H   UNL     1       1.420  -8.440   4.993  0.00  0.00    +0.155 HD
ENDBRANCH   3   5
BRANCH   1  17
ATOM     17  C   UNL     1       1.278  -2.191  -0.030  0.00  0.00    +0.134 C 
BRANCH  17  22
ATOM     18  C   UNL     1       0.710   1.541   0.043  0.00  0.00    +0.000 A 
ATOM     19  C   UNL     1       1.995   2.020  -0.133  0.00  0.00    +0.001 A 
ATOM     20  C   UNL     1       3.048   1.137  -0.275  0.00  0.00    +0.020 A 
ATOM     21  C   UNL     1       2.817  -0.227  -0.242  0.00  0.00    +0.045 A 
ATOM     22  C   UNL     1       1.531  -0.706  -0.066  0.00  0.00    -0.020 A 
ATOM     23  C   UNL     1       0.478   0.179   0.076  0.00  0.00    +0.005 A 
ATOM     24 CL   UNL     1       4.140  -1.337  -0.422  0.00  0.00    -0.083 Cl
ENDBRANCH  17  22
ENDBRANCH   1  17
TORSDOF 3
