REMARK  Name = ZINC08873471
REMARK  6 active torsions:
REMARK  status: ('A' for Active; 'I' for Inactive)
REMARK    1  A    between atoms: C_3  and  C_8
REMARK    2  A    between atoms: C_8  and  N_49
REMARK    3  A    between atoms: C_11  and  C_14
REMARK    4  A    between atoms: N_16  and  N_17
REMARK    5  A    between atoms: N_17  and  S_18
REMARK    6  A    between atoms: S_18  and  C_21
REMARK                            x       y       z     vdW  Elec       q    Type
REMARK                         _______ _______ _______ _____ _____    ______ ____
ROOT
ATOM      1  C   UNL     1      -4.799   0.627   5.222  0.00  0.00    +0.231 C 
ATOM      2  O   UNL     1      -5.065  -0.524   5.493  0.00  0.00    -0.274 OA
ATOM      3  N   UNL     1      -4.753   1.556   6.198  0.00  0.00    -0.232 N 
ATOM      4  H   UNL     1      -4.541   2.477   5.981  0.00  0.00    +0.171 HD
ENDROOT
BRANCH   1   7
ATOM      5  C   UNL     1      -2.804   1.930   2.225  0.00  0.00    -0.078 C 
ATOM      6  C   UNL     1      -3.103   1.590   3.687  0.00  0.00    -0.006 C 
ATOM      7  C   UNL     1      -4.520   1.021   3.794  0.00  0.00    +0.073 C 
ATOM      8  C   UNL     1      -4.637  -0.211   2.892  0.00  0.00    -0.006 C 
ATOM      9  C   UNL     1      -4.293   0.181   1.454  0.00  0.00    -0.078 C 
ATOM     10  N   UNL     1      -2.909   0.699   1.415  0.00  0.00    +0.382 N 
ATOM     11  H   UNL     1      -2.277  -0.011   1.804  0.00  0.00    -0.081 HD
BRANCH  10  12
ATOM     12  C   UNL     1      -2.513   0.978   0.019  0.00  0.00    -0.043 C 
BRANCH  12  15
ATOM     13  C   UNL     1       1.176   1.783   0.000  0.00  0.00    +0.003 A 
ATOM     14  C   UNL     1      -0.013   1.076   0.008  0.00  0.00    +0.002 A 
ATOM     15  C   UNL     1      -1.219   1.750   0.017  0.00  0.00    -0.061 A 
ATOM     16  C   UNL     1      -1.239   3.132   0.031  0.00  0.00    +0.040 A 
ATOM     17  C   UNL     1      -0.050   3.841   0.023  0.00  0.00    +0.124 A 
ATOM     18  C   UNL     1       1.158   3.164   0.008  0.00  0.00    +0.038 A 
ATOM     19  F   UNL     1      -0.068   5.192   0.030  0.00  0.00    -0.205 F 
ENDBRANCH  12  15
ENDBRANCH  10  12
ENDBRANCH   1   7
BRANCH   3  20
ATOM     20  N   UNL     1      -5.012   1.191   7.525  0.00  0.00    -0.108 NA
ATOM     21  H   UNL     1      -5.841   0.740   7.751  0.00  0.00    +0.172 HD
BRANCH  20  22
ATOM     22  S   UNL     1      -3.903   1.528   8.708  0.00  0.00    +0.074 S 
ATOM     23  O   UNL     1      -4.508   1.172   9.944  0.00  0.00    -0.152 OA
ATOM     24  O   UNL     1      -2.668   0.973   8.277  0.00  0.00    -0.152 OA
BRANCH  22  25
ATOM     25  C   UNL     1      -3.688   3.276   8.737  0.00  0.00    +0.107 A 
ATOM     26  C   UNL     1      -2.715   3.865   7.951  0.00  0.00    +0.030 A 
ATOM     27  C   UNL     1      -2.549   5.237   7.969  0.00  0.00    +0.022 A 
ATOM     28  C   UNL     1      -3.349   6.020   8.783  0.00  0.00    +0.041 A 
ATOM     29  C   UNL     1      -4.319   5.429   9.573  0.00  0.00    +0.022 A 
ATOM     30  C   UNL     1      -4.487   4.058   9.550  0.00  0.00    +0.030 A 
ATOM     31 CL   UNL     1      -3.137   7.743   8.811  0.00  0.00    -0.084 Cl
ENDBRANCH  22  25
ENDBRANCH  20  22
ENDBRANCH   3  20
TORSDOF 6
