REMARK  Name = ZINC36028810
REMARK  11 active torsions:
REMARK  status: ('A' for Active; 'I' for Inactive)
REMARK    1  A    between atoms: C_1  and  C_2
REMARK    2  A    between atoms: C_2  and  C_3
REMARK    3  A    between atoms: C_2  and  C_4
REMARK    4  A    between atoms: C_4  and  C_5
REMARK    5  A    between atoms: N_9  and  C_27
REMARK    6  A    between atoms: C_17  and  C_19
REMARK    7  A    between atoms: C_22  and  O_25
REMARK    8  A    between atoms: O_25  and  C_26
REMARK    9  A    between atoms: C_27  and  C_28
REMARK   10  A    between atoms: C_28  and  C_29
REMARK   11  A    between atoms: C_28  and  C_30
REMARK                            x       y       z     vdW  Elec       q    Type
REMARK                         _______ _______ _______ _____ _____    ______ ____
ROOT
ATOM      1  C   UNL     1      -0.579  -2.219  -0.991  0.00  0.00    +0.019 C 
ATOM      2  C   UNL     1      -1.851  -2.772  -0.387  0.00  0.00    +0.200 C 
ATOM      3  O   UNL     1      -2.205  -2.638   0.766  0.00  0.00    -0.277 OA
ATOM      4  N   UNL     1      -2.527  -3.438  -1.346  0.00  0.00    -0.313 N 
ATOM      5  C   UNL     1      -1.775  -3.381  -2.603  0.00  0.00    +0.006 C 
ATOM      6  N   UNL     1      -0.795  -2.281  -2.457  0.00  0.00    +0.401 N 
ATOM      7  C   UNL     1      -1.038  -4.698  -2.837  0.00  0.00    +0.025 C 
ATOM      8  C   UNL     1      -2.057  -5.837  -2.948  0.00  0.00    +0.108 C 
ATOM      9  N   UNL     1      -3.041  -5.493  -3.983  0.00  0.00    -0.298 N 
ATOM     10  C   UNL     1      -3.749  -4.209  -3.887  0.00  0.00    +0.108 C 
ATOM     11  C   UNL     1      -2.716  -3.084  -3.769  0.00  0.00    +0.025 C 
ATOM     12  C   UNL     1      -3.289  -6.339  -5.002  0.00  0.00    +0.247 C 
ATOM     13  O   UNL     1      -4.025  -6.000  -5.908  0.00  0.00    -0.270 OA
ATOM     14  H   UNL     1      -1.181  -1.413  -2.797  0.00  0.00    -0.082 HD
ATOM     15  H   UNL     1       0.065  -2.503  -2.935  0.00  0.00    -0.082 HD
ENDROOT
BRANCH  12  16
ATOM     16  C   UNL     1      -2.666  -7.677  -5.019  0.00  0.00    +0.037 A 
ATOM     17  C   UNL     1      -2.595  -8.431  -3.845  0.00  0.00    +0.016 A 
ATOM     18  C   UNL     1      -2.014  -9.679  -3.864  0.00  0.00    +0.046 A 
ATOM     19  C   UNL     1      -1.498 -10.189  -5.050  0.00  0.00    +0.120 A 
ATOM     20  C   UNL     1      -1.568  -9.443  -6.220  0.00  0.00    +0.046 A 
ATOM     21  C   UNL     1      -2.152  -8.196  -6.210  0.00  0.00    +0.016 A 
BRANCH  19  22
ATOM     22  O   UNL     1      -0.926 -11.420  -5.065  0.00  0.00    -0.495 OA
ATOM     23  C   UNL     1      -0.416 -11.883  -6.317  0.00  0.00    +0.277 C 
ENDBRANCH  19  22
ENDBRANCH  12  16
BRANCH   1  24
ATOM     24  C   UNL     1      -0.362  -0.771  -0.545  0.00  0.00    -0.004 C 
BRANCH  24  26
ATOM     25  C   UNL     1       1.110   1.233  -0.785  0.00  0.00    +0.007 C 
ATOM     26  C   UNL     1       0.954  -0.250  -1.126  0.00  0.00    -0.018 C 
ATOM     27  C   UNL     1       2.122  -1.037  -0.528  0.00  0.00    +0.007 C 
ENDBRANCH  24  26
ENDBRANCH   1  24
BRANCH   4  28
ATOM     28  C   UNL     1      -3.813  -4.114  -1.161  0.00  0.00    +0.109 C 
BRANCH  28  29
ATOM     29  C   UNL     1      -4.931  -3.072  -1.084  0.00  0.00    +0.000 C 
ATOM     30  C   UNL     1      -4.833  -2.131  -2.286  0.00  0.00    +0.009 C 
ATOM     31  C   UNL     1      -6.288  -3.778  -1.098  0.00  0.00    +0.009 C 
ENDBRANCH  28  29
ENDBRANCH   4  28
TORSDOF 6
