REMARK  Name = ZINC53512951
REMARK  3 active torsions:
REMARK  status: ('A' for Active; 'I' for Inactive)
REMARK    1  A    between atoms: C_6  and  N_7
REMARK    2  A    between atoms: C_10  and  C_14
REMARK    3  A    between atoms: C_22  and  C_24
REMARK                            x       y       z     vdW  Elec       q    Type
REMARK                         _______ _______ _______ _____ _____    ______ ____
ROOT
ATOM      1  C   UNL     1      -4.640  -0.855  -0.827  0.00  0.00    +0.228 C 
ATOM      2  O   UNL     1      -4.897  -1.509  -1.815  0.00  0.00    -0.275 OA
ATOM      3  N   UNL     1      -5.387   0.224  -0.520  0.00  0.00    -0.294 N 
ATOM      4  C   UNL     1      -5.013   1.031   0.658  0.00  0.00    +0.108 C 
ATOM      5  C   UNL     1      -6.241   1.453   1.486  0.00  0.00    +0.019 C 
ATOM      6  C   UNL     1      -7.222   0.310   1.576  0.00  0.00    +0.002 C 
ATOM      7  C   UNL     1      -8.229   0.418   0.434  0.00  0.00    +0.002 C 
ATOM      8  C   UNL     1      -7.779  -0.187  -0.829  0.00  0.00    +0.027 C 
ATOM      9  C   UNL     1      -6.517   0.547  -1.361  0.00  0.00    +0.106 C 
ENDROOT
BRANCH   1  13
ATOM     10  N   UNL     1      -1.198  -0.754  -0.102  0.00  0.00    -0.271 N 
ATOM     11  C   UNL     1      -1.302  -2.216  -0.171  0.00  0.00    +0.115 C 
ATOM     12  C   UNL     1      -2.783  -2.510  -0.497  0.00  0.00    +0.041 C 
ATOM     13  C   UNL     1      -3.484  -1.248   0.057  0.00  0.00    +0.163 C 
ATOM     14  C   UNL     1      -2.408  -0.184   0.037  0.00  0.00    +0.232 C 
ATOM     15  O   UNL     1      -2.608   1.008   0.131  0.00  0.00    -0.274 OA
BRANCH  10  21
ATOM     16  C   UNL     1      -0.006   1.344  -0.213  0.00  0.00    +0.025 A 
ATOM     17  C   UNL     1       1.183   2.042  -0.278  0.00  0.00    +0.022 A 
ATOM     18  C   UNL     1       2.387   1.360  -0.297  0.00  0.00    +0.041 A 
ATOM     19  C   UNL     1       2.402  -0.023  -0.253  0.00  0.00    +0.022 A 
ATOM     20  C   UNL     1       1.216  -0.726  -0.188  0.00  0.00    +0.025 A 
ATOM     21  C   UNL     1       0.006  -0.044  -0.168  0.00  0.00    +0.036 A 
ATOM     22 CL   UNL     1       3.881   2.241  -0.380  0.00  0.00    -0.084 Cl
ENDBRANCH  10  21
ENDBRANCH   1  13
BRANCH   9  23
ATOM     23  C   UNL     1      -6.233   0.108  -2.774  0.00  0.00    -0.024 A 
ATOM     24  C   UNL     1      -7.095  -0.751  -3.438  0.00  0.00    +0.025 A 
ATOM     25  C   UNL     1      -6.801  -1.132  -4.734  0.00  0.00    +0.111 A 
ATOM     26  N   UNL     1      -5.716  -0.688  -5.337  0.00  0.00    -0.263 NA
ATOM     27  C   UNL     1      -4.874   0.130  -4.737  0.00  0.00    +0.111 A 
ATOM     28  C   UNL     1      -5.105   0.559  -3.444  0.00  0.00    +0.025 A 
ENDBRANCH   9  23
TORSDOF 3
