REMARK  Name = ZINC35172431
REMARK  7 active torsions:
REMARK  status: ('A' for Active; 'I' for Inactive)
REMARK    1  A    between atoms: C_1  and  C_2
REMARK    2  A    between atoms: C_5  and  C_8
REMARK    3  A    between atoms: C_11  and  S_21
REMARK    4  A    between atoms: N_12  and  C_13
REMARK    5  A    between atoms: S_21  and  C_22
REMARK    6  A    between atoms: C_22  and  C_23
REMARK    7  A    between atoms: C_29  and  C_32
REMARK                            x       y       z     vdW  Elec       q    Type
REMARK                         _______ _______ _______ _____ _____    ______ ____
ROOT
ATOM      1  C   UNL     1       0.061  -4.251  -0.021  0.00  0.00    +0.169 A 
ATOM      2  N   UNL     1      -0.202  -5.029  -1.046  0.00  0.00    -0.128 NA
ATOM      3  N   UNL     1      -0.091  -6.262  -0.701  0.00  0.00    -0.122 NA
ATOM      4  C   UNL     1       0.249  -6.349   0.566  0.00  0.00    +0.197 A 
ATOM      5  N   UNL     1       0.364  -5.072   1.043  0.00  0.00    -0.270 N 
ENDROOT
BRANCH   5   6
ATOM      6  C   UNL     1       0.714  -4.680   2.343  0.00  0.00    +0.052 A 
ATOM      7  C   UNL     1       1.890  -3.978   2.565  0.00  0.00    +0.028 A 
ATOM      8  C   UNL     1       2.233  -3.592   3.846  0.00  0.00    +0.023 A 
ATOM      9  C   UNL     1       1.405  -3.906   4.909  0.00  0.00    +0.059 A 
ATOM     10  C   UNL     1       0.230  -4.607   4.691  0.00  0.00    +0.061 A 
ATOM     11  C   UNL     1      -0.119  -4.989   3.409  0.00  0.00    +0.047 A 
ATOM     12 CL   UNL     1      -0.806  -5.000   6.027  0.00  0.00    -0.082 Cl
ATOM     13 CL   UNL     1       1.839  -3.421   6.518  0.00  0.00    -0.082 Cl
ENDBRANCH   5   6
BRANCH   1  18
ATOM     14  C   UNL     1      -0.018   1.503   0.010  0.00  0.00    +0.044 C 
ATOM     15  C   UNL     1       0.002  -0.004   0.002  0.00  0.00    -0.050 A 
ATOM     16  C   UNL     1       0.006  -0.686  -1.202  0.00  0.00    +0.004 A 
ATOM     17  C   UNL     1       0.025  -2.066  -1.216  0.00  0.00    +0.012 A 
ATOM     18  C   UNL     1       0.041  -2.773  -0.013  0.00  0.00    +0.020 A 
ATOM     19  C   UNL     1       0.037  -2.079   1.198  0.00  0.00    +0.012 A 
ATOM     20  C   UNL     1       0.023  -0.699   1.198  0.00  0.00    +0.004 A 
ENDBRANCH   1  18
BRANCH   4  21
ATOM     21  S   UNL     1       0.516  -7.833   1.478  0.00  0.00    -0.076 S 
BRANCH  21  22
ATOM     22  C   UNL     1       0.213  -9.151   0.269  0.00  0.00    +0.173 C 
BRANCH  22  23
ATOM     23  C   UNL     1       0.409 -10.492   0.928  0.00  0.00    +0.226 C 
ATOM     24  O   UNL     1       0.723 -10.553   2.098  0.00  0.00    -0.275 OA
ATOM     25  N   UNL     1       0.237 -11.624   0.217  0.00  0.00    -0.304 N 
ATOM     26  C   UNL     1      -0.138 -11.575  -1.204  0.00  0.00    +0.089 C 
ATOM     27  C   UNL     1       0.825 -12.470  -1.991  0.00  0.00    -0.063 C 
ATOM     28  N   UNL     1       0.823 -13.819  -1.411  0.00  0.00    +0.383 N 
ATOM     29  C   UNL     1       1.354 -13.775  -0.042  0.00  0.00    -0.057 C 
ATOM     30  C   UNL     1       0.423 -12.944   0.840  0.00  0.00    +0.092 C 
ATOM     31  C   UNL     1       1.452 -15.197   0.513  0.00  0.00    -0.012 C 
ATOM     32  H   UNL     1      -0.121 -14.175  -1.393  0.00  0.00    -0.085 HD
ATOM     33  H   UNL     1       1.399 -14.427  -1.974  0.00  0.00    -0.085 HD
ENDBRANCH  22  23
ENDBRANCH  21  22
ENDBRANCH   4  21
TORSDOF 5
