REMARK  Name = ZINC49052134
REMARK  4 active torsions:
REMARK  status: ('A' for Active; 'I' for Inactive)
REMARK    1  A    between atoms: C_3  and  C_9
REMARK    2  A    between atoms: C_9  and  N_10
REMARK    3  A    between atoms: C_16  and  O_19
REMARK    4  A    between atoms: O_19  and  C_20
REMARK                            x       y       z     vdW  Elec       q    Type
REMARK                         _______ _______ _______ _____ _____    ______ ____
ROOT
ATOM      1  N   UNL     1       4.311   2.137   1.291  0.00  0.00    -0.295 N 
ATOM      2  C   UNL     1       5.496   2.730   1.535  0.00  0.00    +0.302 C 
ATOM      3  O   UNL     1       6.117   3.244   0.624  0.00  0.00    -0.253 OA
ATOM      4  N   UNL     1       5.994   2.753   2.787  0.00  0.00    -0.285 N 
ATOM      5  C   UNL     1       5.316   2.034   3.875  0.00  0.00    +0.113 C 
ATOM      6  C   UNL     1       5.060   3.011   5.027  0.00  0.00    +0.063 C 
ATOM      7  C   UNL     1       6.379   3.670   5.435  0.00  0.00    +0.176 C 
ATOM      8  C   UNL     1       6.946   4.457   4.251  0.00  0.00    +0.063 C 
ATOM      9  C   UNL     1       7.227   3.492   3.089  0.00  0.00    +0.113 C 
ATOM     10  H   UNL     1       3.852   1.661   2.001  0.00  0.00    +0.151 HD
ENDROOT
BRANCH   1  11
ATOM     11  C   UNL     1       3.714   2.213  -0.045  0.00  0.00    +0.142 C 
BRANCH  11  14
ATOM     12  C   UNL     1       0.006   1.503  -0.060  0.00  0.00    +0.020 A 
ATOM     13  C   UNL     1       1.212   2.180  -0.054  0.00  0.00    +0.008 A 
ATOM     14  C   UNL     1       2.401   1.475  -0.051  0.00  0.00    -0.012 A 
ATOM     15  C   UNL     1       2.385   0.091  -0.055  0.00  0.00    +0.047 A 
ATOM     16  C   UNL     1       1.179  -0.586  -0.061  0.00  0.00    +0.040 A 
ATOM     17  C   UNL     1      -0.011   0.120  -0.064  0.00  0.00    +0.042 A 
ATOM     18 CL   UNL     1      -1.525  -0.729  -0.072  0.00  0.00    -0.083 Cl
ATOM     19 CL   UNL     1       3.878  -0.795  -0.052  0.00  0.00    -0.083 Cl
ENDBRANCH  11  14
ENDBRANCH   1  11
BRANCH   7  20
ATOM     20  O   UNL     1       6.149   4.558   6.530  0.00  0.00    -0.489 OA
BRANCH  20  21
ATOM     21  C   UNL     1       7.210   4.840   7.329  0.00  0.00    +0.124 A 
ATOM     22  C   UNL     1       7.096   5.759   8.369  0.00  0.00    +0.063 A 
ATOM     23  C   UNL     1       8.198   6.017   9.159  0.00  0.00    +0.086 A 
ATOM     24  N   UNL     1       9.347   5.407   8.938  0.00  0.00    -0.367 N 
ATOM     25  C   UNL     1       9.493   4.530   7.963  0.00  0.00    +0.086 A 
ATOM     26  C   UNL     1       8.438   4.213   7.133  0.00  0.00    +0.063 A 
ATOM     27  H   UNL     1      10.105   5.608   9.508  0.00  0.00    +0.165 HD
ENDBRANCH  20  21
ENDBRANCH   7  20
TORSDOF 4
