REMARK  Name = ZINC39415573
REMARK  7 active torsions:
REMARK  status: ('A' for Active; 'I' for Inactive)
REMARK    1  A    between atoms: C_1  and  C_2
REMARK    2  A    between atoms: C_5  and  N_9
REMARK    3  A    between atoms: C_7  and  C_8
REMARK    4  A    between atoms: C_10  and  C_29
REMARK    5  A    between atoms: C_14  and  S_16
REMARK    6  A    between atoms: S_16  and  C_17
REMARK    7  A    between atoms: C_17  and  C_18
REMARK                            x       y       z     vdW  Elec       q    Type
REMARK                         _______ _______ _______ _____ _____    ______ ____
ROOT
ATOM      1  N   UNL     1       0.102  -4.171   0.020  0.00  0.00    -0.273 N 
ATOM      2  C   UNL     1      -0.031  -5.052  -1.153  0.00  0.00    +0.218 C 
ATOM      3  N   UNL     1       0.022  -6.424  -0.646  0.00  0.00    -0.286 N 
ATOM      4  N   UNL     1       0.158  -6.454   0.576  0.00  0.00    -0.180 NA
ATOM      5  C   UNL     1       0.232  -5.109   1.149  0.00  0.00    +0.273 C 
ATOM      6  H   UNL     1      -0.044  -7.213  -1.205  0.00  0.00    +0.185 HD
ENDROOT
BRANCH   1  11
ATOM      7  C   UNL     1       0.133   1.498   0.158  0.00  0.00    +0.044 C 
ATOM      8  C   UNL     1       0.125  -0.008   0.122  0.00  0.00    -0.047 A 
ATOM      9  C   UNL     1       0.107  -0.669  -1.093  0.00  0.00    +0.005 A 
ATOM     10  C   UNL     1       0.100  -2.049  -1.131  0.00  0.00    +0.023 A 
ATOM     11  C   UNL     1       0.110  -2.774   0.054  0.00  0.00    +0.034 A 
ATOM     12  C   UNL     1       0.128  -2.108   1.273  0.00  0.00    +0.027 A 
ATOM     13  C   UNL     1       0.141  -0.727   1.303  0.00  0.00    -0.046 A 
ATOM     14  C   UNL     1       0.166  -0.003   2.624  0.00  0.00    +0.044 C 
ENDBRANCH   1  11
BRANCH   2  15
ATOM     15  C   UNL     1      -1.349  -4.803  -1.840  0.00  0.00    -0.006 A 
ATOM     16  C   UNL     1      -1.736  -5.599  -2.902  0.00  0.00    +0.007 A 
ATOM     17  C   UNL     1      -2.945  -5.371  -3.532  0.00  0.00    +0.000 A 
ATOM     18  C   UNL     1      -3.767  -4.347  -3.100  0.00  0.00    +0.000 A 
ATOM     19  C   UNL     1      -3.380  -3.551  -2.038  0.00  0.00    +0.000 A 
ATOM     20  C   UNL     1      -2.173  -3.782  -1.405  0.00  0.00    +0.007 A 
ENDBRANCH   2  15
BRANCH   5  21
ATOM     21  S   UNL     1      -1.127  -4.861   2.325  0.00  0.00    -0.106 S 
BRANCH  21  22
ATOM     22  C   UNL     1      -2.605  -5.362   1.400  0.00  0.00    +0.147 C 
BRANCH  22  23
ATOM     23  C   UNL     1      -3.804  -5.329   2.312  0.00  0.00    +0.120 A 
ATOM     24  N   UNL     1      -5.013  -5.679   1.802  0.00  0.00    -0.309 N 
ATOM     25  H   UNL     1      -5.095  -5.944   0.873  0.00  0.00    +0.170 HD
ATOM     26  C   UNL     1      -6.104  -5.656   2.606  0.00  0.00    +0.266 A 
ATOM     27  O   UNL     1      -7.204  -5.965   2.178  0.00  0.00    -0.267 OA
ATOM     28  C   UNL     1      -5.934  -5.268   3.935  0.00  0.00    +0.102 A 
ATOM     29  C   UNL     1      -4.671  -4.910   4.437  0.00  0.00    +0.085 A 
ATOM     30  N   UNL     1      -3.630  -4.972   3.544  0.00  0.00    -0.232 NA
ATOM     31  C   UNL     1      -4.642  -4.542   5.789  0.00  0.00    +0.036 A 
ATOM     32  C   UNL     1      -5.778  -4.546   6.519  0.00  0.00    +0.048 A 
ATOM     33  S   UNL     1      -7.004  -5.080   5.337  0.00  0.00    -0.090 S 
ENDBRANCH  22  23
ENDBRANCH  21  22
ENDBRANCH   5  21
TORSDOF 5
