REMARK  Name = ZINC39664028
REMARK  8 active torsions:
REMARK  status: ('A' for Active; 'I' for Inactive)
REMARK    1  A    between atoms: C_1  and  O_2
REMARK    2  A    between atoms: O_2  and  C_3
REMARK    3  A    between atoms: C_6  and  C_9
REMARK    4  A    between atoms: C_9  and  C_11
REMARK    5  A    between atoms: C_9  and  N_36
REMARK    6  A    between atoms: C_11  and  N_12
REMARK    7  A    between atoms: C_13  and  C_15
REMARK    8  A    between atoms: C_26  and  C_28
REMARK                            x       y       z     vdW  Elec       q    Type
REMARK                         _______ _______ _______ _____ _____    ______ ____
ROOT
ATOM      1  C   UNL     1       2.582  -4.775   8.787  0.00  0.00    +0.100 C 
ATOM      2  C   UNL     1       3.255  -6.083   8.316  0.00  0.00    +0.121 C 
ATOM      3  N   UNL     1       3.144  -7.000   9.475  0.00  0.00    -0.296 N 
ATOM      4  C   UNL     1       1.794  -6.733  10.027  0.00  0.00    +0.115 C 
ATOM      5  C   UNL     1       1.623  -5.206   9.910  0.00  0.00    -0.004 C 
ATOM      6  C   UNL     1       2.008  -4.529  11.222  0.00  0.00    -0.010 C 
ATOM      7  C   UNL     1       1.007  -4.929  12.310  0.00  0.00    -0.082 C 
ATOM      8  N   UNL     1      -0.345  -4.524  11.905  0.00  0.00    +0.379 N 
ATOM      9  C   UNL     1      -0.743  -5.249  10.693  0.00  0.00    -0.082 C 
ATOM     10  C   UNL     1       0.184  -4.864   9.537  0.00  0.00    -0.010 C 
ATOM     11  C   UNL     1       4.062  -7.878   9.925  0.00  0.00    +0.249 C 
ATOM     12  O   UNL     1       5.167  -7.915   9.420  0.00  0.00    -0.270 OA
ATOM     13  H   UNL     1      -0.994  -4.733  12.649  0.00  0.00    -0.086 HD
ATOM     14  H   UNL     1      -0.356  -3.532  11.721  0.00  0.00    -0.086 HD
ENDROOT
BRANCH  11  15
ATOM     15  C   UNL     1       3.726  -8.794  11.032  0.00  0.00    +0.072 A 
ATOM     16  C   UNL     1       2.432  -9.309  11.149  0.00  0.00    +0.019 A 
ATOM     17  C   UNL     1       2.124 -10.164  12.184  0.00  0.00    +0.039 A 
ATOM     18  C   UNL     1       3.095 -10.516  13.111  0.00  0.00    +0.126 A 
ATOM     19  C   UNL     1       4.380 -10.010  13.003  0.00  0.00    +0.077 A 
ATOM     20  C   UNL     1       4.703  -9.156  11.966  0.00  0.00    +0.138 A 
ATOM     21  F   UNL     1       5.958  -8.667  11.857  0.00  0.00    -0.205 F 
ATOM     22  F   UNL     1       2.785 -11.354  14.124  0.00  0.00    -0.205 F 
ENDBRANCH  11  15
BRANCH   1  24
ATOM     23  N   UNL     1       1.510  -2.830   7.697  0.00  0.00    -0.316 N 
ATOM     24  C   UNL     1       1.814  -4.143   7.655  0.00  0.00    +0.218 C 
ATOM     25  O   UNL     1       1.469  -4.816   6.707  0.00  0.00    -0.275 OA
ATOM     26  H   UNL     1       1.786  -2.293   8.455  0.00  0.00    +0.149 HD
BRANCH  23  27
ATOM     27  C   UNL     1       0.763  -2.216   6.596  0.00  0.00    +0.093 C 
BRANCH  27  28
ATOM     28  C   UNL     1       0.659  -0.708   6.829  0.00  0.00    -0.020 C 
BRANCH  28  32
ATOM     29  C   UNL     1      -1.710   0.036  10.308  0.00  0.00    +0.120 A 
ATOM     30  C   UNL     1      -0.325   0.083  10.387  0.00  0.00    +0.046 A 
ATOM     31  C   UNL     1       0.438  -0.158   9.261  0.00  0.00    +0.005 A 
ATOM     32  C   UNL     1      -0.176  -0.446   8.056  0.00  0.00    -0.059 A 
ATOM     33  C   UNL     1      -1.556  -0.494   7.975  0.00  0.00    +0.005 A 
ATOM     34  C   UNL     1      -2.323  -0.259   9.099  0.00  0.00    +0.046 A 
BRANCH  29  36
ATOM     35  C   UNL     1      -1.763   0.569  12.624  0.00  0.00    +0.277 C 
ATOM     36  O   UNL     1      -2.463   0.272  11.414  0.00  0.00    -0.495 OA
ENDBRANCH  29  36
ENDBRANCH  28  32
BRANCH  28  37
ATOM     37  N   UNL     1       0.029  -0.074   5.663  0.00  0.00    +0.385 N 
ATOM     38  C   UNL     1       0.088   1.405   5.790  0.00  0.00    -0.078 C 
ATOM     39  C   UNL     1      -0.067   1.892   4.327  0.00  0.00    -0.020 C 
ATOM     40  C   UNL     1       0.731   0.838   3.526  0.00  0.00    -0.020 C 
ATOM     41  C   UNL     1       0.783  -0.404   4.434  0.00  0.00    -0.078 C 
ATOM     42  H   UNL     1      -0.929  -0.379   5.577  0.00  0.00    -0.081 HD
ENDBRANCH  28  37
ENDBRANCH  27  28
ENDBRANCH  23  27
ENDBRANCH   1  24
TORSDOF 7
