REMARK  Name = ZINC16721070
REMARK  4 active torsions:
REMARK  status: ('A' for Active; 'I' for Inactive)
REMARK    1  A    between atoms: C_1  and  C_2
REMARK    2  A    between atoms: C_10  and  C_11
REMARK    3  A    between atoms: N_13  and  N_14
REMARK    4  A    between atoms: N_14  and  C_15
REMARK                            x       y       z     vdW  Elec       q    Type
REMARK                         _______ _______ _______ _____ _____    ______ ____
ROOT
ATOM      1  N   UNL     1      -0.103  -0.870   4.829  0.00  0.00    -0.271 N 
ATOM      2  H   UNL     1      -0.055   0.078   5.029  0.00  0.00    +0.169 HD
ENDROOT
BRANCH   1   3
ATOM      3  C   UNL     1       0.083  -1.783   5.817  0.00  0.00    +0.101 C 
ATOM      4  C   UNL     1       0.193  -1.369   7.126  0.00  0.00    +0.060 C 
ATOM      5  C   UNL     1      -0.447  -0.118   7.585  0.00  0.00    +0.000 A 
ATOM      6  C   UNL     1      -1.182   0.687   6.722  0.00  0.00    +0.009 A 
ATOM      7  C   UNL     1      -1.761   1.845   7.199  0.00  0.00    +0.001 A 
ATOM      8  C   UNL     1      -1.614   2.211   8.529  0.00  0.00    +0.001 A 
ATOM      9  C   UNL     1      -0.888   1.426   9.399  0.00  0.00    +0.013 A 
ATOM     10  C   UNL     1      -0.295   0.250   8.938  0.00  0.00    +0.045 A 
ATOM     11  C   UNL     1       0.485  -0.615   9.831  0.00  0.00    +0.251 C 
ATOM     12  O   UNL     1       0.619  -0.302  10.999  0.00  0.00    -0.270 OA
ATOM     13  N   UNL     1       1.053  -1.746   9.381  0.00  0.00    -0.248 N 
ATOM     14  C   UNL     1       0.945  -2.159   8.108  0.00  0.00    +0.252 C 
ATOM     15  O   UNL     1       1.480  -3.197   7.764  0.00  0.00    -0.270 OA
ATOM     16  H   UNL     1       1.560  -2.289  10.004  0.00  0.00    +0.158 HD
ENDBRANCH   1   3
BRANCH   1  19
ATOM     17  C   UNL     1      -0.550  -0.391   2.540  0.00  0.00    +0.296 C 
ATOM     18  O   UNL     1      -0.489   0.798   2.791  0.00  0.00    -0.265 OA
ATOM     19  N   UNL     1      -0.365  -1.297   3.521  0.00  0.00    -0.230 N 
ATOM     20  H   UNL     1      -0.414  -2.245   3.320  0.00  0.00    +0.173 HD
BRANCH  17  30
ATOM     21  C   UNL     1      -1.011   1.487   0.104  0.00  0.00    +0.048 C 
ATOM     22  C   UNL     1      -1.026  -0.020   0.103  0.00  0.00    +0.008 A 
ATOM     23  C   UNL     1      -1.256  -0.896  -1.045  0.00  0.00    +0.024 A 
ATOM     24  C   UNL     1      -1.514  -0.677  -2.400  0.00  0.00    +0.012 A 
ATOM     25  C   UNL     1      -1.686  -1.743  -3.237  0.00  0.00    +0.001 A 
ATOM     26  C   UNL     1      -1.605  -3.041  -2.750  0.00  0.00    +0.004 A 
ATOM     27  C   UNL     1      -1.351  -3.278  -1.416  0.00  0.00    +0.047 A 
ATOM     28  C   UNL     1      -1.173  -2.209  -0.545  0.00  0.00    +0.136 A 
ATOM     29  O   UNL     1      -0.918  -2.127   0.775  0.00  0.00    -0.450 OA
ATOM     30  C   UNL     1      -0.825  -0.839   1.167  0.00  0.00    +0.195 A 
ENDBRANCH  17  30
ENDBRANCH   1  19
TORSDOF 3
