REMARK  Name = ZINC00215334
REMARK  3 active torsions:
REMARK  status: ('A' for Active; 'I' for Inactive)
REMARK    1  A    between atoms: C_1  and  C_2
REMARK    2  A    between atoms: C_9  and  C_11
REMARK    3  A    between atoms: C_11  and  N_12
REMARK                            x       y       z     vdW  Elec       q    Type
REMARK                         _______ _______ _______ _____ _____    ______ ____
ROOT
ATOM      1  N   UNL     1      -2.042   0.439   6.876  0.00  0.00    -0.290 N 
ATOM      2  C   UNL     1      -3.277  -0.121   6.796  0.00  0.00    +0.203 A 
ATOM      3  N   UNL     1      -3.645  -1.067   7.618  0.00  0.00    -0.230 NA
ATOM      4  C   UNL     1      -2.822  -1.507   8.566  0.00  0.00    +0.116 A 
ATOM      5  C   UNL     1      -1.529  -0.987   8.730  0.00  0.00    +0.076 A 
ATOM      6  C   UNL     1      -1.155   0.047   7.810  0.00  0.00    +0.263 A 
ATOM      7  O   UNL     1      -0.052   0.562   7.871  0.00  0.00    -0.267 OA
ATOM      8  C   UNL     1      -0.738  -1.567   9.815  0.00  0.00    -0.023 A 
ATOM      9  C   UNL     1      -1.323  -2.538  10.547  0.00  0.00    -0.004 A 
ATOM     10  S   UNL     1      -2.938  -2.733   9.844  0.00  0.00    -0.073 S 
ATOM     11  C   UNL     1      -0.729  -3.286  11.701  0.00  0.00    +0.043 C 
ATOM     12  C   UNL     1       0.787  -3.048  11.704  0.00  0.00    +0.005 C 
ATOM     13  C   UNL     1       1.050  -1.548  11.540  0.00  0.00    +0.005 C 
ATOM     14  C   UNL     1       0.685  -1.109  10.122  0.00  0.00    +0.037 C 
ENDROOT
BRANCH   1  15
ATOM     15  C   UNL     1      -1.670   1.494   5.931  0.00  0.00    +0.222 C 
BRANCH  15  23
ATOM     16  C   UNL     1      -0.013   1.086   0.008  0.00  0.00    +0.009 C 
ATOM     17  C   UNL     1      -0.729   1.579   1.267  0.00  0.00    +0.003 C 
ATOM     18  C   UNL     1      -0.749   3.110   1.277  0.00  0.00    +0.006 C 
ATOM     19  C   UNL     1      -1.493   3.604   2.519  0.00  0.00    +0.019 C 
ATOM     20  C   UNL     1      -0.760   3.121   3.775  0.00  0.00    +0.108 C 
ATOM     21  N   UNL     1      -0.609   1.661   3.703  0.00  0.00    -0.300 N 
ATOM     22  C   UNL     1       0.013   1.073   2.508  0.00  0.00    +0.111 C 
ATOM     23  C   UNL     1      -1.034   0.876   4.713  0.00  0.00    +0.235 C 
ATOM     24  O   UNL     1      -0.904  -0.328   4.641  0.00  0.00    -0.274 OA
ENDBRANCH  15  23
ENDBRANCH   1  15
TORSDOF 2
