REMARK  Name = ZINC05106171
REMARK  3 active torsions:
REMARK  status: ('A' for Active; 'I' for Inactive)
REMARK    1  A    between atoms: C_1  and  C_2
REMARK    2  A    between atoms: C_5  and  C_22
REMARK    3  A    between atoms: N_10  and  C_16
REMARK                            x       y       z     vdW  Elec       q    Type
REMARK                         _______ _______ _______ _____ _____    ______ ____
ROOT
ATOM      1  C   UNL     1       2.374   1.162   4.119  0.00  0.00    +0.110 C 
ATOM      2  C   UNL     1       1.040   1.440   3.476  0.00  0.00    +0.227 C 
ATOM      3  O   UNL     1       0.105   1.809   4.154  0.00  0.00    -0.275 OA
ATOM      4  N   UNL     1       0.886   1.278   2.147  0.00  0.00    -0.229 N 
ATOM      5  C   UNL     1      -0.378   1.526   1.373  0.00  0.00    +0.130 C 
ATOM      6  C   UNL     1      -0.013   1.086   0.008  0.00  0.00    +0.060 C 
ATOM      7  C   UNL     1      -0.374   1.543  -1.359  0.00  0.00    +0.116 C 
ATOM      8  N   UNL     1       0.800   1.054  -2.149  0.00  0.00    -0.297 N 
ATOM      9  C   UNL     1       1.883   0.908  -1.323  0.00  0.00    +0.235 C 
ATOM     10  O   UNL     1       2.939   0.380  -1.604  0.00  0.00    -0.274 OA
ATOM     11  C   UNL     1       1.517   1.525  -0.004  0.00  0.00    +0.165 C 
ATOM     12  N   UNL     1       1.878   0.861   1.256  0.00  0.00    -0.225 NA
ATOM     13  H   UNL     1       2.792   1.152   1.569  0.00  0.00    +0.145 HD
ENDROOT
BRANCH   8  14
ATOM     14  C   UNL     1       0.791   0.773  -3.587  0.00  0.00    +0.076 C 
ATOM     15  C   UNL     1       1.147  -0.697  -3.822  0.00  0.00    +0.022 C 
ATOM     16  C   UNL     1       1.138  -0.990  -5.323  0.00  0.00    +0.002 C 
ATOM     17  C   UNL     1       2.165  -0.098  -6.023  0.00  0.00    +0.000 C 
ATOM     18  C   UNL     1       1.809   1.371  -5.789  0.00  0.00    +0.002 C 
ATOM     19  C   UNL     1       1.818   1.665  -4.287  0.00  0.00    +0.022 C 
ENDBRANCH   8  14
BRANCH   5  20
ATOM     20  C   UNL     1      -0.748   2.987   1.381  0.00  0.00    -0.025 A 
ATOM     21  C   UNL     1       0.242   3.951   1.395  0.00  0.00    +0.005 A 
ATOM     22  C   UNL     1      -0.097   5.291   1.398  0.00  0.00    +0.000 A 
ATOM     23  C   UNL     1      -1.427   5.667   1.397  0.00  0.00    +0.000 A 
ATOM     24  C   UNL     1      -2.418   4.703   1.388  0.00  0.00    +0.000 A 
ATOM     25  C   UNL     1      -2.079   3.363   1.380  0.00  0.00    +0.005 A 
ENDBRANCH   5  20
TORSDOF 2
