REMARK  Name = ZINC43943894
REMARK  5 active torsions:
REMARK  status: ('A' for Active; 'I' for Inactive)
REMARK    1  A    between atoms: C_6  and  N_7
REMARK    2  A    between atoms: C_13  and  C_16
REMARK    3  A    between atoms: C_16  and  N_17
REMARK    4  A    between atoms: C_18  and  C_20
REMARK    5  A    between atoms: N_22  and  C_23
REMARK                            x       y       z     vdW  Elec       q    Type
REMARK                         _______ _______ _______ _____ _____    ______ ____
ROOT
ATOM      1  N   UNL     1      -0.699  -1.002   0.469  0.00  0.00    -0.269 N 
ATOM      2  C   UNL     1      -0.753  -2.334   0.272  0.00  0.00    +0.306 C 
ATOM      3  O   UNL     1       0.273  -2.984   0.220  0.00  0.00    -0.252 OA
ATOM      4  N   UNL     1      -1.946  -2.946   0.132  0.00  0.00    -0.285 N 
ATOM      5  C   UNL     1      -3.184  -2.161   0.034  0.00  0.00    +0.109 C 
ATOM      6  C   UNL     1      -4.171  -2.663   1.092  0.00  0.00    +0.024 C 
ATOM      7  C   UNL     1      -4.369  -4.171   0.924  0.00  0.00    +0.009 C 
ATOM      8  C   UNL     1      -3.034  -4.888   1.132  0.00  0.00    +0.024 C 
ATOM      9  C   UNL     1      -2.032  -4.412   0.069  0.00  0.00    +0.109 C 
ATOM     10  H   UNL     1      -1.513  -0.503   0.638  0.00  0.00    +0.156 HD
ENDROOT
BRANCH   1  16
ATOM     11  C   UNL     1       0.584   1.021   0.154  0.00  0.00    +0.026 A 
ATOM     12  C   UNL     1       1.800   1.673   0.117  0.00  0.00    +0.040 A 
ATOM     13  C   UNL     1       2.970   0.973   0.358  0.00  0.00    +0.124 A 
ATOM     14  C   UNL     1       2.923  -0.383   0.635  0.00  0.00    +0.040 A 
ATOM     15  C   UNL     1       1.708  -1.039   0.672  0.00  0.00    +0.026 A 
ATOM     16  C   UNL     1       0.534  -0.339   0.432  0.00  0.00    +0.035 A 
ATOM     17  F   UNL     1       4.159   1.613   0.322  0.00  0.00    -0.205 F 
ENDBRANCH   1  16
BRANCH   7  18
ATOM     18  C   UNL     1      -5.382  -4.670   1.957  0.00  0.00    +0.108 C 
BRANCH  18  19
ATOM     19  N   UNL     1      -5.661  -6.088   1.721  0.00  0.00    -0.307 N 
ATOM     20  C   UNL     1      -6.530  -6.745   2.515  0.00  0.00    +0.299 C 
ATOM     21  O   UNL     1      -7.081  -6.161   3.425  0.00  0.00    -0.265 OA
ATOM     22  H   UNL     1      -5.221  -6.555   0.994  0.00  0.00    +0.149 HD
BRANCH  20  23
ATOM     23  C   UNL     1      -6.815  -8.191   2.275  0.00  0.00    +0.303 C 
ATOM     24  O   UNL     1      -6.264  -8.775   1.364  0.00  0.00    -0.265 OA
ATOM     25  N   UNL     1      -7.684  -8.848   3.068  0.00  0.00    -0.275 N 
ATOM     26  H   UNL     1      -8.118  -8.383   3.801  0.00  0.00    +0.155 HD
BRANCH  25  27
ATOM     27  C   UNL     1      -7.961 -10.199   2.835  0.00  0.00    +0.070 A 
ATOM     28  C   UNL     1      -6.981 -11.029   2.307  0.00  0.00    +0.029 A 
ATOM     29  C   UNL     1      -7.256 -12.363   2.078  0.00  0.00    +0.040 A 
ATOM     30  C   UNL     1      -8.509 -12.874   2.373  0.00  0.00    +0.126 A 
ATOM     31  C   UNL     1      -9.490 -12.050   2.899  0.00  0.00    +0.078 A 
ATOM     32  C   UNL     1      -9.217 -10.715   3.137  0.00  0.00    +0.147 A 
ATOM     33  F   UNL     1     -10.172  -9.912   3.655  0.00  0.00    -0.203 F 
ATOM     34  F   UNL     1      -8.775 -14.179   2.146  0.00  0.00    -0.205 F 
ENDBRANCH  25  27
ENDBRANCH  20  23
ENDBRANCH  18  19
ENDBRANCH   7  18
TORSDOF 5
