REMARK  Name = ZINC59017902
REMARK  4 active torsions:
REMARK  status: ('A' for Active; 'I' for Inactive)
REMARK    1  A    between atoms: C_1  and  C_2
REMARK    2  A    between atoms: C_7  and  C_24
REMARK    3  A    between atoms: N_12  and  C_16
REMARK    4  A    between atoms: C_16  and  N_17
REMARK                            x       y       z     vdW  Elec       q    Type
REMARK                         _______ _______ _______ _____ _____    ______ ____
ROOT
ATOM      1  C   UNL     1      -0.019   1.526   0.010  0.00  0.00    +0.010 C 
ATOM      2  C   UNL     1       0.002  -0.004   0.002  0.00  0.00    +0.019 C 
ATOM      3  C   UNL     1      -1.434  -0.533   0.012  0.00  0.00    +0.006 C 
ATOM      4  C   UNL     1      -1.413  -2.063   0.024  0.00  0.00    +0.001 C 
ATOM      5  C   UNL     1      -0.690  -2.554   1.280  0.00  0.00    +0.006 C 
ATOM      6  C   UNL     1       0.749  -2.033   1.276  0.00  0.00    +0.019 C 
ATOM      7  C   UNL     1       0.741  -0.509   1.237  0.00  0.00    +0.118 C 
ATOM      8  C   UNL     1       0.111   0.049   2.493  0.00  0.00    +0.248 C 
ATOM      9  O   UNL     1      -1.023  -0.123   2.884  0.00  0.00    -0.273 OA
ATOM     10  N   UNL     1       1.078   0.778   3.087  0.00  0.00    -0.211 N 
ATOM     11  C   UNL     1       2.217   0.755   2.383  0.00  0.00    +0.310 C 
ATOM     12  O   UNL     1       3.230   1.337   2.717  0.00  0.00    -0.252 OA
ATOM     13  N   UNL     1       2.113   0.013   1.264  0.00  0.00    -0.284 N 
ATOM     14  C   UNL     1       1.466  -2.505   2.542  0.00  0.00    +0.010 C 
ATOM     15  H   UNL     1       2.808  -0.145   0.606  0.00  0.00    +0.151 HD
ENDROOT
BRANCH  10  16
ATOM     16  C   UNL     1       0.904   1.505   4.347  0.00  0.00    +0.205 C 
BRANCH  16  17
ATOM     17  N   UNL     1       1.257   0.629   5.472  0.00  0.00    -0.286 NA
ATOM     18  C   UNL     1       0.426   0.918   6.645  0.00  0.00    +0.087 C 
ATOM     19  C   UNL     1      -0.032  -0.446   7.137  0.00  0.00    +0.026 C 
ATOM     20  C   UNL     1       0.749  -0.783   8.427  0.00  0.00    +0.070 C 
ATOM     21  S   UNL     1       2.476  -0.216   8.275  0.00  0.00    -0.159 S 
ATOM     22  C   UNL     1       3.013  -0.587   6.601  0.00  0.00    +0.084 C 
ATOM     23  C   UNL     1       2.642   0.588   5.659  0.00  0.00    +0.096 C 
ENDBRANCH  16  17
ENDBRANCH  10  16
TORSDOF 2
