REMARK  Name = ZINC14742064
REMARK  10 active torsions:
REMARK  status: ('A' for Active; 'I' for Inactive)
REMARK    1  A    between atoms: C_1  and  C_2
REMARK    2  A    between atoms: C_2  and  N_3
REMARK    3  A    between atoms: C_11  and  C_12
REMARK    4  A    between atoms: C_11  and  N_58
REMARK    5  A    between atoms: C_13  and  C_14
REMARK    6  A    between atoms: N_19  and  C_22
REMARK    7  A    between atoms: C_22  and  C_23
REMARK    8  A    between atoms: C_23  and  C_24
REMARK    9  A    between atoms: C_24  and  C_25
REMARK   10  A    between atoms: C_24  and  C_26
REMARK                            x       y       z     vdW  Elec       q    Type
REMARK                         _______ _______ _______ _____ _____    ______ ____
ROOT
ATOM      1  N   UNL     1      -1.136   1.949  -0.000  0.00  0.00    -0.224 N 
ATOM      2  C   UNL     1      -0.866   3.270   0.048  0.00  0.00    +0.247 C 
ATOM      3  O   UNL     1      -1.665   4.182   0.078  0.00  0.00    -0.273 OA
ATOM      4  C   UNL     1       0.641   3.373   0.050  0.00  0.00    +0.112 C 
ATOM      5  C   UNL     1       1.125   4.136  -1.180  0.00  0.00    +0.017 C 
ATOM      6  C   UNL     1       2.652   4.249  -1.137  0.00  0.00    -0.076 C 
ATOM      7  C   UNL     1       2.654   4.169   1.287  0.00  0.00    -0.076 C 
ATOM      8  C   UNL     1       1.128   4.053   1.325  0.00  0.00    +0.017 C 
ATOM      9  N   UNL     1       1.096   1.978   0.004  0.00  0.00    -0.271 N 
ATOM     10  C   UNL     1      -0.015   1.217  -0.020  0.00  0.00    +0.312 C 
ATOM     11  O   UNL     1      -0.001   0.002  -0.060  0.00  0.00    -0.252 OA
ATOM     12  N   UNL     1       3.044   4.960   0.099  0.00  0.00    +0.382 N 
ATOM     13  H   UNL     1       2.562   5.865   0.129  0.00  0.00    -0.081 HD
ENDROOT
BRANCH   1  15
ATOM     14  C   UNL     1      -2.965   1.141   1.409  0.00  0.00    +0.025 C 
ATOM     15  C   UNL     1      -2.488   1.385  -0.025  0.00  0.00    +0.114 C 
ENDBRANCH   1  15
BRANCH  12  16
ATOM     16  C   UNL     1       4.503   5.193   0.106  0.00  0.00    -0.051 C 
BRANCH  16  17
ATOM     17  C   UNL     1       4.841   6.176  -0.985  0.00  0.00    -0.042 C 
ATOM     18  C   UNL     1       5.496   7.296  -0.692  0.00  0.00    +0.040 C 
BRANCH  18  19
ATOM     19  C   UNL     1       5.826   8.255  -1.756  0.00  0.00    +0.127 A 
ATOM     20  C   UNL     1       6.485   9.436  -1.593  0.00  0.00    +0.049 A 
ATOM     21  C   UNL     1       6.584  10.025  -2.868  0.00  0.00    +0.042 A 
ATOM     22  C   UNL     1       5.982   9.190  -3.737  0.00  0.00    +0.195 A 
ATOM     23  O   UNL     1       5.525   8.122  -3.063  0.00  0.00    -0.464 OA
ENDBRANCH  18  19
ENDBRANCH  16  17
ENDBRANCH  12  16
BRANCH   9  24
ATOM     24  C   UNL     1       2.483   1.508  -0.013  0.00  0.00    +0.110 C 
BRANCH  24  25
ATOM     25  C   UNL     1       2.783   0.761   1.288  0.00  0.00    +0.022 C 
BRANCH  25  26
ATOM     26  C   UNL     1       4.265   0.381   1.328  0.00  0.00    -0.016 C 
ATOM     27  C   UNL     1       4.593  -0.255   2.680  0.00  0.00    +0.007 C 
ATOM     28  C   UNL     1       4.565  -0.619   0.209  0.00  0.00    +0.007 C 
ENDBRANCH  25  26
ENDBRANCH  24  25
ENDBRANCH   9  24
TORSDOF 7
