REMARK  Name = ZINC64635461
REMARK  8 active torsions:
REMARK  status: ('A' for Active; 'I' for Inactive)
REMARK    1  A    between atoms: C_1  and  N_2
REMARK    2  A    between atoms: N_2  and  C_3
REMARK    3  A    between atoms: N_2  and  C_9
REMARK    4  A    between atoms: C_3  and  C_4
REMARK    5  A    between atoms: C_4  and  C_5
REMARK    6  A    between atoms: C_9  and  C_10
REMARK    7  A    between atoms: N_12  and  C_13
REMARK    8  A    between atoms: C_16  and  N_20
REMARK                            x       y       z     vdW  Elec       q    Type
REMARK                         _______ _______ _______ _____ _____    ______ ____
ROOT
ATOM      1  C   UNL     1      -0.063  -0.114   2.429  0.00  0.00    +0.201 C 
ATOM      2  O   UNL     1      -1.101   0.506   2.329  0.00  0.00    -0.278 OA
ATOM      3  N   UNL     1       0.406  -0.453   3.646  0.00  0.00    -0.286 N 
ATOM      4  H   UNL     1       1.200  -1.004   3.724  0.00  0.00    +0.155 HD
ENDROOT
BRANCH   3   5
ATOM      5  C   UNL     1      -0.254  -0.010   4.798  0.00  0.00    +0.048 A 
ATOM      6  C   UNL     1      -1.637   0.116   4.803  0.00  0.00    +0.026 A 
ATOM      7  C   UNL     1      -2.285   0.553   5.942  0.00  0.00    +0.034 A 
ATOM      8  C   UNL     1      -1.559   0.867   7.076  0.00  0.00    +0.127 A 
ATOM      9  C   UNL     1      -0.182   0.743   7.075  0.00  0.00    +0.049 A 
ATOM     10  C   UNL     1       0.473   0.300   5.941  0.00  0.00    +0.041 A 
ATOM     11 BR   UNL     1       2.355   0.123   5.943  0.00  0.00    -0.048 Br
BRANCH   8  12
ATOM     12  N   UNL     1      -2.257   1.337   8.294  0.00  0.00    +0.056 N 
ATOM     13  O   UNL     1      -3.461   1.446   8.296  0.00  0.00    -0.126 OA
ATOM     14  O   UNL     1      -1.623   1.611   9.286  0.00  0.00    -0.126 OA
ENDBRANCH   8  12
ENDBRANCH   3   5
BRANCH   1  15
ATOM     15  C   UNL     1       0.703  -0.505   1.191  0.00  0.00    +0.018 C 
BRANCH  15  17
ATOM     16  C   UNL     1      -0.025   1.446   0.001  0.00  0.00    -0.096 C 
ATOM     17  N   UNL     1      -0.010  -0.022   0.001  0.00  0.00    +0.384 N 
ATOM     18  H   UNL     1      -0.958  -0.368   0.014  0.00  0.00    -0.082 HD
BRANCH  17  19
ATOM     19  C   UNL     1       0.671  -0.505  -1.208  0.00  0.00    -0.070 C 
BRANCH  19  20
ATOM     20  C   UNL     1      -0.140  -0.109  -2.443  0.00  0.00    +0.095 C 
BRANCH  20  21
ATOM     21  C   UNL     1       0.569  -0.612  -3.702  0.00  0.00    +0.388 C 
ATOM     22  F   UNL     1       0.684  -2.005  -3.647  0.00  0.00    -0.171 F 
ATOM     23  F   UNL     1      -0.172  -0.249  -4.831  0.00  0.00    -0.171 F 
ATOM     24  F   UNL     1       1.845  -0.041  -3.778  0.00  0.00    -0.171 F 
ENDBRANCH  20  21
ENDBRANCH  19  20
ENDBRANCH  17  19
ENDBRANCH  15  17
ENDBRANCH   1  15
TORSDOF 7
