REMARK  Name = ZINC16809483
REMARK  4 active torsions:
REMARK  status: ('A' for Active; 'I' for Inactive)
REMARK    1  A    between atoms: C_1  and  C_2
REMARK    2  A    between atoms: C_3  and  C_25
REMARK    3  A    between atoms: C_16  and  C_20
REMARK    4  A    between atoms: C_17  and  C_19
REMARK                            x       y       z     vdW  Elec       q    Type
REMARK                         _______ _______ _______ _____ _____    ______ ____
ROOT
ATOM      1  C   UNL     1       2.185   5.211   0.009  0.00  0.00    +0.066 C 
ATOM      2  C   UNL     1       2.258   3.706   0.000  0.00  0.00    +0.050 A 
ATOM      3  C   UNL     1       3.472   3.083  -0.015  0.00  0.00    +0.041 A 
ATOM      4  C   UNL     1       3.514   1.677  -0.022  0.00  0.00    +0.256 A 
ATOM      5  O   UNL     1       4.582   1.087  -0.035  0.00  0.00    -0.267 OA
ATOM      6  N   UNL     1       2.350   0.993  -0.015  0.00  0.00    -0.295 N 
ATOM      7  H   UNL     1       2.355   0.023  -0.021  0.00  0.00    +0.172 HD
ATOM      8  C   UNL     1       1.170   1.669  -0.000  0.00  0.00    +0.202 A 
ATOM      9  N   UNL     1       1.138   2.986   0.002  0.00  0.00    -0.221 NA
ATOM     10  N   UNL     1      -0.011   0.966   0.007  0.00  0.00    -0.255 N 
ATOM     11  C   UNL     1      -1.211   1.637   0.017  0.00  0.00    +0.202 A 
ATOM     12  N   UNL     1      -2.372   0.929   0.018  0.00  0.00    -0.295 N 
ATOM     13  H   UNL     1      -2.351  -0.041   0.013  0.00  0.00    +0.172 HD
ATOM     14  C   UNL     1      -3.554   1.581   0.028  0.00  0.00    +0.256 A 
ATOM     15  O   UNL     1      -4.606   0.962   0.029  0.00  0.00    -0.267 OA
ATOM     16  C   UNL     1      -3.550   2.987   0.035  0.00  0.00    +0.041 A 
ATOM     17  C   UNL     1      -2.354   3.643   0.033  0.00  0.00    +0.050 A 
ATOM     18  N   UNL     1      -1.215   2.954   0.029  0.00  0.00    -0.221 NA
ATOM     19  C   UNL     1      -2.322   5.150   0.041  0.00  0.00    +0.066 C 
ATOM     20  H   UNL     1       0.002  -0.004   0.002  0.00  0.00    +0.158 HD
ENDROOT
BRANCH  16  21
ATOM     21  C   UNL     1      -4.846   3.757   0.045  0.00  0.00    +0.026 C 
ATOM     22  C   UNL     1      -5.697   3.345   1.264  0.00  0.00    +0.008 C 
ATOM     23  C   UNL     1      -7.152   3.359   0.735  0.00  0.00    +0.001 C 
ATOM     24  C   UNL     1      -6.998   2.802  -0.702  0.00  0.00    +0.001 C 
ATOM     25  C   UNL     1      -5.674   3.412  -1.205  0.00  0.00    +0.008 C 
ENDBRANCH  16  21
BRANCH   3  26
ATOM     26  C   UNL     1       4.746   3.888  -0.022  0.00  0.00    +0.026 C 
ATOM     27  C   UNL     1       5.601   3.512  -1.250  0.00  0.00    +0.008 C 
ATOM     28  C   UNL     1       7.059   3.560  -0.727  0.00  0.00    +0.001 C 
ATOM     29  C   UNL     1       6.927   2.983   0.705  0.00  0.00    +0.001 C 
ATOM     30  C   UNL     1       5.589   3.551   1.221  0.00  0.00    +0.008 C 
ENDBRANCH   3  26
TORSDOF 2
