REMARK  Name = ZINC14476211
REMARK  8 active torsions:
REMARK  status: ('A' for Active; 'I' for Inactive)
REMARK    1  A    between atoms: C_1  and  C_2
REMARK    2  A    between atoms: C_2  and  N_3
REMARK    3  A    between atoms: N_3  and  C_4
REMARK    4  A    between atoms: C_4  and  C_5
REMARK    5  A    between atoms: C_6  and  C_8
REMARK    6  A    between atoms: C_21  and  C_24
REMARK    7  A    between atoms: C_26  and  N_31
REMARK    8  A    between atoms: C_29  and  O_30
REMARK                            x       y       z     vdW  Elec       q    Type
REMARK                         _______ _______ _______ _____ _____    ______ ____
ROOT
ATOM      1  C   UNL     1       0.349   0.426   0.457  0.00  0.00    +0.037 A 
ATOM      2  C   UNL     1       0.194   1.813   0.377  0.00  0.00    +0.015 A 
ATOM      3  C   UNL     1       1.243   2.642   0.699  0.00  0.00    +0.024 A 
ATOM      4  C   UNL     1       2.465   2.111   1.106  0.00  0.00    +0.031 A 
ATOM      5  C   UNL     1       2.615   0.719   1.197  0.00  0.00    -0.019 A 
ATOM      6  C   UNL     1       1.571  -0.111   0.871  0.00  0.00    +0.019 A 
ATOM      7  C   UNL     1       3.918   0.203   1.673  0.00  0.00    +0.049 C 
ATOM      8  C   UNL     1       4.437  -1.152   1.316  0.00  0.00    -0.023 C 
ATOM      9  C   UNL     1       5.762  -1.105   1.238  0.00  0.00    -0.030 C 
ATOM     10  C   UNL     1       6.253   0.314   1.532  0.00  0.00    +0.033 C 
ATOM     11  C   UNL     1       5.031   1.152   1.135  0.00  0.00    +0.029 C 
ATOM     12  C   UNL     1       4.826   2.469   1.862  0.00  0.00    +0.108 C 
ATOM     13  N   UNL     1       3.515   2.978   1.405  0.00  0.00    -0.336 N 
ATOM     14  H   UNL     1       3.354   4.060   1.294  0.00  0.00    +0.147 HD
ENDROOT
BRANCH  12  15
ATOM     15  C   UNL     1       4.806   2.242   3.352  0.00  0.00    +0.017 A 
ATOM     16  C   UNL     1       3.607   2.008   3.999  0.00  0.00    +0.041 A 
ATOM     17  C   UNL     1       3.588   1.794   5.365  0.00  0.00    +0.127 A 
ATOM     18  C   UNL     1       4.767   1.826   6.089  0.00  0.00    +0.036 A 
ATOM     19  C   UNL     1       5.966   2.066   5.447  0.00  0.00    +0.048 A 
ATOM     20  C   UNL     1       5.989   2.275   4.076  0.00  0.00    +0.122 A 
BRANCH  17  21
ATOM     21  N   UNL     1       2.305   1.537   6.055  0.00  0.00    +0.056 N 
ATOM     22  O   UNL     1       2.286   1.353   7.259  0.00  0.00    -0.126 OA
ATOM     23  O   UNL     1       1.266   1.508   5.418  0.00  0.00    -0.126 OA
ENDBRANCH  17  21
BRANCH  20  24
ATOM     24  O   UNL     1       7.168   2.510   3.442  0.00  0.00    -0.506 OA
ATOM     25  H   UNL     1       8.105   2.536   4.017  0.00  0.00    +0.292 HD
ENDBRANCH  20  24
ENDBRANCH  12  15
BRANCH   1  27
ATOM     26  N   UNL     1      -2.010  -0.209   0.572  0.00  0.00    -0.298 N 
ATOM     27  C   UNL     1      -0.772  -0.466   0.105  0.00  0.00    +0.247 C 
ATOM     28  O   UNL     1      -0.579  -1.434  -0.605  0.00  0.00    -0.270 OA
BRANCH  26  30
ATOM     29  C   UNL     1      -3.153  -2.174   1.475  0.00  0.00    +0.024 C 
ATOM     30  C   UNL     1      -3.096  -1.161   0.330  0.00  0.00    +0.104 C 
ENDBRANCH  26  30
BRANCH  26  31
ATOM     31  C   UNL     1      -2.269   1.022   1.322  0.00  0.00    +0.104 C 
ATOM     32  C   UNL     1      -2.859   2.076   0.384  0.00  0.00    +0.024 C 
ENDBRANCH  26  31
ENDBRANCH   1  27
TORSDOF 6
