REMARK  Name = ZINC01814248
REMARK  8 active torsions:
REMARK  status: ('A' for Active; 'I' for Inactive)
REMARK    1  A    between atoms: C_1  and  C_2
REMARK    2  A    between atoms: C_7  and  N_25
REMARK    3  A    between atoms: C_8  and  C_13
REMARK    4  A    between atoms: N_17  and  C_21
REMARK    5  A    between atoms: C_21  and  C_22
REMARK    6  A    between atoms: C_22  and  O_23
REMARK    7  A    between atoms: O_23  and  C_24
REMARK    8  A    between atoms: C_28  and  C_31
REMARK                            x       y       z     vdW  Elec       q    Type
REMARK                         _______ _______ _______ _____ _____    ______ ____
ROOT
ATOM      1  C   UNL     1       2.887   7.715   0.305  0.00  0.00    +0.045 C 
ATOM      2  C   UNL     1       3.034   6.217   0.373  0.00  0.00    -0.034 A 
ATOM      3  C   UNL     1       4.276   5.649   0.687  0.00  0.00    +0.008 A 
ATOM      4  C   UNL     1       4.400   4.293   0.746  0.00  0.00    +0.047 A 
ATOM      5  C   UNL     1       3.279   3.482   0.491  0.00  0.00    +0.142 A 
ATOM      6  N   UNL     1       3.410   2.157   0.551  0.00  0.00    -0.214 NA
ATOM      7  C   UNL     1       2.387   1.346   0.325  0.00  0.00    +0.136 A 
ATOM      8  C   UNL     1       1.122   1.893   0.002  0.00  0.00    +0.081 A 
ATOM      9  C   UNL     1       0.995   3.301  -0.058  0.00  0.00    +0.267 A 
ATOM     10  O   UNL     1      -0.077   3.815  -0.329  0.00  0.00    -0.267 OA
ATOM     11  N   UNL     1       2.080   4.066   0.189  0.00  0.00    -0.267 N 
ATOM     12  C   UNL     1       1.967   5.423   0.133  0.00  0.00    +0.099 A 
ENDROOT
BRANCH   8  13
ATOM     13  C   UNL     1       0.013   1.053  -0.249  0.00  0.00    +0.037 C 
ATOM     14  C   UNL     1      -1.045   1.043   0.614  0.00  0.00    +0.077 C 
ATOM     15  C   UNL     1      -1.269   1.827   1.781  0.00  0.00    +0.258 C 
ATOM     16  O   UNL     1      -0.454   2.657   2.144  0.00  0.00    -0.269 OA
ATOM     17  N   UNL     1      -2.386   1.630   2.459  0.00  0.00    -0.253 N 
ATOM     18  C   UNL     1      -3.290   0.709   2.056  0.00  0.00    +0.121 C 
ATOM     19  S   UNL     1      -4.788   0.290   2.772  0.00  0.00    -0.027 S 
ATOM     20  S   UNL     1      -2.529   0.046   0.583  0.00  0.00    -0.061 S 
BRANCH  17  21
ATOM     21  C   UNL     1      -2.648   2.420   3.665  0.00  0.00    +0.143 C 
BRANCH  21  22
ATOM     22  C   UNL     1      -3.401   3.696   3.285  0.00  0.00    +0.179 C 
BRANCH  22  23
ATOM     23  O   UNL     1      -4.690   3.353   2.770  0.00  0.00    -0.381 OA
ATOM     24  C   UNL     1      -5.480   4.479   2.383  0.00  0.00    +0.194 C 
ENDBRANCH  22  23
ENDBRANCH  21  22
ENDBRANCH  17  21
ENDBRANCH   8  13
BRANCH   7  25
ATOM     25  N   UNL     1       2.554  -0.019   0.401  0.00  0.00    -0.315 N 
ATOM     26  C   UNL     1       3.836  -0.426  -0.188  0.00  0.00    +0.107 C 
ATOM     27  C   UNL     1       3.923  -1.954  -0.219  0.00  0.00    +0.022 C 
ATOM     28  C   UNL     1       3.800  -2.496   1.208  0.00  0.00    -0.011 C 
ATOM     29  C   UNL     1       2.478  -2.018   1.815  0.00  0.00    +0.022 C 
ATOM     30  C   UNL     1       2.433  -0.488   1.787  0.00  0.00    +0.107 C 
ATOM     31  C   UNL     1       3.825  -4.025   1.177  0.00  0.00    +0.007 C 
ENDBRANCH   7  25
TORSDOF 5
