REMARK  Name = ZINC39531357
REMARK  10 active torsions:
REMARK  status: ('A' for Active; 'I' for Inactive)
REMARK    1  A    between atoms: C_1  and  C_2
REMARK    2  A    between atoms: C_2  and  N_3
REMARK    3  A    between atoms: N_6  and  C_9
REMARK    4  A    between atoms: C_9  and  C_18
REMARK    5  A    between atoms: N_20  and  C_21
REMARK    6  A    between atoms: N_20  and  C_22
REMARK    7  A    between atoms: C_22  and  C_23
REMARK    8  A    between atoms: C_23  and  C_24
REMARK    9  A    between atoms: C_25  and  C_31
REMARK   10  A    between atoms: C_28  and  C_30
REMARK                            x       y       z     vdW  Elec       q    Type
REMARK                         _______ _______ _______ _____ _____    ______ ____
ROOT
ATOM      1  C   UNL     1      -4.851  -2.620  -1.117  0.00  0.00    +0.107 C 
ATOM      2  C   UNL     1      -5.648  -2.559  -2.437  0.00  0.00    +0.067 C 
ATOM      3  C   UNL     1      -5.223  -3.786  -3.215  0.00  0.00    -0.042 A 
ATOM      4  C   UNL     1      -5.357  -4.088  -4.560  0.00  0.00    +0.004 A 
ATOM      5  C   UNL     1      -4.885  -5.288  -5.053  0.00  0.00    +0.000 A 
ATOM      6  C   UNL     1      -4.278  -6.193  -4.203  0.00  0.00    +0.000 A 
ATOM      7  C   UNL     1      -4.143  -5.894  -2.861  0.00  0.00    +0.004 A 
ATOM      8  C   UNL     1      -4.615  -4.691  -2.364  0.00  0.00    -0.042 A 
ATOM      9  C   UNL     1      -4.591  -4.134  -0.957  0.00  0.00    +0.067 C 
ENDROOT
BRANCH   1  13
ATOM     10  N   UNL     1      -1.688  -0.240  -2.600  0.00  0.00    +0.381 N 
ATOM     11  C   UNL     1      -1.432  -1.670  -2.382  0.00  0.00    -0.063 C 
ATOM     12  C   UNL     1      -2.763  -2.424  -2.329  0.00  0.00    +0.067 C 
ATOM     13  N   UNL     1      -3.585  -1.884  -1.238  0.00  0.00    -0.292 NA
ATOM     14  C   UNL     1      -3.829  -0.447  -1.429  0.00  0.00    +0.067 C 
ATOM     15  C   UNL     1      -2.489   0.291  -1.490  0.00  0.00    -0.063 C 
ATOM     16  H   UNL     1      -2.190  -0.117  -3.466  0.00  0.00    -0.082 HD
BRANCH  10  18
ATOM     17  C   UNL     1       0.373   0.015  -3.899  0.00  0.00    -0.017 C 
ATOM     18  C   UNL     1      -0.409   0.480  -2.669  0.00  0.00    -0.082 C 
ENDBRANCH  10  18
ENDBRANCH   1  13
BRANCH   1  19
ATOM     19  C   UNL     1      -5.668  -2.092   0.033  0.00  0.00    +0.236 C 
ATOM     20  O   UNL     1      -6.868  -1.958  -0.087  0.00  0.00    -0.274 OA
ATOM     21  N   UNL     1      -5.067  -1.770   1.195  0.00  0.00    -0.303 N 
ATOM     22  C   UNL     1      -3.608  -1.838   1.308  0.00  0.00    +0.132 C 
BRANCH  21  23
ATOM     23  C   UNL     1      -5.872  -1.351   2.345  0.00  0.00    +0.112 C 
BRANCH  23  24
ATOM     24  C   UNL     1      -6.250  -2.578   3.177  0.00  0.00    +0.053 C 
BRANCH  24  25
ATOM     25  C   UNL     1      -7.079  -2.147   4.360  0.00  0.00    -0.020 C 
ATOM     26  C   UNL     1      -8.409  -2.121   4.466  0.00  0.00    +0.061 C 
ATOM     27  N   UNL     1      -8.785  -1.672   5.684  0.00  0.00    -0.159 NA
ATOM     28  N   UNL     1      -7.849  -1.384   6.435  0.00  0.00    -0.180 NA
ATOM     29  C   UNL     1      -6.594  -1.647   5.709  0.00  0.00    +0.153 C 
ATOM     30  C   UNL     1      -5.771  -2.723   6.420  0.00  0.00    +0.039 C 
ATOM     31  C   UNL     1      -9.363  -2.536   3.376  0.00  0.00    +0.067 C 
ENDBRANCH  24  25
ENDBRANCH  23  24
ENDBRANCH  21  23
ENDBRANCH   1  19
TORSDOF 6
