REMARK  Name = ZINC36635474
REMARK  8 active torsions:
REMARK  status: ('A' for Active; 'I' for Inactive)
REMARK    1  A    between atoms: C_1  and  C_2
REMARK    2  A    between atoms: C_5  and  C_26
REMARK    3  A    between atoms: C_6  and  N_8
REMARK    4  A    between atoms: C_12  and  N_16
REMARK    5  A    between atoms: N_16  and  C_17
REMARK    6  A    between atoms: C_18  and  C_25
REMARK    7  A    between atoms: C_20  and  C_24
REMARK    8  A    between atoms: C_22  and  C_23
REMARK                            x       y       z     vdW  Elec       q    Type
REMARK                         _______ _______ _______ _____ _____    ______ ____
ROOT
ATOM      1  N   UNL     1       1.893  -4.868   3.495  0.00  0.00    -0.209 N 
ATOM      2  C   UNL     1       1.949  -5.777   4.476  0.00  0.00    +0.228 C 
ATOM      3  O   UNL     1       2.911  -6.468   4.739  0.00  0.00    -0.275 OA
ATOM      4  C   UNL     1       0.624  -5.806   5.205  0.00  0.00    +0.128 C 
ATOM      5  C   UNL     1      -0.218  -4.745   4.468  0.00  0.00    +0.166 C 
ATOM      6  C   UNL     1       0.723  -4.224   3.403  0.00  0.00    +0.247 C 
ATOM      7  O   UNL     1       0.458  -3.362   2.593  0.00  0.00    -0.273 OA
ENDROOT
BRANCH   1  13
ATOM      8  C   UNL     1       5.987  -2.335   2.491  0.00  0.00    +0.044 C 
ATOM      9  C   UNL     1       4.970  -3.386   2.128  0.00  0.00    -0.049 A 
ATOM     10  C   UNL     1       5.100  -4.095   0.948  0.00  0.00    +0.004 A 
ATOM     11  C   UNL     1       4.169  -5.059   0.611  0.00  0.00    +0.005 A 
ATOM     12  C   UNL     1       3.105  -5.318   1.453  0.00  0.00    -0.029 A 
ATOM     13  C   UNL     1       2.971  -4.608   2.638  0.00  0.00    +0.047 A 
ATOM     14  C   UNL     1       3.912  -3.644   2.977  0.00  0.00    +0.027 A 
ATOM     15  C   UNL     1       2.089  -6.369   1.084  0.00  0.00    +0.045 C 
ENDBRANCH   1  13
BRANCH   5  16
ATOM     16  N   UNL     1      -1.405  -5.356   3.864  0.00  0.00    -0.332 N 
ATOM     17  H   UNL     1      -1.418  -5.554   2.915  0.00  0.00    +0.147 HD
BRANCH  16  18
ATOM     18  C   UNL     1      -2.516  -5.654   4.656  0.00  0.00    +0.034 A 
ATOM     19  C   UNL     1      -3.345  -4.633   5.103  0.00  0.00    -0.029 A 
ATOM     20  C   UNL     1      -4.444  -4.930   5.886  0.00  0.00    +0.008 A 
ATOM     21  C   UNL     1      -4.718  -6.243   6.224  0.00  0.00    -0.050 A 
ATOM     22  C   UNL     1      -3.895  -7.261   5.780  0.00  0.00    +0.008 A 
ATOM     23  C   UNL     1      -2.798  -6.971   4.993  0.00  0.00    -0.029 A 
ATOM     24  C   UNL     1      -1.905  -8.083   4.505  0.00  0.00    +0.045 C 
ATOM     25  C   UNL     1      -5.917  -6.563   7.079  0.00  0.00    +0.044 C 
ATOM     26  C   UNL     1      -3.046  -3.202   4.736  0.00  0.00    +0.045 C 
ENDBRANCH  16  18
ENDBRANCH   5  16
TORSDOF 3
