REMARK  Name = ZINC41587843
REMARK  5 active torsions:
REMARK  status: ('A' for Active; 'I' for Inactive)
REMARK    1  A    between atoms: C_1  and  C_2
REMARK    2  A    between atoms: C_6  and  C_8
REMARK    3  A    between atoms: C_16  and  C_19
REMARK    4  A    between atoms: N_22  and  C_24
REMARK    5  A    between atoms: C_24  and  C_25
REMARK                            x       y       z     vdW  Elec       q    Type
REMARK                         _______ _______ _______ _____ _____    ______ ____
ROOT
ATOM      1  C   UNL     1       0.052  -2.845   2.448  0.00  0.00    +0.058 C 
ATOM      2  C   UNL     1      -0.032  -4.199   2.437  0.00  0.00    +0.176 C 
ATOM      3  C   UNL     1      -0.137  -5.073   3.616  0.00  0.00    +0.231 C 
ATOM      4  O   UNL     1      -0.167  -4.744   4.789  0.00  0.00    -0.283 OA
ATOM      5  C   UNL     1      -0.200  -6.437   3.060  0.00  0.00    +0.068 A 
ATOM      6  C   UNL     1      -0.304  -7.701   3.639  0.00  0.00    +0.024 A 
ATOM      7  C   UNL     1      -0.342  -8.817   2.848  0.00  0.00    +0.010 A 
ATOM      8  C   UNL     1      -0.279  -8.693   1.464  0.00  0.00    +0.133 A 
ATOM      9  C   UNL     1      -0.173  -7.440   0.875  0.00  0.00    +0.034 A 
ATOM     10  C   UNL     1      -0.133  -6.299   1.664  0.00  0.00    +0.146 A 
ATOM     11  O   UNL     1      -0.039  -4.990   1.339  0.00  0.00    -0.451 OA
ATOM     12  C   UNL     1      -0.102  -7.319  -0.625  0.00  0.00    +0.051 C 
ATOM     13  O   UNL     1      -0.324  -9.793   0.667  0.00  0.00    -0.476 OA
ATOM     14  C   UNL     1      -0.069 -11.056   1.285  0.00  0.00    +0.319 C 
ATOM     15  N   UNL     1      -0.892 -11.161   2.500  0.00  0.00    -0.259 NA
ATOM     16  C   UNL     1      -0.452 -10.174   3.496  0.00  0.00    +0.127 C 
ENDROOT
BRANCH   1  22
ATOM     17  C   UNL     1      -0.076   1.502   0.012  0.00  0.00    +0.044 C 
ATOM     18  C   UNL     1      -0.030  -0.004   0.003  0.00  0.00    -0.050 A 
ATOM     19  C   UNL     1      -0.008  -0.687  -1.201  0.00  0.00    +0.003 A 
ATOM     20  C   UNL     1       0.035  -2.070  -1.220  0.00  0.00    +0.001 A 
ATOM     21  C   UNL     1       0.054  -2.780  -0.038  0.00  0.00    +0.008 A 
ATOM     22  C   UNL     1       0.032  -2.097   1.183  0.00  0.00    -0.021 A 
ATOM     23  C   UNL     1      -0.005  -0.698   1.194  0.00  0.00    +0.011 A 
ENDBRANCH   1  22
BRANCH  15  24
ATOM     24  C   UNL     1      -0.847 -12.521   3.052  0.00  0.00    +0.162 C 
BRANCH  24  25
ATOM     25  C   UNL     1      -1.506 -13.476   2.089  0.00  0.00    +0.119 A 
ATOM     26  C   UNL     1      -0.889 -14.145   1.099  0.00  0.00    +0.046 A 
ATOM     27  C   UNL     1      -1.878 -14.920   0.450  0.00  0.00    +0.041 A 
ATOM     28  C   UNL     1      -3.040 -14.678   1.083  0.00  0.00    +0.195 A 
ATOM     29  O   UNL     1      -2.807 -13.807   2.079  0.00  0.00    -0.467 OA
ENDBRANCH  24  25
ENDBRANCH  15  24
TORSDOF 3
