REMARK  Name = ZINC64792778
REMARK  7 active torsions:
REMARK  status: ('A' for Active; 'I' for Inactive)
REMARK    1  A    between atoms: C_1  and  C_2
REMARK    2  A    between atoms: C_5  and  C_8
REMARK    3  A    between atoms: C_10  and  C_29
REMARK    4  A    between atoms: N_17  and  C_18
REMARK    5  A    between atoms: C_18  and  C_19
REMARK    6  A    between atoms: N_21  and  C_22
REMARK    7  A    between atoms: C_27  and  C_28
REMARK                            x       y       z     vdW  Elec       q    Type
REMARK                         _______ _______ _______ _____ _____    ______ ____
ROOT
ATOM      1  C   UNL     1       0.123  -4.056  -0.069  0.00  0.00    +0.043 C 
ATOM      2  C   UNL     1       0.034  -4.639  -1.256  0.00  0.00    +0.028 C 
ATOM      3  C   UNL     1       0.001  -6.132  -1.445  0.00  0.00    +0.167 C 
ATOM      4  N   UNL     1      -0.205  -6.785  -0.158  0.00  0.00    -0.202 N 
ATOM      5  C   UNL     1      -0.108  -6.148   1.038  0.00  0.00    +0.243 A 
ATOM      6  N   UNL     1      -0.343  -7.030   1.967  0.00  0.00    -0.092 NA
ATOM      7  N   UNL     1      -0.585  -8.181   1.439  0.00  0.00    -0.021 NA
ATOM      8  N   UNL     1      -0.520  -8.108   0.149  0.00  0.00    -0.042 NA
ATOM      9  N   UNL     1       0.192  -4.796   1.120  0.00  0.00    -0.259 N 
ENDROOT
BRANCH   1  14
ATOM     10  C   UNL     1       0.252   1.692   0.213  0.00  0.00    +0.044 C 
ATOM     11  C   UNL     1       0.218   0.187   0.139  0.00  0.00    -0.050 A 
ATOM     12  C   UNL     1      -0.690  -0.520   0.907  0.00  0.00    +0.004 A 
ATOM     13  C   UNL     1      -0.726  -1.898   0.844  0.00  0.00    +0.010 A 
ATOM     14  C   UNL     1       0.156  -2.577   0.003  0.00  0.00    -0.004 A 
ATOM     15  C   UNL     1       1.069  -1.859  -0.768  0.00  0.00    +0.010 A 
ATOM     16  C   UNL     1       1.091  -0.481  -0.700  0.00  0.00    +0.004 A 
ENDBRANCH   1  14
BRANCH   3  17
ATOM     17  C   UNL     1       1.308  -6.592  -2.037  0.00  0.00    -0.019 A 
ATOM     18  C   UNL     1       2.491  -6.372  -1.356  0.00  0.00    +0.006 A 
ATOM     19  C   UNL     1       3.690  -6.794  -1.899  0.00  0.00    +0.000 A 
ATOM     20  C   UNL     1       3.707  -7.436  -3.123  0.00  0.00    +0.000 A 
ATOM     21  C   UNL     1       2.524  -7.657  -3.804  0.00  0.00    +0.000 A 
ATOM     22  C   UNL     1       1.324  -7.239  -3.259  0.00  0.00    +0.006 A 
ENDBRANCH   3  17
BRANCH   9  23
ATOM     23  C   UNL     1       0.559  -4.168   2.391  0.00  0.00    +0.209 C 
BRANCH  23  24
ATOM     24  C   UNL     1      -0.690  -3.807   3.153  0.00  0.00    +0.235 C 
ATOM     25  O   UNL     1      -1.777  -4.130   2.723  0.00  0.00    -0.274 OA
ATOM     26  N   UNL     1      -0.599  -3.126   4.313  0.00  0.00    -0.284 N 
ATOM     27  H   UNL     1       0.271  -2.939   4.698  0.00  0.00    +0.155 HD
BRANCH  26  28
ATOM     28  C   UNL     1      -1.760  -2.689   4.960  0.00  0.00    +0.036 A 
ATOM     29  C   UNL     1      -2.942  -2.543   4.246  0.00  0.00    +0.023 A 
ATOM     30  C   UNL     1      -4.087  -2.111   4.888  0.00  0.00    +0.002 A 
ATOM     31  C   UNL     1      -4.056  -1.825   6.240  0.00  0.00    +0.000 A 
ATOM     32  C   UNL     1      -2.881  -1.970   6.954  0.00  0.00    +0.005 A 
ATOM     33  C   UNL     1      -1.735  -2.407   6.319  0.00  0.00    -0.029 A 
ATOM     34  C   UNL     1      -0.456  -2.571   7.100  0.00  0.00    +0.045 C 
ENDBRANCH  26  28
ENDBRANCH  23  24
ENDBRANCH   9  23
TORSDOF 5
