REMARK  Name = ZINC44137745
REMARK  6 active torsions:
REMARK  status: ('A' for Active; 'I' for Inactive)
REMARK    1  A    between atoms: C_1  and  C_2
REMARK    2  A    between atoms: C_2  and  C_3
REMARK    3  A    between atoms: C_2  and  C_4
REMARK    4  A    between atoms: C_2  and  O_5
REMARK    5  A    between atoms: O_5  and  C_6
REMARK    6  A    between atoms: C_11  and  C_14
REMARK                            x       y       z     vdW  Elec       q    Type
REMARK                         _______ _______ _______ _____ _____    ______ ____
ROOT
ATOM      1  C   UNL     1       1.952  -0.085  -1.337  0.00  0.00    +0.403 C 
ATOM      2  O   UNL     1       2.488   0.619  -0.503  0.00  0.00    -0.226 OA
ATOM      3  N   UNL     1       2.641  -0.485  -2.424  0.00  0.00    -0.267 N 
ATOM      4  C   UNL     1       2.005  -1.331  -3.443  0.00  0.00    +0.111 C 
ATOM      5  C   UNL     1       2.172  -0.664  -4.812  0.00  0.00    +0.027 C 
ATOM      6  C   UNL     1       3.656  -0.387  -5.062  0.00  0.00    +0.022 C 
ATOM      7  C   UNL     1       4.186   0.570  -3.991  0.00  0.00    +0.027 C 
ATOM      8  C   UNL     1       4.040  -0.078  -2.616  0.00  0.00    +0.111 C 
ENDROOT
BRANCH   6   9
ATOM      9  C   UNL     1       3.828   0.239  -6.423  0.00  0.00    -0.043 A 
ATOM     10  C   UNL     1       3.209   1.449  -6.707  0.00  0.00    +0.006 A 
ATOM     11  C   UNL     1       3.352   2.037  -7.944  0.00  0.00    +0.026 A 
ATOM     12  C   UNL     1       4.125   1.415  -8.920  0.00  0.00    +0.046 A 
ATOM     13  C   UNL     1       4.750   0.190  -8.626  0.00  0.00    -0.000 A 
ATOM     14  C   UNL     1       4.596  -0.387  -7.364  0.00  0.00    +0.014 A 
ATOM     15  C   UNL     1       5.476  -0.196  -9.839  0.00  0.00    +0.027 A 
ATOM     16  C   UNL     1       5.259   0.767 -10.749  0.00  0.00    +0.083 A 
ATOM     17  N   UNL     1       4.454   1.738 -10.217  0.00  0.00    -0.361 N 
ATOM     18  H   UNL     1       4.160   2.535 -10.685  0.00  0.00    +0.165 HD
ENDBRANCH   6   9
BRANCH   1  19
ATOM     19  O   UNL     1       0.671  -0.465  -1.174  0.00  0.00    -0.445 OA
BRANCH  19  21
ATOM     20  C   UNL     1      -0.019   1.526   0.010  0.00  0.00    +0.055 C 
ATOM     21  C   UNL     1       0.002  -0.004   0.002  0.00  0.00    +0.107 C 
ATOM     22  C   UNL     1       0.742  -0.511   1.242  0.00  0.00    +0.055 C 
ATOM     23  C   UNL     1      -1.433  -0.534   0.013  0.00  0.00    +0.055 C 
ENDBRANCH  19  21
ENDBRANCH   1  19
TORSDOF 3
