REMARK  Name = ZINC59293596
REMARK  8 active torsions:
REMARK  status: ('A' for Active; 'I' for Inactive)
REMARK    1  A    between atoms: C_1  and  O_2
REMARK    2  A    between atoms: O_2  and  C_3
REMARK    3  A    between atoms: C_6  and  C_9
REMARK    4  A    between atoms: C_11  and  C_30
REMARK    5  A    between atoms: C_23  and  N_29
REMARK    6  A    between atoms: C_24  and  C_25
REMARK    7  A    between atoms: C_25  and  O_27
REMARK    8  A    between atoms: O_27  and  C_28
REMARK                            x       y       z     vdW  Elec       q    Type
REMARK                         _______ _______ _______ _____ _____    ______ ____
ROOT
ATOM      1  C   UNL     1       2.381  -2.577  -4.633  0.00  0.00    +0.102 C 
ATOM      2  C   UNL     1       1.389  -3.614  -5.098  0.00  0.00    +0.070 C 
ATOM      3  C   UNL     1       1.386  -4.847  -4.529  0.00  0.00    +0.095 C 
ATOM      4  N   UNL     1       2.331  -5.193  -3.579  0.00  0.00    -0.216 N 
ATOM      5  C   UNL     1       2.124  -6.167  -2.688  0.00  0.00    +0.258 C 
ATOM      6  O   UNL     1       3.061  -6.494  -1.985  0.00  0.00    -0.269 OA
ATOM      7  C   UNL     1       0.854  -6.869  -2.492  0.00  0.00    +0.051 A 
ATOM      8  C   UNL     1       0.602  -7.540  -1.288  0.00  0.00    +0.014 A 
ATOM      9  C   UNL     1      -0.596  -8.189  -1.100  0.00  0.00    +0.001 A 
ATOM     10  C   UNL     1      -1.565  -8.190  -2.091  0.00  0.00    +0.001 A 
ATOM     11  C   UNL     1      -1.336  -7.540  -3.288  0.00  0.00    +0.016 A 
ATOM     12  C   UNL     1      -0.133  -6.885  -3.494  0.00  0.00    +0.026 A 
ATOM     13  S   UNL     1       0.199  -6.061  -5.020  0.00  0.00    -0.072 S 
ATOM     14  C   UNL     1       3.542  -4.519  -3.588  0.00  0.00    +0.106 C 
ATOM     15  C   UNL     1       3.615  -3.259  -4.102  0.00  0.00    +0.085 C 
ENDROOT
BRANCH   1  19
ATOM     16  C   UNL     1       0.622  -0.211  -1.540  0.00  0.00    +0.120 A 
ATOM     17  C   UNL     1       1.052   0.389  -2.715  0.00  0.00    +0.046 A 
ATOM     18  C   UNL     1       1.620  -0.378  -3.713  0.00  0.00    +0.008 A 
ATOM     19  C   UNL     1       1.761  -1.743  -3.542  0.00  0.00    -0.034 A 
ATOM     20  C   UNL     1       1.333  -2.343  -2.373  0.00  0.00    +0.008 A 
ATOM     21  C   UNL     1       0.769  -1.579  -1.369  0.00  0.00    +0.046 A 
BRANCH  16  23
ATOM     22  C   UNL     1      -0.058   1.945  -0.802  0.00  0.00    +0.277 C 
ATOM     23  O   UNL     1       0.062   0.542  -0.557  0.00  0.00    -0.495 OA
ENDBRANCH  16  23
ENDBRANCH   1  19
BRANCH  14  24
ATOM     24  N   UNL     1       4.665  -5.118  -3.081  0.00  0.00    -0.345 N 
ATOM     25  H   UNL     1       4.787  -6.076  -3.172  0.00  0.00    +0.143 HD
ATOM     26  H   UNL     1       5.338  -4.585  -2.630  0.00  0.00    +0.143 HD
ENDBRANCH  14  24
BRANCH  15  27
ATOM     27  C   UNL     1       4.848  -2.592  -4.137  0.00  0.00    +0.339 C 
ATOM     28  O   UNL     1       5.866  -3.177  -3.812  0.00  0.00    -0.245 OA
BRANCH  27  29
ATOM     29  O   UNL     1       4.908  -1.302  -4.531  0.00  0.00    -0.465 OA
ATOM     30  C   UNL     1       6.197  -0.685  -4.543  0.00  0.00    +0.280 C 
ENDBRANCH  27  29
ENDBRANCH  15  27
BRANCH   2  31
ATOM     31  C   UNL     1       0.453  -3.299  -6.135  0.00  0.00    +0.098 C 
ATOM     32  N   UNL     1      -0.289  -3.049  -6.958  0.00  0.00    -0.191 NA
ENDBRANCH   2  31
TORSDOF 6
