REMARK  Name = ZINC40375488
REMARK  5 active torsions:
REMARK  status: ('A' for Active; 'I' for Inactive)
REMARK    1  A    between atoms: C_1  and  C_2
REMARK    2  A    between atoms: C_5  and  N_9
REMARK    3  A    between atoms: C_13  and  N_17
REMARK    4  A    between atoms: C_18  and  C_26
REMARK    5  A    between atoms: C_23  and  C_25
REMARK                            x       y       z     vdW  Elec       q    Type
REMARK                         _______ _______ _______ _____ _____    ______ ____
ROOT
ATOM      1  N   UNL     1       1.859  -4.095   0.245  0.00  0.00    -0.209 N 
ATOM      2  C   UNL     1       0.647  -4.502  -0.153  0.00  0.00    +0.225 C 
ATOM      3  O   UNL     1      -0.261  -3.775  -0.496  0.00  0.00    -0.275 OA
ATOM      4  C   UNL     1       0.590  -6.013  -0.108  0.00  0.00    +0.091 C 
ATOM      5  C   UNL     1       1.994  -6.413   0.391  0.00  0.00    +0.030 C 
ATOM      6  C   UNL     1       2.698  -5.086   0.570  0.00  0.00    +0.213 C 
ATOM      7  O   UNL     1       3.840  -4.942   0.949  0.00  0.00    -0.277 OA
ENDROOT
BRANCH   5   8
ATOM      8  N   UNL     1       1.903  -7.135   1.667  0.00  0.00    +0.391 N 
ATOM      9  C   UNL     1       1.061  -6.375   2.598  0.00  0.00    -0.070 C 
ATOM     10  C   UNL     1       1.028  -7.081   3.955  0.00  0.00    -0.016 C 
ATOM     11  C   UNL     1       0.453  -8.489   3.778  0.00  0.00    -0.003 C 
ATOM     12  C   UNL     1       1.295  -9.248   2.748  0.00  0.00    -0.016 C 
ATOM     13  C   UNL     1       1.317  -8.461   1.436  0.00  0.00    -0.070 C 
ATOM     14  C   UNL     1       2.157  -9.216   0.404  0.00  0.00    -0.013 C 
ATOM     15  C   UNL     1       1.636  -4.967   2.771  0.00  0.00    -0.013 C 
ATOM     16  H   UNL     1       2.826  -7.240   2.059  0.00  0.00    -0.080 HD
ENDBRANCH   5   8
BRANCH   1  21
ATOM     17  C   UNL     1       3.322   1.385   0.512  0.00  0.00    +0.044 C 
ATOM     18  C   UNL     1       2.934  -0.069   0.442  0.00  0.00    -0.048 A 
ATOM     19  C   UNL     1       3.139  -0.783  -0.724  0.00  0.00    +0.005 A 
ATOM     20  C   UNL     1       2.784  -2.117  -0.792  0.00  0.00    +0.027 A 
ATOM     21  C   UNL     1       2.220  -2.741   0.312  0.00  0.00    +0.079 A 
ATOM     22  C   UNL     1       2.015  -2.022   1.483  0.00  0.00    +0.145 A 
ATOM     23  C   UNL     1       2.377  -0.688   1.546  0.00  0.00    +0.043 A 
ATOM     24  F   UNL     1       1.466  -2.625   2.560  0.00  0.00    -0.204 F 
ENDBRANCH   1  21
TORSDOF 2
