REMARK  Name = ZINC04746638
REMARK  5 active torsions:
REMARK  status: ('A' for Active; 'I' for Inactive)
REMARK    1  A    between atoms: C_1  and  C_2
REMARK    2  A    between atoms: C_7  and  C_15
REMARK    3  A    between atoms: C_9  and  C_13
REMARK    4  A    between atoms: C_10  and  N_12
REMARK    5  A    between atoms: C_23  and  C_25
REMARK                            x       y       z     vdW  Elec       q    Type
REMARK                         _______ _______ _______ _____ _____    ______ ____
ROOT
ATOM      1  C   UNL     1       1.425   3.543  -0.087  0.00  0.00    +0.008 C 
ATOM      2  C   UNL     1       1.425   2.015  -0.001  0.00  0.00    +0.003 C 
ATOM      3  C   UNL     1       2.139   1.431  -1.221  0.00  0.00    +0.078 C 
ATOM      4  C   UNL     1       2.103  -0.078  -1.157  0.00  0.00    +0.115 C 
ATOM      5  C   UNL     1       1.071  -0.716  -0.575  0.00  0.00    +0.046 C 
ATOM      6  C   UNL     1       1.030  -2.224  -0.525  0.00  0.00    +0.101 C 
ATOM      7  C   UNL     1       2.406  -2.785  -0.756  0.00  0.00    +0.098 C 
ATOM      8  C   UNL     1       3.370  -2.022  -1.326  0.00  0.00    +0.198 C 
ATOM      9  O   UNL     1       3.129  -0.757  -1.703  0.00  0.00    -0.445 OA
ATOM     10  C   UNL     1       0.002  -0.004   0.002  0.00  0.00    +0.166 C 
ATOM     11  O   UNL     1      -0.921  -0.616   0.502  0.00  0.00    -0.292 OA
ATOM     12  C   UNL     1      -0.018   1.500   0.010  0.00  0.00    +0.060 C 
ATOM     13  C   UNL     1      -0.754   2.010  -1.231  0.00  0.00    +0.016 C 
ENDROOT
BRANCH   6  14
ATOM     14  C   UNL     1       0.097  -2.735  -1.592  0.00  0.00    -0.035 A 
ATOM     15  C   UNL     1       0.342  -2.445  -2.921  0.00  0.00    +0.004 A 
ATOM     16  C   UNL     1      -0.512  -2.918  -3.900  0.00  0.00    +0.000 A 
ATOM     17  C   UNL     1      -1.617  -3.671  -3.549  0.00  0.00    +0.000 A 
ATOM     18  C   UNL     1      -1.865  -3.956  -2.220  0.00  0.00    +0.000 A 
ATOM     19  C   UNL     1      -1.008  -3.488  -1.241  0.00  0.00    +0.004 A 
ENDBRANCH   6  14
BRANCH   8  20
ATOM     20  N   UNL     1       4.620  -2.554  -1.520  0.00  0.00    -0.328 N 
ATOM     21  H   UNL     1       4.806  -3.467  -1.251  0.00  0.00    +0.145 HD
ATOM     22  H   UNL     1       5.318  -2.017  -1.927  0.00  0.00    +0.145 HD
ENDBRANCH   8  20
BRANCH   7  23
ATOM     23  C   UNL     1       2.699  -4.133  -0.372  0.00  0.00    +0.101 C 
ATOM     24  N   UNL     1       2.931  -5.202  -0.068  0.00  0.00    -0.191 NA
ENDBRANCH   7  23
TORSDOF 3
