REMARK  Name = ZINC37063315
REMARK  5 active torsions:
REMARK  status: ('A' for Active; 'I' for Inactive)
REMARK    1  A    between atoms: C_1  and  C_2
REMARK    2  A    between atoms: C_7  and  C_22
REMARK    3  A    between atoms: N_9  and  S_10
REMARK    4  A    between atoms: S_10  and  C_13
REMARK    5  A    between atoms: C_16  and  N_20
REMARK                            x       y       z     vdW  Elec       q    Type
REMARK                         _______ _______ _______ _____ _____    ______ ____
ROOT
ATOM      1  S   UNL     1       1.246  -1.391   1.113  0.00  0.00    +0.064 S 
ATOM      2  O   UNL     1       2.352  -0.950   1.888  0.00  0.00    -0.153 OA
ATOM      3  O   UNL     1       0.001  -1.750   1.697  0.00  0.00    -0.153 OA
ENDROOT
BRANCH   1  10
ATOM      4  C   UNL     1      -1.043   1.264  -0.097  0.00  0.00    +0.026 C 
ATOM      5  C   UNL     1      -0.414  -0.049  -0.568  0.00  0.00    +0.077 C 
ATOM      6  C   UNL     1      -0.290  -0.041  -2.094  0.00  0.00    +0.020 C 
ATOM      7  C   UNL     1       0.696   1.051  -2.516  0.00  0.00    +0.003 C 
ATOM      8  C   UNL     1       2.075   0.754  -1.921  0.00  0.00    +0.020 C 
ATOM      9  C   UNL     1       1.977   0.755  -0.392  0.00  0.00    +0.077 C 
ATOM     10  N   UNL     1       0.926  -0.191   0.018  0.00  0.00    -0.171 NA
ATOM     11  C   UNL     1       3.318   0.326   0.207  0.00  0.00    +0.026 C 
ENDBRANCH   1  10
BRANCH   1  12
ATOM     12  C   UNL     1       1.797  -2.795   0.201  0.00  0.00    +0.142 A 
ATOM     13  C   UNL     1       0.927  -3.449  -0.653  0.00  0.00    +0.070 A 
ATOM     14  C   UNL     1       1.357  -4.550  -1.370  0.00  0.00    +0.044 A 
ATOM     15  C   UNL     1       2.664  -4.999  -1.232  0.00  0.00    +0.027 A 
ATOM     16  C   UNL     1       3.536  -4.341  -0.373  0.00  0.00    +0.044 A 
ATOM     17  C   UNL     1       3.102  -3.237   0.337  0.00  0.00    +0.070 A 
ATOM     18 CL   UNL     1       4.192  -2.409   1.405  0.00  0.00    -0.081 Cl
ATOM     19 CL   UNL     1      -0.706  -2.886  -0.825  0.00  0.00    -0.081 Cl
BRANCH  15  20
ATOM     20  N   UNL     1       3.102  -6.112  -1.954  0.00  0.00    -0.358 N 
ATOM     21  H   UNL     1       2.492  -6.571  -2.553  0.00  0.00    +0.142 HD
ATOM     22  H   UNL     1       4.014  -6.425  -1.857  0.00  0.00    +0.142 HD
ENDBRANCH  15  20
ENDBRANCH   1  12
TORSDOF 3
