REMARK  Name = ZINC59452504
REMARK  9 active torsions:
REMARK  status: ('A' for Active; 'I' for Inactive)
REMARK    1  A    between atoms: C_1  and  C_2
REMARK    2  A    between atoms: C_4  and  C_22
REMARK    3  A    between atoms: C_4  and  C_23
REMARK    4  A    between atoms: N_8  and  N_9
REMARK    5  A    between atoms: C_10  and  C_12
REMARK    6  A    between atoms: C_15  and  C_18
REMARK    7  A    between atoms: C_18  and  C_19
REMARK    8  A    between atoms: C_18  and  C_20
REMARK    9  A    between atoms: C_18  and  C_21
REMARK                            x       y       z     vdW  Elec       q    Type
REMARK                         _______ _______ _______ _____ _____    ______ ____
ROOT
ATOM      1  N   UNL     1       2.392   0.099  -0.020  0.00  0.00    -0.224 N 
ATOM      2  C   UNL     1       3.132   0.207   1.101  0.00  0.00    +0.261 C 
ATOM      3  O   UNL     1       2.781  -0.358   2.118  0.00  0.00    -0.269 OA
ATOM      4  H   UNL     1       2.672   0.550  -0.832  0.00  0.00    +0.174 HD
ENDROOT
BRANCH   1  12
ATOM      5  C   UNL     1      -0.018   1.503   0.010  0.00  0.00    +0.062 C 
ATOM      6  C   UNL     1       0.002  -0.004   0.002  0.00  0.00    +0.028 C 
ATOM      7  C   UNL     1      -1.141  -0.667   0.004  0.00  0.00    +0.018 C 
ATOM      8  C   UNL     1      -1.086  -2.181  -0.005  0.00  0.00    +0.048 C 
ATOM      9  N   UNL     1       0.247  -2.805  -0.015  0.00  0.00    -0.317 N 
ATOM     10  C   UNL     1       1.330  -2.002  -0.016  0.00  0.00    +0.154 C 
ATOM     11  S   UNL     1       2.890  -2.707  -0.029  0.00  0.00    -0.017 S 
ATOM     12  N   UNL     1       1.218  -0.667  -0.013  0.00  0.00    -0.204 N 
ATOM     13  C   UNL     1      -1.833  -2.686   1.231  0.00  0.00    +0.036 C 
ATOM     14  C   UNL     1      -1.845  -2.672  -1.240  0.00  0.00    +0.036 C 
ATOM     15  H   UNL     1       0.344  -3.770  -0.021  0.00  0.00    +0.149 HD
ENDBRANCH   1  12
BRANCH   2  16
ATOM     16  C   UNL     1       4.370   1.015   1.093  0.00  0.00    +0.038 A 
ATOM     17  C   UNL     1       4.773   1.671  -0.071  0.00  0.00    +0.013 A 
ATOM     18  C   UNL     1       5.929   2.423  -0.072  0.00  0.00    +0.005 A 
ATOM     19  C   UNL     1       6.690   2.528   1.079  0.00  0.00    -0.042 A 
ATOM     20  C   UNL     1       6.297   1.880   2.237  0.00  0.00    +0.005 A 
ATOM     21  C   UNL     1       5.139   1.130   2.252  0.00  0.00    +0.013 A 
BRANCH  19  22
ATOM     22  C   UNL     1       7.952   3.351   1.072  0.00  0.00    -0.013 C 
ATOM     23  C   UNL     1       7.614   4.800   0.716  0.00  0.00    +0.015 C 
ATOM     24  C   UNL     1       8.600   3.304   2.457  0.00  0.00    +0.015 C 
ATOM     25  C   UNL     1       8.924   2.785   0.034  0.00  0.00    +0.015 C 
ENDBRANCH  19  22
ENDBRANCH   2  16
TORSDOF 3
