REMARK  Name = ZINC43529797
REMARK  9 active torsions:
REMARK  status: ('A' for Active; 'I' for Inactive)
REMARK    1  A    between atoms: C_1  and  N_2
REMARK    2  A    between atoms: N_2  and  C_3
REMARK    3  A    between atoms: N_2  and  C_4
REMARK    4  A    between atoms: C_4  and  C_6
REMARK    5  A    between atoms: C_4  and  C_25
REMARK    6  A    between atoms: C_6  and  N_7
REMARK    7  A    between atoms: C_12  and  C_21
REMARK    8  A    between atoms: C_21  and  O_23
REMARK    9  A    between atoms: O_23  and  C_24
REMARK                            x       y       z     vdW  Elec       q    Type
REMARK                         _______ _______ _______ _____ _____    ______ ____
ROOT
ATOM      1  N   UNL     1      -1.755   1.527  -1.178  0.00  0.00    -0.300 N 
ATOM      2  C   UNL     1      -2.260   2.263  -2.188  0.00  0.00    +0.307 C 
ATOM      3  O   UNL     1      -3.021   1.755  -2.989  0.00  0.00    -0.252 OA
ATOM      4  N   UNL     1      -1.922   3.562  -2.310  0.00  0.00    -0.248 N 
ATOM      5  C   UNL     1      -0.927   4.178  -1.415  0.00  0.00    +0.171 C 
ATOM      6  C   UNL     1      -1.453   5.567  -1.025  0.00  0.00    +0.299 C 
ATOM      7  O   UNL     1      -1.658   6.334  -2.214  0.00  0.00    -0.474 OA
ATOM      8  C   UNL     1      -2.362   5.759  -3.224  0.00  0.00    +0.143 A 
ATOM      9  C   UNL     1      -2.503   4.375  -3.300  0.00  0.00    +0.080 A 
ATOM     10  C   UNL     1      -3.215   3.801  -4.340  0.00  0.00    +0.027 A 
ATOM     11  C   UNL     1      -3.786   4.605  -5.309  0.00  0.00    +0.002 A 
ATOM     12  C   UNL     1      -3.647   5.979  -5.240  0.00  0.00    +0.004 A 
ATOM     13  C   UNL     1      -2.944   6.559  -4.196  0.00  0.00    +0.047 A 
ATOM     14  H   UNL     1      -1.206   1.949  -0.498  0.00  0.00    +0.150 HD
ENDROOT
BRANCH   6  15
ATOM     15  C   UNL     1      -0.446   6.258  -0.142  0.00  0.00    +0.350 C 
ATOM     16  O   UNL     1       0.108   7.261  -0.528  0.00  0.00    -0.247 OA
BRANCH  15  17
ATOM     17  O   UNL     1      -0.164   5.761   1.072  0.00  0.00    -0.465 OA
ATOM     18  C   UNL     1       0.801   6.467   1.855  0.00  0.00    +0.280 C 
ENDBRANCH  15  17
ENDBRANCH   6  15
BRANCH   1  19
ATOM     19  C   UNL     1      -2.034   0.091  -1.107  0.00  0.00    +0.095 C 
BRANCH  19  20
ATOM     20  C   UNL     1      -1.249  -0.524   0.053  0.00  0.00    -0.014 C 
BRANCH  20  21
ATOM     21  C   UNL     1      -1.757   0.036   1.357  0.00  0.00    -0.022 A 
ATOM     22  C   UNL     1      -1.234   1.024   2.123  0.00  0.00    +0.009 A 
ATOM     23  C   UNL     1      -1.879   1.378   3.293  0.00  0.00    +0.008 A 
ATOM     24  C   UNL     1      -3.016   0.726   3.640  0.00  0.00    +0.045 A 
ATOM     25  S   UNL     1      -3.209  -0.424   2.288  0.00  0.00    -0.103 S 
ENDBRANCH  20  21
BRANCH  20  27
ATOM     26  C   UNL     1      -0.834  -2.541  -1.178  0.00  0.00    -0.096 C 
ATOM     27  N   UNL     1      -1.426  -1.983   0.045  0.00  0.00    +0.382 N 
ATOM     28  C   UNL     1      -0.761  -2.563   1.220  0.00  0.00    -0.096 C 
ATOM     29  H   UNL     1      -2.410  -2.202   0.073  0.00  0.00    -0.082 HD
ENDBRANCH  20  27
ENDBRANCH  19  20
ENDBRANCH   1  19
TORSDOF 6
