REMARK  Name = ZINC61403050
REMARK  4 active torsions:
REMARK  status: ('A' for Active; 'I' for Inactive)
REMARK    1  A    between atoms: C_1  and  C_2
REMARK    2  A    between atoms: C_3  and  C_20
REMARK    3  A    between atoms: C_9  and  C_11
REMARK    4  A    between atoms: C_11  and  N_12
REMARK                            x       y       z     vdW  Elec       q    Type
REMARK                         _______ _______ _______ _____ _____    ______ ____
ROOT
ATOM      1  C   UNL     1      -0.018   1.503   0.010  0.00  0.00    +0.045 C 
ATOM      2  C   UNL     1       0.002  -0.004   0.002  0.00  0.00    -0.028 A 
ATOM      3  C   UNL     1       0.006  -0.676  -1.158  0.00  0.00    -0.008 A 
ATOM      4  S   UNL     1       0.031  -2.385  -0.653  0.00  0.00    -0.074 S 
ATOM      5  C   UNL     1       0.036  -2.154   1.105  0.00  0.00    +0.114 A 
ATOM      6  C   UNL     1       0.024  -0.746   1.252  0.00  0.00    +0.048 A 
ATOM      7  C   UNL     1       0.030  -0.274   2.585  0.00  0.00    +0.141 A 
ATOM      8  N   UNL     1       0.051  -1.142   3.576  0.00  0.00    -0.218 NA
ATOM      9  C   UNL     1       0.067  -2.447   3.371  0.00  0.00    +0.153 A 
ATOM     10  N   UNL     1       0.051  -2.951   2.152  0.00  0.00    -0.223 NA
ATOM     11 CL   UNL     1       0.010   1.431   2.912  0.00  0.00    -0.061 Cl
ATOM     12  C   UNL     1      -0.009  -0.118  -2.558  0.00  0.00    +0.052 C 
ENDROOT
BRANCH   9  13
ATOM     13  C   UNL     1       0.090  -3.379   4.555  0.00  0.00    +0.223 C 
BRANCH  13  14
ATOM     14  N   UNL     1      -1.283  -3.700   4.951  0.00  0.00    -0.222 N 
ATOM     15  C   UNL     1      -1.891  -4.771   4.405  0.00  0.00    +0.268 A 
ATOM     16  O   UNL     1      -1.303  -5.465   3.591  0.00  0.00    -0.266 OA
ATOM     17  C   UNL     1      -3.214  -5.082   4.786  0.00  0.00    +0.073 A 
ATOM     18  C   UNL     1      -3.821  -4.271   5.702  0.00  0.00    +0.027 A 
ATOM     19  C   UNL     1      -3.098  -3.180   6.209  0.00  0.00    +0.133 A 
ATOM     20  N   UNL     1      -1.875  -2.957   5.814  0.00  0.00    -0.176 NA
ENDBRANCH  13  14
ENDBRANCH   9  13
TORSDOF 2
