REMARK  Name = ZINC11847174
REMARK  11 active torsions:
REMARK  status: ('A' for Active; 'I' for Inactive)
REMARK    1  A    between atoms: C_1  and  C_2
REMARK    2  A    between atoms: C_2  and  C_3
REMARK    3  A    between atoms: C_2  and  C_4
REMARK    4  A    between atoms: C_2  and  C_5
REMARK    5  A    between atoms: C_8  and  S_11
REMARK    6  A    between atoms: S_11  and  N_14
REMARK    7  A    between atoms: N_14  and  C_15
REMARK    8  A    between atoms: C_15  and  C_16
REMARK    9  A    between atoms: C_16  and  C_18
REMARK   10  A    between atoms: C_16  and  N_59
REMARK   11  A    between atoms: N_22  and  C_23
REMARK                            x       y       z     vdW  Elec       q    Type
REMARK                         _______ _______ _______ _____ _____    ______ ____
ROOT
ATOM      1  N   UNL     1      -1.704   5.451   0.930  0.00  0.00    -0.191 NA
ATOM      2  H   UNL     1      -1.878   4.823   0.212  0.00  0.00    +0.148 HD
ENDROOT
BRANCH   1   3
ATOM      3  S   UNL     1      -2.075   7.053   0.736  0.00  0.00    +0.058 S 
ATOM      4  O   UNL     1      -2.600   7.192  -0.577  0.00  0.00    -0.153 OA
ATOM      5  O   UNL     1      -2.802   7.445   1.892  0.00  0.00    -0.153 OA
BRANCH   3   9
ATOM      6  C   UNL     1       1.824   9.351   0.820  0.00  0.00    -0.042 A 
ATOM      7  C   UNL     1       1.326   8.879  -0.380  0.00  0.00    +0.006 A 
ATOM      8  C   UNL     1       0.135   8.177  -0.405  0.00  0.00    +0.029 A 
ATOM      9  C   UNL     1      -0.557   7.948   0.769  0.00  0.00    +0.105 A 
ATOM     10  C   UNL     1      -0.062   8.425   1.968  0.00  0.00    +0.029 A 
ATOM     11  C   UNL     1       1.131   9.122   1.994  0.00  0.00    +0.006 A 
BRANCH   6  13
ATOM     12  C   UNL     1       2.994  11.370  -0.018  0.00  0.00    +0.015 C 
ATOM     13  C   UNL     1       3.122  10.116   0.849  0.00  0.00    -0.013 C 
ATOM     14  C   UNL     1       3.444  10.522   2.288  0.00  0.00    +0.015 C 
ATOM     15  C   UNL     1       4.247   9.232   0.304  0.00  0.00    +0.015 C 
ENDBRANCH   6  13
ENDBRANCH   3   9
ENDBRANCH   1   3
BRANCH   1  16
ATOM     16  C   UNL     1      -1.112   4.983   2.186  0.00  0.00    +0.096 C 
BRANCH  16  17
ATOM     17  C   UNL     1      -1.231   3.460   2.269  0.00  0.00    -0.005 C 
BRANCH  17  23
ATOM     18  C   UNL     1       0.758   3.276   0.899  0.00  0.00    -0.049 C 
ATOM     19  C   UNL     1       1.314   2.673  -0.394  0.00  0.00    +0.141 C 
ATOM     20  O   UNL     1       1.176   1.251  -0.350  0.00  0.00    -0.383 OA
ATOM     21  C   UNL     1      -0.174   0.808  -0.188  0.00  0.00    +0.141 C 
ATOM     22  C   UNL     1      -0.745   1.391   1.107  0.00  0.00    -0.049 C 
ATOM     23  N   UNL     1      -0.654   2.865   1.044  0.00  0.00    +0.389 N 
ATOM     24  H   UNL     1      -1.185   3.197   0.230  0.00  0.00    -0.081 HD
ENDBRANCH  17  23
BRANCH  17  25
ATOM     25  C   UNL     1      -0.499   2.965   3.490  0.00  0.00    +0.006 A 
ATOM     26  C   UNL     1       0.566   2.138   3.492  0.00  0.00    +0.021 A 
ATOM     27  C   UNL     1       0.937   1.931   4.835  0.00  0.00    +0.019 A 
ATOM     28  C   UNL     1       0.085   2.640   5.603  0.00  0.00    +0.085 A 
ATOM     29  N   UNL     1      -0.795   3.282   4.782  0.00  0.00    -0.355 N 
ATOM     30  C   UNL     1      -1.881   4.163   5.218  0.00  0.00    +0.148 C 
ENDBRANCH  17  25
ENDBRANCH  16  17
ENDBRANCH   1  16
TORSDOF 7
