REMARK  Name = ZINC02508877
REMARK  8 active torsions:
REMARK  status: ('A' for Active; 'I' for Inactive)
REMARK    1  A    between atoms: C_1  and  C_2
REMARK    2  A    between atoms: C_3  and  C_21
REMARK    3  A    between atoms: C_4  and  C_14
REMARK    4  A    between atoms: C_21  and  O_23
REMARK    5  A    between atoms: O_23  and  C_24
REMARK    6  A    between atoms: C_24  and  C_25
REMARK    7  A    between atoms: C_25  and  C_26
REMARK    8  A    between atoms: C_25  and  C_27
REMARK                            x       y       z     vdW  Elec       q    Type
REMARK                         _______ _______ _______ _____ _____    ______ ____
ROOT
ATOM      1  C   UNL     1       2.601   6.105  -3.206  0.00  0.00    +0.066 C 
ATOM      2  C   UNL     1       2.389   5.671  -1.778  0.00  0.00    +0.053 C 
ATOM      3  C   UNL     1       2.744   4.413  -1.401  0.00  0.00    +0.083 C 
ATOM      4  C   UNL     1       2.451   3.936  -0.001  0.00  0.00    +0.152 C 
ATOM      5  N   UNL     1       2.337   5.096   0.896  0.00  0.00    -0.239 N 
ATOM      6  C   UNL     1       2.692   4.972   2.174  0.00  0.00    +0.223 C 
ATOM      7  O   UNL     1       2.916   3.839   2.545  0.00  0.00    -0.275 OA
ATOM      8  C   UNL     1       2.849   6.022   3.207  0.00  0.00    +0.107 C 
ATOM      9  C   UNL     1       2.665   7.444   2.703  0.00  0.00    +0.086 C 
ATOM     10  S   UNL     1       1.292   7.512   1.523  0.00  0.00    -0.090 S 
ATOM     11  C   UNL     1       1.858   6.282   0.389  0.00  0.00    +0.164 C 
ATOM     12  N   UNL     1       1.857   6.525  -0.906  0.00  0.00    -0.230 NA
ENDROOT
BRANCH   4  13
ATOM     13  C   UNL     1       1.156   3.166   0.007  0.00  0.00    -0.022 A 
ATOM     14  C   UNL     1       1.175   1.783   0.000  0.00  0.00    +0.007 A 
ATOM     15  C   UNL     1      -0.013   1.076   0.008  0.00  0.00    +0.015 A 
ATOM     16  C   UNL     1      -1.220   1.751   0.017  0.00  0.00    +0.013 A 
ATOM     17  C   UNL     1      -1.238   3.134   0.029  0.00  0.00    +0.015 A 
ATOM     18  C   UNL     1      -0.050   3.841   0.022  0.00  0.00    +0.007 A 
ATOM     19  I   UNL     1      -3.020   0.679   0.021  0.00  0.00    -0.044 I 
ENDBRANCH   4  13
BRANCH   3  20
ATOM     20  C   UNL     1       3.383   3.558  -2.315  0.00  0.00    +0.339 C 
ATOM     21  O   UNL     1       3.619   3.943  -3.446  0.00  0.00    -0.245 OA
BRANCH  20  22
ATOM     22  O   UNL     1       3.735   2.309  -1.939  0.00  0.00    -0.461 OA
BRANCH  22  23
ATOM     23  C   UNL     1       4.381   1.495  -2.920  0.00  0.00    +0.235 C 
BRANCH  23  24
ATOM     24  C   UNL     1       4.702   0.127  -2.315  0.00  0.00    +0.020 C 
ATOM     25  C   UNL     1       3.398  -0.601  -1.980  0.00  0.00    +0.010 C 
ATOM     26  C   UNL     1       5.503  -0.701  -3.322  0.00  0.00    +0.010 C 
ENDBRANCH  23  24
ENDBRANCH  22  23
ENDBRANCH  20  22
ENDBRANCH   3  20
TORSDOF 5
