REMARK  Name = ZINC38649017
REMARK  8 active torsions:
REMARK  status: ('A' for Active; 'I' for Inactive)
REMARK    1  A    between atoms: C_1  and  C_2
REMARK    2  A    between atoms: C_7  and  C_8
REMARK    3  A    between atoms: C_14  and  C_27
REMARK    4  A    between atoms: N_16  and  C_19
REMARK    5  A    between atoms: C_30  and  O_35
REMARK    6  A    between atoms: C_31  and  O_33
REMARK    7  A    between atoms: O_33  and  C_34
REMARK    8  A    between atoms: O_35  and  C_36
REMARK                            x       y       z     vdW  Elec       q    Type
REMARK                         _______ _______ _______ _____ _____    ______ ____
ROOT
ATOM      1  C   UNL     1      -0.018   1.503   0.010  0.00  0.00    +0.044 C 
ATOM      2  C   UNL     1       0.002  -0.004   0.002  0.00  0.00    -0.047 A 
ATOM      3  C   UNL     1       0.006  -0.685  -1.195  0.00  0.00    +0.019 A 
ATOM      4  C   UNL     1       0.024  -2.080  -1.194  0.00  0.00    +0.065 A 
ATOM      5  C   UNL     1       0.033  -2.793   0.016  0.00  0.00    +0.140 A 
ATOM      6  C   UNL     1       0.033  -2.080   1.214  0.00  0.00    +0.050 A 
ATOM      7  C   UNL     1       0.023  -0.703   1.200  0.00  0.00    -0.044 A 
ATOM      8  C   UNL     1       0.029   0.053   2.503  0.00  0.00    +0.044 C 
ATOM      9  O   UNL     1       0.037  -4.145   0.057  0.00  0.00    -0.450 OA
ATOM     10  C   UNL     1       0.273  -4.846  -1.070  0.00  0.00    +0.199 A 
ATOM     11  C   UNL     1       0.280  -4.269  -2.308  0.00  0.00    +0.072 A 
ATOM     12  C   UNL     1       0.036  -2.832  -2.474  0.00  0.00    +0.199 A 
ATOM     13  O   UNL     1      -0.140  -2.306  -3.559  0.00  0.00    -0.287 OA
ATOM     14  C   UNL     1       0.566  -5.340  -3.308  0.00  0.00    +0.145 C 
ATOM     15  N   UNL     1       0.729  -6.581  -2.533  0.00  0.00    -0.279 N 
ATOM     16  C   UNL     1       0.557  -6.283  -1.228  0.00  0.00    +0.283 C 
ATOM     17  O   UNL     1       0.627  -7.083  -0.317  0.00  0.00    -0.267 OA
ENDROOT
BRANCH  15  18
ATOM     18  C   UNL     1       1.025  -7.907  -3.081  0.00  0.00    +0.100 C 
ATOM     19  C   UNL     1      -0.088  -8.892  -2.687  0.00  0.00    +0.047 C 
ATOM     20  C   UNL     1       0.364 -10.343  -2.979  0.00  0.00    +0.168 C 
ATOM     21  S   UNL     1       2.193 -10.236  -2.816  0.00  0.00    -0.029 S 
ATOM     22  O   UNL     1       2.597 -10.954  -1.657  0.00  0.00    -0.174 OA
ATOM     23  O   UNL     1       2.788 -10.541  -4.070  0.00  0.00    -0.174 OA
ATOM     24  C   UNL     1       2.366  -8.431  -2.492  0.00  0.00    +0.188 C 
ENDBRANCH  15  18
BRANCH  14  25
ATOM     25  C   UNL     1       1.834  -5.025  -4.060  0.00  0.00    -0.019 A 
ATOM     26  C   UNL     1       3.062  -5.272  -3.474  0.00  0.00    +0.009 A 
ATOM     27  C   UNL     1       4.228  -4.984  -4.159  0.00  0.00    +0.050 A 
ATOM     28  C   UNL     1       4.168  -4.449  -5.436  0.00  0.00    +0.162 A 
ATOM     29  C   UNL     1       2.932  -4.201  -6.025  0.00  0.00    +0.162 A 
ATOM     30  C   UNL     1       1.767  -4.496  -5.335  0.00  0.00    +0.055 A 
BRANCH  29  31
ATOM     31  O   UNL     1       2.867  -3.675  -7.278  0.00  0.00    -0.491 OA
ATOM     32  C   UNL     1       1.565  -3.448  -7.819  0.00  0.00    +0.277 C 
ENDBRANCH  29  31
BRANCH  28  33
ATOM     33  O   UNL     1       5.314  -4.165  -6.111  0.00  0.00    -0.491 OA
ATOM     34  C   UNL     1       6.546  -4.445  -5.443  0.00  0.00    +0.277 C 
ENDBRANCH  28  33
ENDBRANCH  14  25
TORSDOF 4
