REMARK  Name = ZINC39425316
REMARK  6 active torsions:
REMARK  status: ('A' for Active; 'I' for Inactive)
REMARK    1  A    between atoms: C_4  and  N_7
REMARK    2  A    between atoms: C_8  and  C_28
REMARK    3  A    between atoms: C_11  and  S_12
REMARK    4  A    between atoms: S_12  and  C_13
REMARK    5  A    between atoms: C_13  and  C_14
REMARK    6  A    between atoms: C_28  and  N_29
REMARK                            x       y       z     vdW  Elec       q    Type
REMARK                         _______ _______ _______ _____ _____    ______ ____
ROOT
ATOM      1  N   UNL     1       3.624  -0.653  -0.036  0.00  0.00    -0.276 N 
ATOM      2  C   UNL     1       4.115  -1.449  -1.037  0.00  0.00    +0.122 A 
ATOM      3  N   UNL     1       5.279  -1.886  -0.648  0.00  0.00    -0.135 NA
ATOM      4  N   UNL     1       5.558  -1.426   0.519  0.00  0.00    -0.122 NA
ATOM      5  C   UNL     1       4.580  -0.658   0.942  0.00  0.00    +0.196 A 
ENDROOT
BRANCH   1   9
ATOM      6  C   UNL     1      -0.017   1.379   0.010  0.00  0.00    +0.000 A 
ATOM      7  C   UNL     1       1.170   2.089   0.002  0.00  0.00    +0.002 A 
ATOM      8  C   UNL     1       2.377   1.419  -0.013  0.00  0.00    +0.026 A 
ATOM      9  C   UNL     1       2.399   0.031  -0.021  0.00  0.00    +0.050 A 
ATOM     10  C   UNL     1       1.207  -0.680  -0.013  0.00  0.00    +0.026 A 
ATOM     11  C   UNL     1       0.002  -0.004   0.002  0.00  0.00    +0.002 A 
ENDBRANCH   1   9
BRANCH   5  12
ATOM     12  S   UNL     1       4.512   0.200   2.479  0.00  0.00    -0.078 S 
BRANCH  12  13
ATOM     13  C   UNL     1       6.076  -0.229   3.291  0.00  0.00    +0.151 C 
BRANCH  13  14
ATOM     14  C   UNL     1       6.147   0.449   4.635  0.00  0.00    +0.134 C 
ATOM     15  N   UNL     1       5.137   1.198   5.008  0.00  0.00    -0.160 NA
ATOM     16  C   UNL     1       5.104   1.834   6.184  0.00  0.00    +0.271 C 
ATOM     17  O   UNL     1       4.151   2.528   6.495  0.00  0.00    -0.268 OA
ATOM     18  C   UNL     1       6.270   1.669   7.105  0.00  0.00    +0.071 C 
ATOM     19  C   UNL     1       6.406   2.105   8.370  0.00  0.00    -0.042 C 
ATOM     20  C   UNL     1       5.581   2.626   9.545  0.00  0.00    +0.033 C 
ATOM     21  C   UNL     1       6.239   2.042  10.813  0.00  0.00    +0.006 C 
ATOM     22  C   UNL     1       7.501   1.284  10.326  0.00  0.00    +0.019 C 
ATOM     23  C   UNL     1       7.802   1.972   8.982  0.00  0.00    +0.079 C 
ATOM     24  S   UNL     1       8.609   0.823   7.811  0.00  0.00    -0.097 S 
ATOM     25  C   UNL     1       7.349   0.815   6.560  0.00  0.00    +0.111 C 
ATOM     26  N   UNL     1       7.223   0.254   5.381  0.00  0.00    -0.227 NA
ENDBRANCH  13  14
ENDBRANCH  12  13
ENDBRANCH   5  12
BRANCH   2  27
ATOM     27  C   UNL     1       3.434  -1.762  -2.345  0.00  0.00    -0.001 C 
BRANCH  27  28
ATOM     28  N   UNL     1       3.819  -0.762  -3.349  0.00  0.00    +0.384 N 
ATOM     29  C   UNL     1       3.314   0.556  -2.944  0.00  0.00    -0.078 C 
ATOM     30  C   UNL     1       3.782   1.615  -3.945  0.00  0.00    -0.019 C 
ATOM     31  C   UNL     1       3.246   1.266  -5.336  0.00  0.00    -0.004 C 
ATOM     32  C   UNL     1       3.717  -0.140  -5.717  0.00  0.00    -0.019 C 
ATOM     33  C   UNL     1       3.252  -1.134  -4.651  0.00  0.00    -0.078 C 
ATOM     34  H   UNL     1       4.825  -0.727  -3.419  0.00  0.00    -0.081 HD
ENDBRANCH  27  28
ENDBRANCH   2  27
TORSDOF 6
