REMARK  Name = ZINC05139593
REMARK  6 active torsions:
REMARK  status: ('A' for Active; 'I' for Inactive)
REMARK    1  A    between atoms: C_1  and  C_2
REMARK    2  A    between atoms: C_5  and  C_8
REMARK    3  A    between atoms: C_8  and  N_9
REMARK    4  A    between atoms: N_18  and  C_19
REMARK    5  A    between atoms: C_22  and  C_26
REMARK    6  A    between atoms: C_23  and  C_25
REMARK                            x       y       z     vdW  Elec       q    Type
REMARK                         _______ _______ _______ _____ _____    ______ ____
ROOT
ATOM      1  N   UNL     1       7.277   1.502   1.623  0.00  0.00    -0.294 N 
ATOM      2  C   UNL     1       6.303   0.581   1.831  0.00  0.00    +0.204 A 
ATOM      3  N   UNL     1       5.101   0.698   1.347  0.00  0.00    -0.217 NA
ATOM      4  C   UNL     1       4.737   1.754   0.602  0.00  0.00    +0.170 A 
ATOM      5  C   UNL     1       5.681   2.756   0.328  0.00  0.00    +0.103 A 
ATOM      6  C   UNL     1       7.026   2.606   0.882  0.00  0.00    +0.265 A 
ATOM      7  O   UNL     1       7.888   3.444   0.683  0.00  0.00    -0.267 OA
ATOM      8  C   UNL     1       5.041   3.726  -0.467  0.00  0.00    +0.150 A 
ATOM      9  N   UNL     1       3.809   3.346  -0.668  0.00  0.00    -0.172 NA
ATOM     10  N   UNL     1       3.585   2.124  -0.021  0.00  0.00    -0.214 N 
ENDROOT
BRANCH  10  11
ATOM     11  C   UNL     1       2.381   1.409  -0.013  0.00  0.00    +0.068 A 
ATOM     12  C   UNL     1       2.396   0.020  -0.021  0.00  0.00    +0.028 A 
ATOM     13  C   UNL     1       1.207  -0.682  -0.013  0.00  0.00    +0.006 A 
ATOM     14  C   UNL     1       0.002  -0.004   0.002  0.00  0.00    -0.047 A 
ATOM     15  C   UNL     1      -0.017   1.378   0.010  0.00  0.00    -0.046 A 
ATOM     16  C   UNL     1       1.169   2.087   0.002  0.00  0.00    +0.031 A 
ATOM     17  C   UNL     1      -1.332   2.113   0.020  0.00  0.00    +0.044 C 
ATOM     18  C   UNL     1      -1.294  -0.774   0.010  0.00  0.00    +0.044 C 
ENDBRANCH  10  11
BRANCH   1  19
ATOM     19  C   UNL     1       8.608   1.299   2.203  0.00  0.00    +0.161 C 
BRANCH  19  24
ATOM     20  C   UNL     1       8.802   3.694   7.458  0.00  0.00    +0.044 C 
ATOM     21  C   UNL     1       8.752   3.069   6.088  0.00  0.00    -0.050 A 
ATOM     22  C   UNL     1       8.361   1.751   5.942  0.00  0.00    +0.004 A 
ATOM     23  C   UNL     1       8.314   1.178   4.685  0.00  0.00    +0.005 A 
ATOM     24  C   UNL     1       8.658   1.924   3.573  0.00  0.00    -0.028 A 
ATOM     25  C   UNL     1       9.055   3.240   3.719  0.00  0.00    +0.005 A 
ATOM     26  C   UNL     1       9.097   3.814   4.976  0.00  0.00    +0.004 A 
ENDBRANCH  19  24
ENDBRANCH   1  19
TORSDOF 3
