REMARK  Name = ZINC02565411
REMARK  2 active torsions:
REMARK  status: ('A' for Active; 'I' for Inactive)
REMARK    1  A    between atoms: C_4  and  C_7
REMARK    2  A    between atoms: N_9  and  C_10
REMARK                            x       y       z     vdW  Elec       q    Type
REMARK                         _______ _______ _______ _____ _____    ______ ____
ROOT
ATOM      1  C   UNL     1       4.977  -2.635  -0.123  0.00  0.00    +0.120 A 
ATOM      2  C   UNL     1       5.110  -3.992  -0.221  0.00  0.00    +0.042 A 
ATOM      3  C   UNL     1       6.471  -4.535  -0.297  0.00  0.00    +0.019 A 
ATOM      4  C   UNL     1       6.695  -5.866  -0.662  0.00  0.00    +0.011 A 
ATOM      5  C   UNL     1       7.974  -6.345  -0.727  0.00  0.00    +0.001 A 
ATOM      6  C   UNL     1       9.051  -5.521  -0.434  0.00  0.00    +0.004 A 
ATOM      7  C   UNL     1       8.852  -4.205  -0.070  0.00  0.00    +0.047 A 
ATOM      8  C   UNL     1       7.562  -3.699   0.003  0.00  0.00    +0.139 A 
ATOM      9  O   UNL     1       7.340  -2.412   0.364  0.00  0.00    -0.421 OA
ATOM     10  C   UNL     1       6.210  -1.833  -0.108  0.00  0.00    +0.359 A 
ATOM     11  O   UNL     1       6.212  -0.682  -0.505  0.00  0.00    -0.243 OA
ENDROOT
BRANCH   1  14
ATOM     12  C   UNL     1       3.415  -1.235   0.999  0.00  0.00    +0.248 C 
ATOM     13  O   UNL     1       4.201  -1.112   1.918  0.00  0.00    -0.270 OA
ATOM     14  N   UNL     1       3.717  -2.032  -0.045  0.00  0.00    -0.276 N 
ATOM     15  H   UNL     1       3.061  -2.188  -0.742  0.00  0.00    +0.155 HD
BRANCH  12  19
ATOM     16  C   UNL     1      -0.285   0.849   1.077  0.00  0.00    +0.000 A 
ATOM     17  C   UNL     1       0.607   0.991   2.125  0.00  0.00    +0.001 A 
ATOM     18  C   UNL     1       1.811   0.317   2.106  0.00  0.00    +0.013 A 
ATOM     19  C   UNL     1       2.127  -0.510   1.026  0.00  0.00    +0.037 A 
ATOM     20  C   UNL     1       1.222  -0.648  -0.027  0.00  0.00    +0.013 A 
ATOM     21  C   UNL     1       0.022   0.032   0.004  0.00  0.00    +0.001 A 
ENDBRANCH  12  19
ENDBRANCH   1  14
TORSDOF 2
