REMARK  Name = ZINC59248385
REMARK  10 active torsions:
REMARK  status: ('A' for Active; 'I' for Inactive)
REMARK    1  A    between atoms: C_1  and  C_2
REMARK    2  A    between atoms: C_4  and  C_30
REMARK    3  A    between atoms: C_5  and  C_9
REMARK    4  A    between atoms: C_7  and  C_8
REMARK    5  A    between atoms: C_9  and  C_11
REMARK    6  A    between atoms: C_11  and  N_12
REMARK    7  A    between atoms: C_15  and  C_19
REMARK    8  A    between atoms: C_15  and  C_20
REMARK    9  A    between atoms: C_23  and  S_26
REMARK   10  A    between atoms: S_26  and  C_29
REMARK                            x       y       z     vdW  Elec       q    Type
REMARK                         _______ _______ _______ _____ _____    ______ ____
ROOT
ATOM      1  N   UNL     1       0.961  -6.288   1.299  0.00  0.00    -0.216 N 
ATOM      2  C   UNL     1      -0.006  -7.224   1.242  0.00  0.00    +0.251 C 
ATOM      3  O   UNL     1      -1.202  -7.048   1.335  0.00  0.00    -0.272 OA
ATOM      4  C   UNL     1       0.712  -8.543   1.037  0.00  0.00    +0.135 C 
ATOM      5  N   UNL     1       2.134  -8.161   0.998  0.00  0.00    -0.281 N 
ATOM      6  C   UNL     1       2.178  -6.826   1.155  0.00  0.00    +0.310 C 
ATOM      7  O   UNL     1       3.208  -6.181   1.168  0.00  0.00    -0.252 OA
ATOM      8  C   UNL     1       0.441  -9.492   2.206  0.00  0.00    +0.047 C 
ATOM      9  H   UNL     1       2.891  -8.756   0.880  0.00  0.00    +0.152 HD
ENDROOT
BRANCH   4  10
ATOM     10  C   UNL     1       0.298  -9.175  -0.267  0.00  0.00    -0.015 A 
ATOM     11  C   UNL     1      -0.968  -8.946  -0.775  0.00  0.00    +0.008 A 
ATOM     12  C   UNL     1      -1.347  -9.526  -1.971  0.00  0.00    +0.027 A 
ATOM     13  C   UNL     1      -0.462 -10.334  -2.660  0.00  0.00    +0.088 A 
ATOM     14  C   UNL     1       0.803 -10.563  -2.152  0.00  0.00    +0.027 A 
ATOM     15  C   UNL     1       1.185  -9.980  -0.958  0.00  0.00    +0.008 A 
BRANCH  13  16
ATOM     16  S   UNL     1      -0.947 -11.074  -4.184  0.00  0.00    -0.006 S 
ATOM     17  O   UNL     1      -0.145 -12.242  -4.291  0.00  0.00    -0.170 OA
ATOM     18  O   UNL     1      -2.363 -11.173  -4.105  0.00  0.00    -0.170 OA
ATOM     19  C   UNL     1      -0.475  -9.871  -5.457  0.00  0.00    +0.200 C 
ENDBRANCH  13  16
ENDBRANCH   4  10
BRANCH   1  20
ATOM     20  C   UNL     1       0.711  -4.857   1.490  0.00  0.00    +0.197 C 
BRANCH  20  21
ATOM     21  C   UNL     1       0.535  -4.195   0.147  0.00  0.00    +0.181 C 
ATOM     22  O   UNL     1       0.611  -4.854  -0.868  0.00  0.00    -0.290 OA
BRANCH  21  27
ATOM     23  C   UNL     1      -0.497   1.452  -0.159  0.00  0.00    +0.044 C 
ATOM     24  C   UNL     1      -0.227  -0.028  -0.079  0.00  0.00    -0.047 A 
ATOM     25  C   UNL     1      -0.264  -0.798  -1.228  0.00  0.00    +0.007 A 
ATOM     26  C   UNL     1      -0.018  -2.153  -1.163  0.00  0.00    -0.040 A 
ATOM     27  C   UNL     1       0.271  -2.749   0.069  0.00  0.00    +0.022 A 
ATOM     28  C   UNL     1       0.307  -1.965   1.226  0.00  0.00    +0.015 A 
ATOM     29  C   UNL     1       0.064  -0.610   1.143  0.00  0.00    -0.047 A 
ATOM     30  C   UNL     1       0.109   0.239   2.387  0.00  0.00    +0.044 C 
ATOM     31  C   UNL     1      -0.060  -2.990  -2.416  0.00  0.00    +0.044 C 
ENDBRANCH  21  27
ENDBRANCH  20  21
ENDBRANCH   1  20
TORSDOF 5
