REMARK  Name = ZINC01423069
REMARK  3 active torsions:
REMARK  status: ('A' for Active; 'I' for Inactive)
REMARK    1  A    between atoms: C_8  and  C_25
REMARK    2  A    between atoms: C_9  and  N_24
REMARK    3  A    between atoms: N_10  and  C_18
REMARK                            x       y       z     vdW  Elec       q    Type
REMARK                         _______ _______ _______ _____ _____    ______ ____
ROOT
ATOM      1  C   UNL     1      -0.522   1.778   2.717  0.00  0.00    +0.000 A 
ATOM      2  C   UNL     1       0.637   2.518   2.842  0.00  0.00    +0.002 A 
ATOM      3  C   UNL     1       0.784   3.758   2.241  0.00  0.00    +0.023 A 
ATOM      4  C   UNL     1      -0.294   4.239   1.496  0.00  0.00    +0.038 A 
ATOM      5  C   UNL     1      -1.463   3.478   1.377  0.00  0.00    -0.002 A 
ATOM      6  C   UNL     1      -1.601   2.243   1.973  0.00  0.00    +0.007 A 
ATOM      7  C   UNL     1      -2.401   4.277   0.525  0.00  0.00    +0.141 C 
ATOM      8  C   UNL     1      -3.646   4.627   1.283  0.00  0.00    +0.089 C 
ATOM      9  C   UNL     1      -4.822   3.997   1.021  0.00  0.00    +0.108 C 
ATOM     10  N   UNL     1      -4.884   3.029   0.045  0.00  0.00    -0.259 N 
ATOM     11  C   UNL     1      -3.923   2.956  -0.929  0.00  0.00    +0.025 C 
ATOM     12  C   UNL     1      -2.717   3.537  -0.749  0.00  0.00    +0.037 C 
ATOM     13  C   UNL     1      -1.724   3.468  -1.742  0.00  0.00    +0.162 C 
ATOM     14  O   UNL     1      -0.654   4.014  -1.554  0.00  0.00    -0.292 OA
ATOM     15  C   UNL     1      -1.961   2.731  -3.031  0.00  0.00    +0.080 C 
ATOM     16  C   UNL     1      -2.970   1.605  -2.783  0.00  0.00    +0.014 C 
ATOM     17  C   UNL     1      -4.247   2.217  -2.204  0.00  0.00    +0.052 C 
ATOM     18  C   UNL     1      -1.623   5.537   0.199  0.00  0.00    +0.238 C 
ATOM     19  O   UNL     1      -2.010   6.468  -0.474  0.00  0.00    -0.274 OA
ATOM     20  N   UNL     1      -0.420   5.427   0.800  0.00  0.00    -0.284 N 
ATOM     21  H   UNL     1       0.274   6.103   0.749  0.00  0.00    +0.155 HD
ENDROOT
BRANCH  10  22
ATOM     22  C   UNL     1      -5.940   2.110   0.046  0.00  0.00    +0.058 A 
ATOM     23  C   UNL     1      -7.121   2.389  -0.638  0.00  0.00    +0.027 A 
ATOM     24  C   UNL     1      -8.135   1.446  -0.612  0.00  0.00    +0.021 A 
ATOM     25  C   UNL     1      -7.949   0.273   0.096  0.00  0.00    +0.111 A 
ATOM     26  N   UNL     1      -6.820   0.041   0.738  0.00  0.00    -0.261 NA
ATOM     27  C   UNL     1      -5.828   0.909   0.734  0.00  0.00    +0.134 A 
ENDBRANCH  10  22
BRANCH   9  28
ATOM     28  N   UNL     1      -5.950   4.328   1.733  0.00  0.00    -0.345 N 
ATOM     29  H   UNL     1      -5.890   4.944   2.479  0.00  0.00    +0.144 HD
ATOM     30  H   UNL     1      -6.807   3.944   1.489  0.00  0.00    +0.144 HD
ENDBRANCH   9  28
BRANCH   8  31
ATOM     31  C   UNL     1      -3.596   5.637   2.296  0.00  0.00    +0.100 C 
ATOM     32  N   UNL     1      -3.556   6.439   3.100  0.00  0.00    -0.191 NA
ENDBRANCH   8  31
TORSDOF 3
