REMARK  Name = ZINC04631759
REMARK  6 active torsions:
REMARK  status: ('A' for Active; 'I' for Inactive)
REMARK    1  A    between atoms: C_1  and  C_2
REMARK    2  A    between atoms: C_8  and  C_22
REMARK    3  A    between atoms: C_10  and  C_18
REMARK    4  A    between atoms: C_10  and  C_20
REMARK    5  A    between atoms: C_11  and  N_17
REMARK    6  A    between atoms: C_12  and  C_15
REMARK                            x       y       z     vdW  Elec       q    Type
REMARK                         _______ _______ _______ _____ _____    ______ ____
ROOT
ATOM      1  C   UNL     1      -0.159   0.967  -0.530  0.00  0.00    +0.012 C 
ATOM      2  C   UNL     1      -0.111  -0.542  -0.281  0.00  0.00    +0.009 C 
ATOM      3  C   UNL     1      -1.537  -1.087  -0.119  0.00  0.00    +0.008 C 
ATOM      4  C   UNL     1      -2.203  -0.354   1.044  0.00  0.00    +0.009 C 
ATOM      5  C   UNL     1      -1.438  -0.534   2.335  0.00  0.00    +0.030 C 
ATOM      6  C   UNL     1      -2.056  -1.621   3.217  0.00  0.00    +0.066 C 
ATOM      7  C   UNL     1      -1.399  -1.571   4.597  0.00  0.00    +0.188 C 
ATOM      8  C   UNL     1       0.096  -1.581   4.498  0.00  0.00    +0.054 C 
ATOM      9  C   UNL     1       0.776  -1.234   3.377  0.00  0.00    +0.074 C 
ATOM     10  C   UNL     1       0.013  -0.866   2.158  0.00  0.00    -0.028 C 
ATOM     11  C   UNL     1       0.639  -0.826   0.994  0.00  0.00    -0.019 C 
ENDROOT
BRANCH   6  12
ATOM     12  C   UNL     1      -3.538  -1.379   3.352  0.00  0.00    -0.041 A 
ATOM     13  C   UNL     1      -4.423  -2.433   3.229  0.00  0.00    +0.004 A 
ATOM     14  C   UNL     1      -5.782  -2.212   3.352  0.00  0.00    +0.000 A 
ATOM     15  C   UNL     1      -6.255  -0.937   3.600  0.00  0.00    +0.000 A 
ATOM     16  C   UNL     1      -5.370   0.117   3.724  0.00  0.00    +0.000 A 
ATOM     17  C   UNL     1      -4.010  -0.105   3.604  0.00  0.00    +0.004 A 
ENDBRANCH   6  12
BRANCH   8  18
ATOM     18  N   UNL     1       0.814  -1.958   5.598  0.00  0.00    -0.358 N 
ATOM     19  H   UNL     1       0.355  -2.211   6.414  0.00  0.00    +0.142 HD
ATOM     20  H   UNL     1       1.784  -1.974   5.563  0.00  0.00    +0.142 HD
ENDBRANCH   8  18
BRANCH   9  21
ATOM     21  C   UNL     1       2.208  -1.246   3.366  0.00  0.00    +0.101 C 
ATOM     22  N   UNL     1       3.344  -1.255   3.357  0.00  0.00    -0.191 NA
ENDBRANCH   9  21
BRANCH   7  23
ATOM     23  C   UNL     1      -1.827  -0.344   5.289  0.00  0.00    +0.091 C 
ATOM     24  N   UNL     1      -2.158   0.603   5.823  0.00  0.00    -0.194 NA
ENDBRANCH   7  23
BRANCH   7  25
ATOM     25  C   UNL     1      -1.837  -2.739   5.380  0.00  0.00    +0.091 C 
ATOM     26  N   UNL     1      -2.174  -3.640   5.983  0.00  0.00    -0.194 NA
ENDBRANCH   7  25
TORSDOF 5
