REMARK  Name = ZINC64058122
REMARK  9 active torsions:
REMARK  status: ('A' for Active; 'I' for Inactive)
REMARK    1  A    between atoms: C_1  and  C_2
REMARK    2  A    between atoms: C_2  and  C_3
REMARK    3  A    between atoms: C_2  and  C_4
REMARK    4  A    between atoms: N_6  and  C_7
REMARK    5  A    between atoms: N_6  and  C_8
REMARK    6  A    between atoms: C_8  and  C_10
REMARK    7  A    between atoms: C_8  and  C_17
REMARK    8  A    between atoms: C_10  and  C_11
REMARK    9  A    between atoms: C_23  and  C_25
REMARK                            x       y       z     vdW  Elec       q    Type
REMARK                         _______ _______ _______ _____ _____    ______ ____
ROOT
ATOM      1  C   UNL     1      -0.693   1.717  -1.614  0.00  0.00    +0.013 C 
ATOM      2  C   UNL     1      -0.246   2.563  -2.808  0.00  0.00    +0.024 C 
ATOM      3  C   UNL     1       0.692   3.672  -2.321  0.00  0.00    +0.108 C 
ATOM      4  N   UNL     1       0.015   4.432  -1.262  0.00  0.00    -0.300 N 
ATOM      5  C   UNL     1      -0.534   3.704  -0.110  0.00  0.00    +0.108 C 
ATOM      6  C   UNL     1      -1.458   2.595  -0.622  0.00  0.00    +0.024 C 
ATOM      7  C   UNL     1      -0.100   5.773  -1.346  0.00  0.00    +0.242 C 
ATOM      8  O   UNL     1       0.357   6.362  -2.302  0.00  0.00    -0.273 OA
ENDROOT
BRANCH   7   9
ATOM      9  C   UNL     1      -0.797   6.539  -0.252  0.00  0.00    +0.190 C 
ATOM     10  C   UNL     1      -0.054   6.374   1.055  0.00  0.00    +0.016 C 
ATOM     11  C   UNL     1       0.331   7.616   1.426  0.00  0.00    -0.004 A 
ATOM     12  C   UNL     1       1.078   8.121   2.585  0.00  0.00    +0.010 A 
ATOM     13  C   UNL     1       1.315   9.449   2.684  0.00  0.00    +0.001 A 
ATOM     14  C   UNL     1       0.868  10.352   1.711  0.00  0.00    +0.002 A 
ATOM     15  C   UNL     1       0.176   9.964   0.619  0.00  0.00    +0.026 A 
ATOM     16  C   UNL     1      -0.131   8.591   0.413  0.00  0.00    +0.043 A 
ATOM     17  N   UNL     1      -0.778   7.975  -0.549  0.00  0.00    -0.370 N 
ATOM     18  H   UNL     1      -1.177   8.398  -1.325  0.00  0.00    +0.161 HD
ENDBRANCH   7   9
BRANCH   1  19
ATOM     19  C   UNL     1      -1.603   0.587  -2.102  0.00  0.00    +0.083 C 
BRANCH  19  22
ATOM     20  C   UNL     1      -1.238  -0.775  -0.115  0.00  0.00    +0.218 C 
ATOM     21  O   UNL     1      -0.044  -0.629  -0.267  0.00  0.00    -0.275 OA
ATOM     22  N   UNL     1      -2.104  -0.168  -0.950  0.00  0.00    -0.301 N 
ATOM     23  C   UNL     1      -3.545  -0.262  -0.707  0.00  0.00    +0.132 C 
BRANCH  20  25
ATOM     24  C   UNL     1      -2.141  -3.012   0.460  0.00  0.00    +0.017 C 
ATOM     25  C   UNL     1      -1.755  -1.637   1.008  0.00  0.00    +0.069 C 
ATOM     26  C   UNL     1      -0.664  -1.799   2.070  0.00  0.00    +0.017 C 
ENDBRANCH  20  25
ENDBRANCH  19  22
BRANCH  19  27
ATOM     27  C   UNL     1      -0.810  -0.347  -3.018  0.00  0.00    +0.058 C 
BRANCH  27  28
ATOM     28  C   UNL     1      -1.742  -1.359  -3.632  0.00  0.00    -0.046 A 
ATOM     29  C   UNL     1      -1.980  -2.559  -2.990  0.00  0.00    +0.004 A 
ATOM     30  C   UNL     1      -2.835  -3.487  -3.553  0.00  0.00    +0.000 A 
ATOM     31  C   UNL     1      -3.453  -3.215  -4.759  0.00  0.00    +0.000 A 
ATOM     32  C   UNL     1      -3.216  -2.014  -5.401  0.00  0.00    +0.000 A 
ATOM     33  C   UNL     1      -2.364  -1.084  -4.836  0.00  0.00    +0.004 A 
ENDBRANCH  27  28
ENDBRANCH  19  27
ENDBRANCH   1  19
TORSDOF 6
