REMARK  Name = ZINC66567613
REMARK  17 active torsions:
REMARK  status: ('A' for Active; 'I' for Inactive)
REMARK    1  A    between atoms: C_1  and  C_2
REMARK    2  A    between atoms: C_2  and  C_4
REMARK    3  A    between atoms: C_2  and  N_13
REMARK    4  A    between atoms: N_6  and  C_7
REMARK    5  A    between atoms: N_6  and  C_10
REMARK    6  A    between atoms: C_7  and  C_8
REMARK    7  A    between atoms: C_7  and  C_9
REMARK    8  A    between atoms: C_10  and  C_11
REMARK    9  A    between atoms: C_10  and  C_12
REMARK   10  A    between atoms: C_16  and  C_19
REMARK   11  A    between atoms: C_16  and  N_20
REMARK   12  A    between atoms: N_20  and  C_21
REMARK   13  A    between atoms: C_22  and  O_24
REMARK   14  A    between atoms: O_24  and  C_25
REMARK   15  A    between atoms: C_25  and  C_26
REMARK   16  A    between atoms: C_25  and  C_27
REMARK   17  A    between atoms: C_25  and  C_28
REMARK                            x       y       z     vdW  Elec       q    Type
REMARK                         _______ _______ _______ _____ _____    ______ ____
ROOT
ATOM      1  N   UNL     1       0.086   1.000  -1.033  0.00  0.00    +0.387 N 
ATOM      2  C   UNL     1      -0.524   1.377  -2.314  0.00  0.00    -0.076 C 
ATOM      3  C   UNL     1       0.466   1.115  -3.451  0.00  0.00    +0.007 C 
ATOM      4  C   UNL     1       0.826  -0.373  -3.474  0.00  0.00    +0.034 C 
ATOM      5  C   UNL     1       1.392  -0.772  -2.108  0.00  0.00    +0.007 C 
ATOM      6  C   UNL     1       0.369  -0.440  -1.021  0.00  0.00    -0.076 C 
ATOM      7  C   UNL     1       1.875  -0.630  -4.558  0.00  0.00    +0.032 C 
ATOM      8  H   UNL     1       0.947   1.512  -0.909  0.00  0.00    -0.081 HD
ENDROOT
BRANCH   4   9
ATOM      9  N   UNL     1      -0.375  -1.164  -3.756  0.00  0.00    -0.265 N 
ATOM     10  C   UNL     1      -0.708  -2.315  -2.914  0.00  0.00    +0.136 C 
ATOM     11  C   UNL     1      -1.173  -0.832  -4.790  0.00  0.00    +0.404 C 
ATOM     12  O   UNL     1      -0.896   0.124  -5.488  0.00  0.00    -0.226 OA
BRANCH  11  13
ATOM     13  O   UNL     1      -2.276  -1.558  -5.049  0.00  0.00    -0.445 OA
BRANCH  13  14
ATOM     14  C   UNL     1      -3.076  -1.149  -6.161  0.00  0.00    +0.107 C 
ATOM     15  C   UNL     1      -2.238  -1.204  -7.439  0.00  0.00    +0.055 C 
ATOM     16  C   UNL     1      -4.277  -2.087  -6.297  0.00  0.00    +0.055 C 
ATOM     17  C   UNL     1      -3.569   0.282  -5.935  0.00  0.00    +0.055 C 
ENDBRANCH  13  14
ENDBRANCH  11  13
ENDBRANCH   4   9
BRANCH   1  19
ATOM     18  C   UNL     1      -1.051   2.841   0.115  0.00  0.00    -0.004 C 
ATOM     19  C   UNL     1      -0.837   1.327   0.062  0.00  0.00    +0.016 C 
BRANCH  19  20
ATOM     20  C   UNL     1      -0.252   0.856   1.369  0.00  0.00    +0.202 C 
ATOM     21  O   UNL     1       0.868   1.194   1.689  0.00  0.00    -0.277 OA
ATOM     22  N   UNL     1      -0.974   0.059   2.182  0.00  0.00    -0.298 N 
BRANCH  22  23
ATOM     23  C   UNL     1      -2.341  -0.317   1.814  0.00  0.00    +0.070 C 
ATOM     24  C   UNL     1      -3.175   0.946   1.593  0.00  0.00    +0.028 C 
ATOM     25  C   UNL     1      -2.314  -1.142   0.526  0.00  0.00    +0.028 C 
ENDBRANCH  22  23
BRANCH  22  26
ATOM     26  C   UNL     1      -0.391  -0.431   3.433  0.00  0.00    +0.070 C 
ATOM     27  C   UNL     1      -1.294  -0.040   4.604  0.00  0.00    +0.028 C 
ATOM     28  C   UNL     1      -0.262  -1.954   3.374  0.00  0.00    +0.028 C 
ENDBRANCH  22  26
ENDBRANCH  19  20
ENDBRANCH   1  19
TORSDOF 7
