REMARK  Name = ZINC64053067
REMARK  9 active torsions:
REMARK  status: ('A' for Active; 'I' for Inactive)
REMARK    1  A    between atoms: C_1  and  C_2
REMARK    2  A    between atoms: C_4  and  C_12
REMARK    3  A    between atoms: C_12  and  C_14
REMARK    4  A    between atoms: C_14  and  S_15
REMARK    5  A    between atoms: S_15  and  C_16
REMARK    6  A    between atoms: C_19  and  C_21
REMARK    7  A    between atoms: C_21  and  C_22
REMARK    8  A    between atoms: C_25  and  O_28
REMARK    9  A    between atoms: O_28  and  C_29
REMARK                            x       y       z     vdW  Elec       q    Type
REMARK                         _______ _______ _______ _____ _____    ______ ____
ROOT
ATOM      1  S   UNL     1      -4.866  -0.500  -2.107  0.00  0.00    -0.058 S 
ENDROOT
BRANCH   1   2
ATOM      2  C   UNL     1      -6.396  -1.291  -1.734  0.00  0.00    +0.278 A 
ATOM      3  N   UNL     1      -6.654  -2.026  -0.678  0.00  0.00    -0.101 NA
ATOM      4  N   UNL     1      -7.870  -2.441  -0.736  0.00  0.00    -0.111 NA
ATOM      5  C   UNL     1      -8.433  -1.991  -1.819  0.00  0.00    +0.222 A 
ATOM      6  O   UNL     1      -7.519  -1.249  -2.475  0.00  0.00    -0.415 OA
BRANCH   5   7
ATOM      7  C   UNL     1      -9.851  -2.249  -2.259  0.00  0.00    +0.132 C 
BRANCH   7   8
ATOM      8  C   UNL     1     -10.752  -1.177  -1.704  0.00  0.00    -0.038 A 
ATOM      9  C   UNL     1     -11.344  -1.346  -0.466  0.00  0.00    +0.007 A 
ATOM     10  C   UNL     1     -12.171  -0.365   0.046  0.00  0.00    +0.046 A 
ATOM     11  C   UNL     1     -12.407   0.791  -0.684  0.00  0.00    +0.120 A 
ATOM     12  C   UNL     1     -11.812   0.959  -1.926  0.00  0.00    +0.046 A 
ATOM     13  C   UNL     1     -10.981  -0.023  -2.430  0.00  0.00    +0.007 A 
BRANCH  11  14
ATOM     14  O   UNL     1     -13.220   1.758  -0.183  0.00  0.00    -0.495 OA
ATOM     15  C   UNL     1     -13.418   2.921  -0.989  0.00  0.00    +0.277 C 
ENDBRANCH  11  14
ENDBRANCH   7   8
ENDBRANCH   5   7
ENDBRANCH   1   2
BRANCH   1  16
ATOM     16  C   UNL     1      -3.787  -0.953  -0.721  0.00  0.00    +0.158 C 
BRANCH  16  17
ATOM     17  C   UNL     1      -2.428  -0.333  -0.919  0.00  0.00    +0.172 C 
ATOM     18  O   UNL     1      -2.209   0.349  -1.899  0.00  0.00    -0.291 OA
BRANCH  17  21
ATOM     19  C   UNL     1      -0.019   1.526   0.010  0.00  0.00    +0.035 C 
ATOM     20  C   UNL     1       0.002  -0.004   0.002  0.00  0.00    +0.111 C 
ATOM     21  C   UNL     1      -1.411  -0.544   0.036  0.00  0.00    +0.027 C 
ATOM     22  C   UNL     1      -1.496  -1.289   1.198  0.00  0.00    +0.006 A 
ATOM     23  C   UNL     1      -2.543  -2.035   1.788  0.00  0.00    +0.010 A 
ATOM     24  C   UNL     1      -2.344  -2.680   2.960  0.00  0.00    +0.001 A 
ATOM     25  C   UNL     1      -1.116  -2.646   3.640  0.00  0.00    +0.002 A 
ATOM     26  C   UNL     1      -0.053  -1.963   3.162  0.00  0.00    +0.026 A 
ATOM     27  C   UNL     1      -0.185  -1.232   1.891  0.00  0.00    +0.043 A 
ATOM     28  N   UNL     1       0.660  -0.506   1.212  0.00  0.00    -0.377 N 
ATOM     29  H   UNL     1       1.578  -0.327   1.468  0.00  0.00    +0.160 HD
ENDBRANCH  17  21
ENDBRANCH  16  17
ENDBRANCH   1  16
TORSDOF 7
