REMARK  Name = ZINC57701477
REMARK  8 active torsions:
REMARK  status: ('A' for Active; 'I' for Inactive)
REMARK    1  A    between atoms: C_1  and  C_2
REMARK    2  A    between atoms: C_2  and  C_4
REMARK    3  A    between atoms: C_2  and  N_11
REMARK    4  A    between atoms: N_14  and  C_15
REMARK    5  A    between atoms: C_17  and  C_23
REMARK    6  A    between atoms: C_20  and  O_21
REMARK    7  A    between atoms: O_21  and  C_22
REMARK    8  A    between atoms: N_25  and  C_26
REMARK                            x       y       z     vdW  Elec       q    Type
REMARK                         _______ _______ _______ _____ _____    ______ ____
ROOT
ATOM      1  N   UNL     1       0.706  -0.505   1.185  0.00  0.00    -0.293 N 
ATOM      2  C   UNL     1       0.049  -0.639   2.354  0.00  0.00    +0.304 C 
ATOM      3  O   UNL     1      -1.133  -0.363   2.423  0.00  0.00    -0.252 OA
ATOM      4  N   UNL     1       0.703  -1.080   3.447  0.00  0.00    -0.266 N 
ATOM      5  H   UNL     1       1.649  -0.726   1.130  0.00  0.00    +0.151 HD
ATOM      6  H   UNL     1       1.629  -1.362   3.378  0.00  0.00    +0.156 HD
ENDROOT
BRANCH   4   7
ATOM      7  C   UNL     1       0.045  -1.131   4.684  0.00  0.00    +0.077 A 
ATOM      8  C   UNL     1      -1.301  -1.441   4.740  0.00  0.00    +0.040 A 
ATOM      9  C   UNL     1      -1.952  -1.490   5.975  0.00  0.00    +0.039 A 
ATOM     10  C   UNL     1      -1.241  -1.227   7.148  0.00  0.00    +0.017 A 
ATOM     11  C   UNL     1       0.101  -0.918   7.087  0.00  0.00    +0.048 A 
ATOM     12  C   UNL     1       0.751  -0.874   5.861  0.00  0.00    +0.141 A 
BRANCH   9  13
ATOM     13  C   UNL     1      -3.390  -1.820   6.040  0.00  0.00    +0.244 C 
ATOM     14  O   UNL     1      -4.008  -2.049   5.018  0.00  0.00    -0.270 OA
ATOM     15  N   UNL     1      -4.017  -1.868   7.232  0.00  0.00    -0.314 N 
ATOM     16  C   UNL     1      -5.443  -2.196   7.296  0.00  0.00    +0.128 C 
ATOM     17  H   UNL     1      -3.524  -1.686   8.047  0.00  0.00    +0.149 HD
ENDBRANCH   9  13
BRANCH  12  18
ATOM     18  O   UNL     1       2.074  -0.575   5.806  0.00  0.00    -0.493 OA
ATOM     19  C   UNL     1       2.734  -0.323   7.048  0.00  0.00    +0.277 C 
ENDBRANCH  12  18
ENDBRANCH   4   7
BRANCH   1  21
ATOM     20  C   UNL     1      -0.022   1.504  -0.006  0.00  0.00    +0.033 C 
ATOM     21  C   UNL     1      -0.005  -0.026  -0.003  0.00  0.00    +0.102 C 
BRANCH  21  22
ATOM     22  C   UNL     1       0.696  -0.523  -1.242  0.00  0.00    -0.026 A 
ATOM     23  C   UNL     1       2.077  -0.547  -1.292  0.00  0.00    +0.005 A 
ATOM     24  C   UNL     1       2.721  -1.002  -2.427  0.00  0.00    +0.002 A 
ATOM     25  C   UNL     1       1.983  -1.433  -3.514  0.00  0.00    +0.020 A 
ATOM     26  C   UNL     1       0.601  -1.409  -3.465  0.00  0.00    +0.041 A 
ATOM     27  C   UNL     1      -0.043  -0.959  -2.325  0.00  0.00    +0.025 A 
ATOM     28 CL   UNL     1      -0.326  -1.949  -4.830  0.00  0.00    -0.084 Cl
ENDBRANCH  21  22
ENDBRANCH   1  21
TORSDOF 5
