REMARK  Name = ZINC38608461
REMARK  9 active torsions:
REMARK  status: ('A' for Active; 'I' for Inactive)
REMARK    1  A    between atoms: C_1  and  C_2
REMARK    2  A    between atoms: C_5  and  C_8
REMARK    3  A    between atoms: C_8  and  N_9
REMARK    4  A    between atoms: C_13  and  C_14
REMARK    5  A    between atoms: C_17  and  N_20
REMARK    6  A    between atoms: N_20  and  C_21
REMARK    7  A    between atoms: N_20  and  C_22
REMARK    8  A    between atoms: C_23  and  C_29
REMARK    9  A    between atoms: C_24  and  C_27
REMARK                            x       y       z     vdW  Elec       q    Type
REMARK                         _______ _______ _______ _____ _____    ______ ____
ROOT
ATOM      1  N   UNL     1       1.555  -4.775   0.185  0.00  0.00    -0.229 N 
ATOM      2  C   UNL     1       2.136  -5.030  -1.001  0.00  0.00    +0.254 C 
ATOM      3  O   UNL     1       1.462  -5.429  -1.932  0.00  0.00    -0.270 OA
ATOM      4  C   UNL     1       3.583  -4.830  -1.177  0.00  0.00    +0.042 C 
ATOM      5  C   UNL     1       4.186  -5.093  -2.403  0.00  0.00    +0.021 C 
ATOM      6  C   UNL     1       4.352  -4.366  -0.085  0.00  0.00    -0.016 C 
ATOM      7  C   UNL     1       3.715  -4.115   1.120  0.00  0.00    +0.117 C 
ATOM      8  C   UNL     1       2.270  -4.329   1.233  0.00  0.00    +0.264 C 
ATOM      9  O   UNL     1       1.710  -4.103   2.289  0.00  0.00    -0.269 OA
ATOM     10  C   UNL     1       5.836  -4.149  -0.229  0.00  0.00    +0.046 C 
ENDROOT
BRANCH   5  11
ATOM     11  C   UNL     1       5.566  -5.401  -2.461  0.00  0.00    -0.024 A 
ATOM     12  C   UNL     1       6.109  -6.374  -1.604  0.00  0.00    +0.010 A 
ATOM     13  C   UNL     1       7.439  -6.666  -1.664  0.00  0.00    +0.023 A 
ATOM     14  C   UNL     1       8.262  -6.001  -2.574  0.00  0.00    +0.029 A 
ATOM     15  C   UNL     1       7.729  -5.034  -3.427  0.00  0.00    +0.023 A 
ATOM     16  C   UNL     1       6.399  -4.738  -3.380  0.00  0.00    +0.010 A 
BRANCH  14  17
ATOM     17  N   UNL     1       9.614  -6.302  -2.630  0.00  0.00    -0.336 N 
ATOM     18  C   UNL     1      10.177  -7.316  -1.735  0.00  0.00    +0.129 C 
ATOM     19  C   UNL     1      10.481  -5.605  -3.584  0.00  0.00    +0.129 C 
ENDBRANCH  14  17
ENDBRANCH   5  11
BRANCH   7  20
ATOM     20  C   UNL     1       4.464  -3.645   2.246  0.00  0.00    +0.105 C 
ATOM     21  N   UNL     1       5.058  -3.272   3.140  0.00  0.00    -0.191 NA
ENDBRANCH   7  20
BRANCH   1  22
ATOM     22  C   UNL     1       0.112  -4.981   0.337  0.00  0.00    +0.152 C 
BRANCH  22  27
ATOM     23  C   UNL     1      -2.687  -0.117  -1.038  0.00  0.00    +0.044 C 
ATOM     24  C   UNL     1      -1.957  -1.385  -0.679  0.00  0.00    -0.050 A 
ATOM     25  C   UNL     1      -1.689  -2.328  -1.655  0.00  0.00    +0.003 A 
ATOM     26  C   UNL     1      -1.020  -3.491  -1.326  0.00  0.00    +0.005 A 
ATOM     27  C   UNL     1      -0.617  -3.712  -0.022  0.00  0.00    -0.030 A 
ATOM     28  C   UNL     1      -0.884  -2.769   0.953  0.00  0.00    +0.005 A 
ATOM     29  C   UNL     1      -1.550  -1.604   0.624  0.00  0.00    +0.003 A 
ENDBRANCH  22  27
ENDBRANCH   1  22
TORSDOF 5
