REMARK  Name = ZINC40713436
REMARK  3 active torsions:
REMARK  status: ('A' for Active; 'I' for Inactive)
REMARK    1  A    between atoms: C_2  and  S_3
REMARK    2  A    between atoms: S_3  and  C_6
REMARK    3  A    between atoms: C_7  and  N_13
REMARK                            x       y       z     vdW  Elec       q    Type
REMARK                         _______ _______ _______ _____ _____    ______ ____
ROOT
ATOM      1  C   UNL     1       1.639  -1.862   1.432  0.00  0.00    +0.212 A 
ATOM      2  C   UNL     1       2.189  -1.336   2.586  0.00  0.00    +0.171 A 
ATOM      3  C   UNL     1       2.314  -2.144   3.705  0.00  0.00    +0.053 A 
ATOM      4  C   UNL     1       1.880  -3.460   3.620  0.00  0.00    +0.038 A 
ATOM      5  C   UNL     1       1.341  -3.916   2.432  0.00  0.00    +0.128 A 
ATOM      6  N   UNL     1       1.232  -3.115   1.389  0.00  0.00    -0.234 NA
ATOM      7 BR   UNL     1       2.025  -4.614   5.112  0.00  0.00    -0.049 Br
ENDROOT
BRANCH   1   8
ATOM      8  S   UNL     1       1.474  -0.844   0.004  0.00  0.00    +0.037 S 
ATOM      9  O   UNL     1       0.806   0.338   0.422  0.00  0.00    -0.163 OA
ATOM     10  O   UNL     1       0.972  -1.677  -1.033  0.00  0.00    -0.163 OA
BRANCH   8  12
ATOM     11  C   UNL     1       3.582  -0.752  -1.633  0.00  0.00    +0.029 C 
ATOM     12  C   UNL     1       3.098  -0.360  -0.481  0.00  0.00    +0.134 C 
ENDBRANCH   8  12
ENDBRANCH   1   8
BRANCH   2  13
ATOM     13  N   UNL     1       2.638   0.074   2.627  0.00  0.00    +0.060 N 
ATOM     14  O   UNL     1       3.175   0.509   3.619  0.00  0.00    -0.126 OA
ATOM     15  O   UNL     1       2.467   0.791   1.668  0.00  0.00    -0.126 OA
ENDBRANCH   2  13
TORSDOF 3
