REMARK  Name = ZINC61428875
REMARK  4 active torsions:
REMARK  status: ('A' for Active; 'I' for Inactive)
REMARK    1  A    between atoms: C_3  and  C_15
REMARK    2  A    between atoms: C_5  and  N_7
REMARK    3  A    between atoms: N_17  and  C_18
REMARK    4  A    between atoms: N_25  and  C_27
REMARK                            x       y       z     vdW  Elec       q    Type
REMARK                         _______ _______ _______ _____ _____    ______ ____
ROOT
ATOM      1  C   UNL     1       3.441   2.175  -1.005  0.00  0.00    +0.244 C 
ATOM      2  O   UNL     1       4.412   1.586  -1.439  0.00  0.00    -0.270 OA
ATOM      3  N   UNL     1       3.420   3.523  -0.995  0.00  0.00    -0.308 N 
ATOM      4  H   UNL     1       2.646   3.993  -0.649  0.00  0.00    +0.149 HD
ENDROOT
BRANCH   3   5
ATOM      5  C   UNL     1       4.564   4.275  -1.505  0.00  0.00    +0.076 C 
ATOM      6  C   UNL     1       5.610   4.473  -0.405  0.00  0.00    -0.007 C 
ATOM      7  C   UNL     1       4.977   5.179   0.788  0.00  0.00    +0.003 C 
ATOM      8  C   UNL     1       4.363   6.519   0.407  0.00  0.00    +0.001 C 
ATOM      9  C   UNL     1       3.479   6.433  -0.828  0.00  0.00    +0.003 C 
ATOM     10  C   UNL     1       4.125   5.665  -1.972  0.00  0.00    -0.007 C 
ATOM     11  C   UNL     1       5.332   6.405  -2.536  0.00  0.00    -0.073 C 
ATOM     12  N   UNL     1       6.427   6.518  -1.576  0.00  0.00    +0.382 N 
ATOM     13  C   UNL     1       6.796   5.249  -0.958  0.00  0.00    -0.073 C 
ATOM     14  H   UNL     1       6.204   7.203  -0.872  0.00  0.00    -0.081 HD
BRANCH  12  15
ATOM     15  C   UNL     1       7.603   7.033  -2.290  0.00  0.00    -0.069 C 
ATOM     16  C   UNL     1       8.318   8.246  -1.691  0.00  0.00    -0.017 C 
ATOM     17  C   UNL     1       7.478   8.403  -2.961  0.00  0.00    -0.017 C 
ENDBRANCH  12  15
ENDBRANCH   3   5
BRANCH   1  20
ATOM     18  C   UNL     1       0.088   1.376   0.491  0.00  0.00    +0.003 A 
ATOM     19  C   UNL     1       1.168   2.089   0.010  0.00  0.00    +0.013 A 
ATOM     20  C   UNL     1       2.283   1.414  -0.489  0.00  0.00    +0.039 A 
ATOM     21  C   UNL     1       2.302   0.019  -0.499  0.00  0.00    +0.041 A 
ATOM     22  C   UNL     1       1.213  -0.688  -0.013  0.00  0.00    +0.070 A 
ATOM     23  C   UNL     1       0.106  -0.006   0.481  0.00  0.00    +0.028 A 
BRANCH  22  24
ATOM     24  N   UNL     1       1.227  -2.086  -0.021  0.00  0.00    -0.193 N 
ATOM     25  C   UNL     1       2.295  -2.750   0.463  0.00  0.00    +0.272 A 
ATOM     26  O   UNL     1       3.251  -2.135   0.910  0.00  0.00    -0.266 OA
ATOM     27  C   UNL     1       2.301  -4.159   0.452  0.00  0.00    +0.077 A 
ATOM     28  C   UNL     1       1.225  -4.825  -0.050  0.00  0.00    +0.079 A 
ATOM     29  C   UNL     1       0.127  -4.101  -0.548  0.00  0.00    +0.287 A 
ATOM     30  O   UNL     1      -0.947  -4.766  -1.049  0.00  0.00    -0.264 OA
ATOM     31  N   UNL     1       0.129  -2.792  -0.528  0.00  0.00    -0.121 NA
ENDBRANCH  22  24
ENDBRANCH   1  20
TORSDOF 4
