REMARK  Name = ZINC45772301
REMARK  8 active torsions:
REMARK  status: ('A' for Active; 'I' for Inactive)
REMARK    1  A    between atoms: C_1  and  C_2
REMARK    2  A    between atoms: N_11  and  C_15
REMARK    3  A    between atoms: C_15  and  C_16
REMARK    4  A    between atoms: N_18  and  C_19
REMARK    5  A    between atoms: C_24  and  C_25
REMARK    6  A    between atoms: C_25  and  N_26
REMARK    7  A    between atoms: N_26  and  C_27
REMARK    8  A    between atoms: N_26  and  C_28
REMARK                            x       y       z     vdW  Elec       q    Type
REMARK                         _______ _______ _______ _____ _____    ______ ____
ROOT
ATOM      1  C   UNL     1       0.691   0.536   5.627  0.00  0.00    +0.235 C 
ATOM      2  O   UNL     1       0.533  -0.663   5.535  0.00  0.00    -0.274 OA
ATOM      3  N   UNL     1       1.182   1.065   6.765  0.00  0.00    -0.284 N 
ATOM      4  H   UNL     1       1.370   2.015   6.816  0.00  0.00    +0.155 HD
ENDROOT
BRANCH   3   5
ATOM      5  C   UNL     1       1.421   0.244   7.873  0.00  0.00    +0.035 A 
ATOM      6  C   UNL     1       1.858  -1.061   7.690  0.00  0.00    +0.023 A 
ATOM      7  C   UNL     1       2.093  -1.869   8.785  0.00  0.00    +0.002 A 
ATOM      8  C   UNL     1       1.892  -1.379  10.063  0.00  0.00    +0.000 A 
ATOM      9  C   UNL     1       1.455  -0.081  10.248  0.00  0.00    +0.003 A 
ATOM     10  C   UNL     1       1.226   0.735   9.157  0.00  0.00    -0.043 A 
BRANCH  10  11
ATOM     11  C   UNL     1       0.757   2.152   9.360  0.00  0.00    -0.041 C 
BRANCH  11  12
ATOM     12  N   UNL     1      -0.696   2.223   9.152  0.00  0.00    +0.382 N 
ATOM     13  C   UNL     1      -1.377   1.436  10.189  0.00  0.00    -0.095 C 
ATOM     14  H   UNL     1      -0.924   1.850   8.243  0.00  0.00    -0.081 HD
BRANCH  12  15
ATOM     15  C   UNL     1      -1.134   3.622   9.232  0.00  0.00    -0.069 C 
ATOM     16  C   UNL     1      -2.647   3.696   9.016  0.00  0.00    -0.015 C 
ATOM     17  C   UNL     1      -3.104   5.153   9.099  0.00  0.00    -0.002 C 
ATOM     18  C   UNL     1      -2.395   5.973   8.019  0.00  0.00    -0.000 C 
ATOM     19  C   UNL     1      -0.882   5.899   8.235  0.00  0.00    -0.002 C 
ATOM     20  C   UNL     1      -0.425   4.442   8.152  0.00  0.00    -0.015 C 
ENDBRANCH  12  15
ENDBRANCH  11  12
ENDBRANCH  10  11
ENDBRANCH   3   5
BRANCH   1  21
ATOM     21  C   UNL     1       0.339   1.433   4.469  0.00  0.00    +0.214 C 
BRANCH  21  31
ATOM     22  C   UNL     1      -1.825   1.561   0.602  0.00  0.00    +0.010 C 
ATOM     23  C   UNL     1      -2.368   0.155   0.863  0.00  0.00    +0.018 C 
ATOM     24  C   UNL     1      -3.817   0.249   1.347  0.00  0.00    +0.006 C 
ATOM     25  C   UNL     1      -4.353  -1.156   1.628  0.00  0.00    +0.000 C 
ATOM     26  C   UNL     1      -3.504  -1.819   2.715  0.00  0.00    +0.003 C 
ATOM     27  C   UNL     1      -2.054  -1.922   2.235  0.00  0.00    +0.035 C 
ATOM     28  C   UNL     1      -1.517  -0.529   1.927  0.00  0.00    +0.115 C 
ATOM     29  C   UNL     1      -1.470   0.309   3.184  0.00  0.00    +0.247 C 
ATOM     30  O   UNL     1      -2.405   0.632   3.886  0.00  0.00    -0.273 OA
ATOM     31  N   UNL     1      -0.170   0.623   3.360  0.00  0.00    -0.215 N 
ATOM     32  C   UNL     1       0.598   0.101   2.395  0.00  0.00    +0.310 C 
ATOM     33  O   UNL     1       1.803   0.246   2.338  0.00  0.00    -0.252 OA
ATOM     34  N   UNL     1      -0.115  -0.602   1.495  0.00  0.00    -0.285 N 
ATOM     35  H   UNL     1       0.229  -1.066   0.716  0.00  0.00    +0.151 HD
ENDBRANCH  21  31
ENDBRANCH   1  21
TORSDOF 6
