REMARK  Name = ZINC42623900
REMARK  4 active torsions:
REMARK  status: ('A' for Active; 'I' for Inactive)
REMARK    1  A    between atoms: C_1  and  C_2
REMARK    2  A    between atoms: N_8  and  S_9
REMARK    3  A    between atoms: S_9  and  C_12
REMARK    4  A    between atoms: N_20  and  C_23
REMARK                            x       y       z     vdW  Elec       q    Type
REMARK                         _______ _______ _______ _____ _____    ______ ____
ROOT
ATOM      1  C   UNL     1       0.280   0.575   3.600  0.00  0.00    +0.106 A 
ATOM      2  C   UNL     1      -0.769   1.475   3.605  0.00  0.00    +0.029 A 
ATOM      3  C   UNL     1      -1.670   1.498   4.658  0.00  0.00    +0.016 A 
ATOM      4  C   UNL     1      -1.517   0.613   5.713  0.00  0.00    +0.050 A 
ATOM      5  C   UNL     1      -0.447  -0.305   5.708  0.00  0.00    +0.051 A 
ATOM      6  C   UNL     1       0.443  -0.321   4.646  0.00  0.00    +0.042 A 
ATOM      7  C   UNL     1      -0.577  -1.084   6.958  0.00  0.00    +0.254 C 
ATOM      8  O   UNL     1       0.164  -1.977   7.316  0.00  0.00    -0.270 OA
ATOM      9  N   UNL     1      -1.652  -0.638   7.631  0.00  0.00    -0.237 N 
ATOM     10  C   UNL     1      -2.260   0.360   6.965  0.00  0.00    +0.254 C 
ATOM     11  O   UNL     1      -3.254   0.955   7.332  0.00  0.00    -0.270 OA
ATOM     12  C   UNL     1      -2.103  -1.170   8.920  0.00  0.00    +0.142 C 
ENDROOT
BRANCH   1  13
ATOM     13  S   UNL     1       1.415   0.561   2.252  0.00  0.00    +0.061 S 
ATOM     14  O   UNL     1       2.621  -0.009   2.743  0.00  0.00    -0.153 OA
ATOM     15  O   UNL     1       1.367   1.855   1.668  0.00  0.00    -0.153 OA
BRANCH  13  22
ATOM     16  C   UNL     1      -0.400   1.458   0.274  0.00  0.00    +0.026 C 
ATOM     17  C   UNL     1      -0.188  -0.051   0.146  0.00  0.00    +0.077 C 
ATOM     18  C   UNL     1       0.311  -0.382  -1.264  0.00  0.00    +0.020 C 
ATOM     19  C   UNL     1       0.654  -1.871  -1.344  0.00  0.00    +0.003 C 
ATOM     20  C   UNL     1       1.771  -2.193  -0.349  0.00  0.00    +0.017 C 
ATOM     21  C   UNL     1       1.290  -1.883   1.072  0.00  0.00    +0.110 C 
ATOM     22  N   UNL     1       0.819  -0.492   1.122  0.00  0.00    -0.174 NA
ENDBRANCH  13  22
ENDBRANCH   1  13
TORSDOF 2
