REMARK  Name = ZINC06327625
REMARK  9 active torsions:
REMARK  status: ('A' for Active; 'I' for Inactive)
REMARK    1  A    between atoms: C_1  and  C_2
REMARK    2  A    between atoms: C_2  and  O_3
REMARK    3  A    between atoms: O_3  and  C_4
REMARK    4  A    between atoms: C_4  and  C_6
REMARK    5  A    between atoms: C_10  and  N_23
REMARK    6  A    between atoms: N_14  and  C_16
REMARK    7  A    between atoms: C_19  and  C_22
REMARK    8  A    between atoms: C_24  and  C_26
REMARK    9  A    between atoms: C_27  and  C_28
REMARK                            x       y       z     vdW  Elec       q    Type
REMARK                         _______ _______ _______ _____ _____    ______ ____
ROOT
ATOM      1  C   UNL     1       1.253   3.595  -0.349  0.00  0.00    +0.177 A 
ATOM      2  C   UNL     1       2.551   4.246  -0.009  0.00  0.00    +0.030 A 
ATOM      3  C   UNL     1       3.784   3.651   0.003  0.00  0.00    +0.058 A 
ATOM      4  S   UNL     1       4.884   4.961   0.486  0.00  0.00    -0.080 S 
ATOM      5  C   UNL     1       3.750   6.252   0.654  0.00  0.00    +0.085 A 
ATOM      6  C   UNL     1       2.519   5.668   0.345  0.00  0.00    +0.079 A 
ATOM      7  C   UNL     1       1.242   6.318   0.348  0.00  0.00    +0.282 A 
ATOM      8  O   UNL     1       1.166   7.498   0.640  0.00  0.00    -0.265 OA
ATOM      9  N   UNL     1       0.131   5.639   0.031  0.00  0.00    -0.195 N 
ATOM     10  N   UNL     1       0.149   4.290  -0.313  0.00  0.00    -0.156 NA
ENDROOT
BRANCH   9  11
ATOM     11  C   UNL     1      -1.095   6.313   0.047  0.00  0.00    +0.069 A 
ATOM     12  C   UNL     1      -1.452   7.083   1.147  0.00  0.00    +0.028 A 
ATOM     13  C   UNL     1      -2.661   7.750   1.157  0.00  0.00    +0.005 A 
ATOM     14  C   UNL     1      -3.520   7.644   0.078  0.00  0.00    -0.050 A 
ATOM     15  C   UNL     1      -3.170   6.874  -1.016  0.00  0.00    +0.005 A 
ATOM     16  C   UNL     1      -1.961   6.208  -1.035  0.00  0.00    +0.028 A 
ATOM     17  C   UNL     1      -4.841   8.369   0.096  0.00  0.00    +0.044 C 
ENDBRANCH   9  11
BRANCH   5  18
ATOM     18  N   UNL     1       4.002   7.565   1.023  0.00  0.00    -0.276 N 
ATOM     19  C   UNL     1       5.263   7.960   1.287  0.00  0.00    +0.241 C 
ATOM     20  O   UNL     1       6.180   7.166   1.202  0.00  0.00    -0.270 OA
ATOM     21  H   UNL     1       3.271   8.198   1.091  0.00  0.00    +0.156 HD
BRANCH  19  22
ATOM     22  C   UNL     1       5.530   9.352   1.679  0.00  0.00    +0.063 C 
ATOM     23  C   UNL     1       6.774   9.743   1.940  0.00  0.00    -0.025 C 
ATOM     24  C   UNL     1       7.911   8.759   1.834  0.00  0.00    +0.035 C 
ENDBRANCH  19  22
ENDBRANCH   5  18
BRANCH   1  25
ATOM     25  C   UNL     1       1.216   2.169  -0.720  0.00  0.00    +0.360 C 
ATOM     26  O   UNL     1       2.245   1.523  -0.753  0.00  0.00    -0.243 OA
BRANCH  25  27
ATOM     27  O   UNL     1       0.042   1.580  -1.021  0.00  0.00    -0.460 OA
BRANCH  27  29
ATOM     28  C   UNL     1      -1.335  -0.316  -1.684  0.00  0.00    +0.048 C 
ATOM     29  C   UNL     1       0.082   0.173  -1.377  0.00  0.00    +0.229 C 
ENDBRANCH  27  29
ENDBRANCH  25  27
ENDBRANCH   1  25
TORSDOF 6
