REMARK  Name = ZINC22609317
REMARK  6 active torsions:
REMARK  status: ('A' for Active; 'I' for Inactive)
REMARK    1  A    between atoms: C_1  and  O_2
REMARK    2  A    between atoms: O_2  and  C_3
REMARK    3  A    between atoms: C_8  and  O_9
REMARK    4  A    between atoms: O_9  and  C_10
REMARK    5  A    between atoms: N_12  and  C_15
REMARK    6  A    between atoms: N_20  and  C_23
REMARK                            x       y       z     vdW  Elec       q    Type
REMARK                         _______ _______ _______ _____ _____    ______ ____
ROOT
ATOM      1  C   UNL     1       6.307  10.193   4.446  0.00  0.00    +0.162 A 
ATOM      2  C   UNL     1       5.033  10.103   3.914  0.00  0.00    +0.053 A 
ATOM      3  C   UNL     1       4.765   9.219   2.880  0.00  0.00    -0.044 A 
ATOM      4  C   UNL     1       5.772   8.425   2.374  0.00  0.00    -0.057 A 
ATOM      5  C   UNL     1       7.051   8.511   2.905  0.00  0.00    +0.051 A 
ATOM      6  C   UNL     1       7.324   9.390   3.938  0.00  0.00    +0.162 A 
ATOM      7  C   UNL     1       5.531   7.459   1.243  0.00  0.00    -0.042 C 
ATOM      8  N   UNL     1       4.096   7.198   1.089  0.00  0.00    +0.391 N 
ATOM      9  C   UNL     1       3.358   8.466   0.972  0.00  0.00    -0.073 C 
ATOM     10  C   UNL     1       3.360   9.156   2.337  0.00  0.00    +0.017 C 
ATOM     11  H   UNL     1       3.743   6.668   1.986  0.00  0.00    -0.080 HD
ENDROOT
BRANCH   8  12
ATOM     12  C   UNL     1       3.841   6.332  -0.070  0.00  0.00    +0.029 C 
ATOM     13  C   UNL     1       4.630   5.013   0.051  0.00  0.00    +0.091 C 
ATOM     14  C   UNL     1       3.548   3.955   0.092  0.00  0.00    +0.225 C 
ATOM     15  O   UNL     1       3.737   2.761   0.189  0.00  0.00    -0.275 OA
ATOM     16  N   UNL     1       2.350   4.546   0.003  0.00  0.00    -0.212 N 
ATOM     17  C   UNL     1       2.396   5.881  -0.089  0.00  0.00    +0.213 C 
ATOM     18  O   UNL     1       1.433   6.612  -0.174  0.00  0.00    -0.277 OA
BRANCH  16  19
ATOM     19  C   UNL     1       1.146   3.827   0.011  0.00  0.00    +0.045 A 
ATOM     20  C   UNL     1       0.273   3.945   1.084  0.00  0.00    +0.027 A 
ATOM     21  C   UNL     1      -0.912   3.237   1.091  0.00  0.00    +0.041 A 
ATOM     22  C   UNL     1      -1.233   2.412   0.026  0.00  0.00    +0.142 A 
ATOM     23  C   UNL     1      -0.361   2.288  -1.044  0.00  0.00    +0.078 A 
ATOM     24  C   UNL     1       0.827   2.996  -1.053  0.00  0.00    +0.046 A 
ATOM     25 CL   UNL     1      -0.762   1.248  -2.375  0.00  0.00    -0.081 Cl
ATOM     26  F   UNL     1      -2.396   1.724   0.032  0.00  0.00    -0.204 F 
ENDBRANCH  16  19
ENDBRANCH   8  12
BRANCH   1  28
ATOM     27  C   UNL     1       5.471  11.852   5.931  0.00  0.00    +0.277 C 
ATOM     28  O   UNL     1       6.565  11.061   5.460  0.00  0.00    -0.491 OA
ENDBRANCH   1  28
BRANCH   6  29
ATOM     29  O   UNL     1       8.579   9.469   4.454  0.00  0.00    -0.491 OA
ATOM     30  C   UNL     1       9.571   8.614   3.882  0.00  0.00    +0.277 C 
ENDBRANCH   6  29
TORSDOF 4
