REMARK  Name = ZINC00345149
REMARK  3 active torsions:
REMARK  status: ('A' for Active; 'I' for Inactive)
REMARK    1  A    between atoms: C_4  and  O_7
REMARK    2  A    between atoms: O_7  and  C_8
REMARK    3  A    between atoms: C_11  and  C_14
REMARK                            x       y       z     vdW  Elec       q    Type
REMARK                         _______ _______ _______ _____ _____    ______ ____
ROOT
ATOM      1  C   UNL     1      -1.318   5.732   0.076  0.00  0.00    +0.128 A 
ATOM      2  C   UNL     1      -2.425   4.899   0.149  0.00  0.00    +0.047 A 
ATOM      3  C   UNL     1      -3.694   5.442   0.204  0.00  0.00    +0.012 A 
ATOM      4  C   UNL     1      -3.862   6.814   0.174  0.00  0.00    +0.011 A 
ATOM      5  C   UNL     1      -2.761   7.647   0.096  0.00  0.00    +0.012 A 
ATOM      6  C   UNL     1      -1.490   7.109   0.047  0.00  0.00    +0.047 A 
ENDROOT
BRANCH   4   7
ATOM      7  C   UNL     1      -5.248   7.404   0.228  0.00  0.00    +0.294 C 
ATOM      8  N   UNL     1      -6.114   6.527   1.018  0.00  0.00    -0.273 N 
ATOM      9  C   UNL     1      -7.449   6.515   0.799  0.00  0.00    +0.250 C 
ATOM     10  O   UNL     1      -8.192   5.837   1.482  0.00  0.00    -0.270 OA
ATOM     11  C   UNL     1      -7.973   7.352  -0.299  0.00  0.00    +0.078 A 
ATOM     12  C   UNL     1      -9.328   7.646  -0.415  0.00  0.00    +0.017 A 
ATOM     13  C   UNL     1      -9.766   8.434  -1.460  0.00  0.00    +0.001 A 
ATOM     14  C   UNL     1      -8.865   8.929  -2.388  0.00  0.00    +0.004 A 
ATOM     15  C   UNL     1      -7.517   8.643  -2.283  0.00  0.00    +0.046 A 
ATOM     16  C   UNL     1      -7.061   7.854  -1.241  0.00  0.00    +0.136 A 
ATOM     17  O   UNL     1      -5.748   7.550  -1.101  0.00  0.00    -0.466 OA
ATOM     18  H   UNL     1      -5.729   5.954   1.700  0.00  0.00    +0.153 HD
ENDBRANCH   4   7
BRANCH   1  19
ATOM     19  O   UNL     1      -0.069   5.201   0.028  0.00  0.00    -0.456 OA
BRANCH  19  23
ATOM     20  C   UNL     1       1.895   4.543   3.596  0.00  0.00    +0.000 A 
ATOM     21  C   UNL     1       0.616   5.066   3.599  0.00  0.00    +0.004 A 
ATOM     22  C   UNL     1      -0.042   5.293   2.405  0.00  0.00    +0.046 A 
ATOM     23  C   UNL     1       0.579   4.984   1.203  0.00  0.00    +0.128 A 
ATOM     24  C   UNL     1       1.861   4.454   1.203  0.00  0.00    +0.046 A 
ATOM     25  C   UNL     1       2.516   4.235   2.399  0.00  0.00    +0.004 A 
ENDBRANCH  19  23
ENDBRANCH   1  19
TORSDOF 3
