REMARK  Name = ZINC39505353
REMARK  4 active torsions:
REMARK  status: ('A' for Active; 'I' for Inactive)
REMARK    1  A    between atoms: C_1  and  O_2
REMARK    2  A    between atoms: O_2  and  C_3
REMARK    3  A    between atoms: C_10  and  C_15
REMARK    4  A    between atoms: C_20  and  O_21
REMARK                            x       y       z     vdW  Elec       q    Type
REMARK                         _______ _______ _______ _____ _____    ______ ____
ROOT
ATOM      1  C   UNL     1       0.673  -0.582   1.123  0.00  0.00    +0.120 C 
ATOM      2  C   UNL     1      -0.336  -0.898   2.256  0.00  0.00    +0.033 C 
ATOM      3  C   UNL     1       0.383  -2.014   3.056  0.00  0.00    +0.027 C 
ATOM      4  C   UNL     1       1.079  -2.858   1.976  0.00  0.00    +0.055 C 
ATOM      5  C   UNL     1       1.267  -1.957   0.747  0.00  0.00    +0.056 C 
ATOM      6  C   UNL     1       0.214  -4.078   1.619  0.00  0.00    +0.034 C 
ATOM      7  C   UNL     1       1.268  -5.195   1.392  0.00  0.00    +0.041 C 
ATOM      8  C   UNL     1       2.343  -4.832   2.447  0.00  0.00    +0.129 C 
ATOM      9  N   UNL     1       2.374  -3.352   2.461  0.00  0.00    -0.139 NA
ATOM     10  F   UNL     1       2.627  -2.903   3.655  0.00  0.00    -0.132 F 
ENDROOT
BRANCH   7  11
ATOM     11  C   UNL     1       0.679  -6.555   1.667  0.00  0.00    -0.002 A 
ATOM     12  C   UNL     1       0.171  -6.850   2.917  0.00  0.00    +0.007 A 
ATOM     13  C   UNL     1      -0.368  -8.097   3.170  0.00  0.00    +0.001 A 
ATOM     14  C   UNL     1      -0.401  -9.054   2.171  0.00  0.00    +0.004 A 
ATOM     15  C   UNL     1       0.105  -8.764   0.919  0.00  0.00    +0.046 A 
ATOM     16  C   UNL     1       0.642  -7.511   0.662  0.00  0.00    +0.120 A 
BRANCH  16  17
ATOM     17  O   UNL     1       1.136  -7.222  -0.571  0.00  0.00    -0.506 OA
ATOM     18  H   UNL     1       2.074  -7.432  -0.678  0.00  0.00    +0.292 HD
ENDBRANCH  16  17
ENDBRANCH   7  11
BRANCH   1  20
ATOM     19  C   UNL     1      -0.017   1.425   0.010  0.00  0.00    +0.194 C 
ATOM     20  O   UNL     1       0.002  -0.004   0.002  0.00  0.00    -0.380 OA
ENDBRANCH   1  20
TORSDOF 3
