REMARK  Name = ZINC47831025
REMARK  4 active torsions:
REMARK  status: ('A' for Active; 'I' for Inactive)
REMARK    1  A    between atoms: C_3  and  N_18
REMARK    2  A    between atoms: C_5  and  O_7
REMARK    3  A    between atoms: O_7  and  C_8
REMARK    4  A    between atoms: C_8  and  C_10
REMARK                            x       y       z     vdW  Elec       q    Type
REMARK                         _______ _______ _______ _____ _____    ______ ____
ROOT
ATOM      1  O   UNL     1       1.235  -2.039  -0.022  0.00  0.00    -0.422 OA
ENDROOT
BRANCH   1   6
ATOM      2  C   UNL     1       1.492   1.420  -1.119  0.00  0.00    +0.006 A 
ATOM      3  C   UNL     1       1.177   2.085   0.051  0.00  0.00    +0.033 A 
ATOM      4  C   UNL     1       0.880   1.371   1.197  0.00  0.00    +0.130 A 
ATOM      5  C   UNL     1       0.899  -0.011   1.175  0.00  0.00    +0.079 A 
ATOM      6  C   UNL     1       1.215  -0.680   0.002  0.00  0.00    +0.134 A 
ATOM      7  C   UNL     1       1.512   0.039  -1.147  0.00  0.00    +0.046 A 
BRANCH   4   8
ATOM      8  N   UNL     1       0.543   2.086   2.448  0.00  0.00    +0.057 N 
ATOM      9  O   UNL     1       0.527   3.295   2.468  0.00  0.00    -0.126 OA
ATOM     10  O   UNL     1       0.284   1.462   3.450  0.00  0.00    -0.126 OA
ENDBRANCH   4   8
ENDBRANCH   1   6
BRANCH   1  11
ATOM     11  C   UNL     1       0.061  -2.691   0.089  0.00  0.00    +0.346 C 
ATOM     12  O   UNL     1      -0.982  -2.067   0.102  0.00  0.00    -0.244 OA
BRANCH  11  13
ATOM     13  C   UNL     1       0.041  -4.162   0.197  0.00  0.00    +0.073 A 
ATOM     14  C   UNL     1       1.238  -4.882   0.188  0.00  0.00    +0.019 A 
ATOM     15  C   UNL     1       1.214  -6.256   0.288  0.00  0.00    +0.039 A 
ATOM     16  C   UNL     1       0.004  -6.925   0.397  0.00  0.00    +0.124 A 
ATOM     17  C   UNL     1      -1.188  -6.217   0.406  0.00  0.00    +0.054 A 
ATOM     18  C   UNL     1      -1.176  -4.841   0.312  0.00  0.00    +0.035 A 
ATOM     19 BR   UNL     1      -2.802  -3.875   0.332  0.00  0.00    -0.049 Br
ATOM     20  F   UNL     1      -0.014  -8.273   0.495  0.00  0.00    -0.205 F 
ENDBRANCH  11  13
ENDBRANCH   1  11
TORSDOF 4
