REMARK  Name = ZINC32426218
REMARK  7 active torsions:
REMARK  status: ('A' for Active; 'I' for Inactive)
REMARK    1  A    between atoms: C_1  and  C_2
REMARK    2  A    between atoms: C_4  and  C_32
REMARK    3  A    between atoms: C_9  and  C_10
REMARK    4  A    between atoms: C_10  and  N_11
REMARK    5  A    between atoms: C_12  and  C_14
REMARK    6  A    between atoms: N_16  and  C_26
REMARK    7  A    between atoms: C_17  and  C_20
REMARK                            x       y       z     vdW  Elec       q    Type
REMARK                         _______ _______ _______ _____ _____    ______ ____
ROOT
ATOM      1  C   UNL     1      -2.963   0.874   4.661  0.00  0.00    +0.123 C 
ATOM      2  N   UNL     1      -4.014   0.412   4.065  0.00  0.00    -0.179 NA
ATOM      3  N   UNL     1      -5.205   0.650   4.749  0.00  0.00    -0.216 N 
ATOM      4  C   UNL     1      -4.903   1.381   5.990  0.00  0.00    +0.134 C 
ATOM      5  C   UNL     1      -3.370   1.541   5.955  0.00  0.00    +0.091 C 
ENDROOT
BRANCH   4   6
ATOM      6  C   UNL     1      -5.323   0.578   7.194  0.00  0.00    -0.025 A 
ATOM      7  C   UNL     1      -5.138  -0.792   7.209  0.00  0.00    +0.005 A 
ATOM      8  C   UNL     1      -5.523  -1.529   8.313  0.00  0.00    +0.000 A 
ATOM      9  C   UNL     1      -6.092  -0.896   9.402  0.00  0.00    +0.000 A 
ATOM     10  C   UNL     1      -6.276   0.473   9.388  0.00  0.00    +0.000 A 
ATOM     11  C   UNL     1      -5.887   1.211   8.285  0.00  0.00    +0.005 A 
ENDBRANCH   4   6
BRANCH   3  12
ATOM     12  C   UNL     1      -6.476   0.258   4.327  0.00  0.00    +0.052 A 
ATOM     13  C   UNL     1      -7.591   0.562   5.099  0.00  0.00    +0.025 A 
ATOM     14  C   UNL     1      -8.847   0.173   4.678  0.00  0.00    +0.002 A 
ATOM     15  C   UNL     1      -8.997  -0.518   3.489  0.00  0.00    +0.000 A 
ATOM     16  C   UNL     1      -7.889  -0.822   2.718  0.00  0.00    +0.002 A 
ATOM     17  C   UNL     1      -6.631  -0.431   3.130  0.00  0.00    +0.025 A 
ENDBRANCH   3  12
BRANCH   1  19
ATOM     18  N   UNL     1      -1.348   0.142   2.992  0.00  0.00    -0.306 N 
ATOM     19  C   UNL     1      -1.592   0.762   4.163  0.00  0.00    +0.260 C 
ATOM     20  O   UNL     1      -0.670   1.228   4.808  0.00  0.00    -0.269 OA
ATOM     21  H   UNL     1      -2.083  -0.230   2.478  0.00  0.00    +0.149 HD
BRANCH  18  22
ATOM     22  C   UNL     1       0.025   0.030   2.493  0.00  0.00    +0.145 C 
BRANCH  22  31
ATOM     23  C   UNL     1      -0.018   1.503   0.010  0.00  0.00    +0.044 C 
ATOM     24  C   UNL     1       0.002  -0.004   0.002  0.00  0.00    -0.039 A 
ATOM     25  C   UNL     1       0.006  -0.706  -1.212  0.00  0.00    +0.024 A 
ATOM     26  C   UNL     1       0.025  -2.059  -1.209  0.00  0.00    +0.016 A 
ATOM     27  N   UNL     1       0.040  -2.750  -0.040  0.00  0.00    -0.326 N 
ATOM     28  H   UNL     1       0.054  -3.720  -0.057  0.00  0.00    +0.169 HD
ATOM     29  C   UNL     1       0.037  -2.105   1.141  0.00  0.00    +0.254 A 
ATOM     30  O   UNL     1       0.051  -2.740   2.183  0.00  0.00    -0.268 OA
ATOM     31  C   UNL     1       0.023  -0.700   1.175  0.00  0.00    +0.037 A 
ATOM     32  C   UNL     1       0.029  -2.807  -2.517  0.00  0.00    +0.063 C 
ENDBRANCH  22  31
ENDBRANCH  18  22
ENDBRANCH   1  19
TORSDOF 5
