REMARK  Name = ZINC11422771
REMARK  8 active torsions:
REMARK  status: ('A' for Active; 'I' for Inactive)
REMARK    1  A    between atoms: C_1  and  C_2
REMARK    2  A    between atoms: C_2  and  C_25
REMARK    3  A    between atoms: C_4  and  N_9
REMARK    4  A    between atoms: C_6  and  C_7
REMARK    5  A    between atoms: C_6  and  C_8
REMARK    6  A    between atoms: C_10  and  C_12
REMARK    7  A    between atoms: C_12  and  C_13
REMARK    8  A    between atoms: C_13  and  N_14
REMARK                            x       y       z     vdW  Elec       q    Type
REMARK                         _______ _______ _______ _____ _____    ______ ____
ROOT
ATOM      1  N   UNL     1      -2.538   8.997  -2.534  0.00  0.00    -0.313 N 
ATOM      2  C   UNL     1      -2.082   8.484  -1.374  0.00  0.00    +0.215 C 
ATOM      3  O   UNL     1      -2.473   8.933  -0.317  0.00  0.00    -0.276 OA
ATOM      4  H   UNL     1      -2.225   8.638  -3.379  0.00  0.00    +0.149 HD
ENDROOT
BRANCH   1   8
ATOM      5  C   UNL     1      -3.926  13.158  -2.921  0.00  0.00    -0.010 C 
ATOM      6  C   UNL     1      -4.407  12.031  -3.843  0.00  0.00    -0.072 C 
ATOM      7  C   UNL     1      -3.394  10.889  -3.823  0.00  0.00    +0.009 C 
ATOM      8  C   UNL     1      -3.507  10.100  -2.518  0.00  0.00    +0.070 C 
ATOM      9  C   UNL     1      -4.920   9.526  -2.419  0.00  0.00    +0.009 C 
ATOM     10  C   UNL     1      -5.953  10.651  -2.424  0.00  0.00    -0.072 C 
ATOM     11  C   UNL     1      -5.960  11.346  -1.057  0.00  0.00    -0.010 C 
ATOM     12  C   UNL     1      -7.343  10.005  -2.616  0.00  0.00    -0.010 C 
ATOM     13  C   UNL     1      -4.440  12.598  -5.279  0.00  0.00    -0.010 C 
ATOM     14  N   UNL     1      -5.806  11.632  -3.533  0.00  0.00    +0.386 N 
ATOM     15  H   UNL     1      -6.214  11.219  -4.379  0.00  0.00    -0.084 HD
ATOM     16  H   UNL     1      -6.329  12.479  -3.279  0.00  0.00    -0.084 HD
ENDBRANCH   1   8
BRANCH   2  17
ATOM     17  C   UNL     1      -1.087   7.353  -1.390  0.00  0.00    +0.117 C 
BRANCH  17  18
ATOM     18  C   UNL     1      -0.737   6.961   0.047  0.00  0.00    +0.138 C 
BRANCH  18  19
ATOM     19  N   UNL     1       0.231   5.861   0.031  0.00  0.00    -0.274 N 
ATOM     20  C   UNL     1      -0.069   4.498   0.027  0.00  0.00    +0.090 A 
ATOM     21  C   UNL     1      -1.258   3.786   0.034  0.00  0.00    +0.031 A 
ATOM     22  C   UNL     1      -1.232   2.405   0.021  0.00  0.00    +0.022 A 
ATOM     23  C   UNL     1      -0.021   1.732   0.012  0.00  0.00    +0.045 A 
ATOM     24  C   UNL     1       1.168   2.436   0.004  0.00  0.00    +0.068 A 
ATOM     25  C   UNL     1       1.150   3.822   0.012  0.00  0.00    +0.158 A 
ATOM     26  O   UNL     1       2.130   4.759   0.007  0.00  0.00    -0.407 OA
ATOM     27  C   UNL     1       1.573   5.980   0.019  0.00  0.00    +0.421 A 
ATOM     28  O   UNL     1       2.185   7.031   0.020  0.00  0.00    -0.223 OA
ATOM     29 CL   UNL     1       0.002  -0.004   0.002  0.00  0.00    -0.083 Cl
ENDBRANCH  18  19
ENDBRANCH  17  18
ENDBRANCH   2  17
TORSDOF 4
