REMARK  Name = ZINC63553334
REMARK  7 active torsions:
REMARK  status: ('A' for Active; 'I' for Inactive)
REMARK    1  A    between atoms: C_1  and  C_2
REMARK    2  A    between atoms: C_2  and  S_3
REMARK    3  A    between atoms: S_3  and  N_6
REMARK    4  A    between atoms: N_6  and  C_7
REMARK    5  A    between atoms: C_8  and  C_10
REMARK    6  A    between atoms: C_11  and  C_20
REMARK    7  A    between atoms: C_16  and  C_19
REMARK                            x       y       z     vdW  Elec       q    Type
REMARK                         _______ _______ _______ _____ _____    ______ ____
ROOT
ATOM      1  C   UNL     1      -1.359  -2.413   2.380  0.00  0.00    +0.195 A 
ATOM      2  C   UNL     1      -2.484  -3.079   2.746  0.00  0.00    +0.008 A 
ATOM      3  C   UNL     1      -3.380  -2.076   3.318  0.00  0.00    +0.024 A 
ATOM      4  C   UNL     1      -4.664  -2.117   3.868  0.00  0.00    +0.012 A 
ATOM      5  C   UNL     1      -5.241  -0.967   4.328  0.00  0.00    +0.001 A 
ATOM      6  C   UNL     1      -4.559   0.241   4.253  0.00  0.00    +0.007 A 
ATOM      7  C   UNL     1      -3.292   0.302   3.715  0.00  0.00    -0.008 A 
ATOM      8  C   UNL     1      -2.685  -0.855   3.241  0.00  0.00    +0.139 A 
ATOM      9  O   UNL     1      -1.485  -1.104   2.681  0.00  0.00    -0.450 OA
ATOM     10  C   UNL     1      -2.567   1.621   3.641  0.00  0.00    +0.047 C 
ATOM     11  C   UNL     1      -2.755  -4.554   2.592  0.00  0.00    +0.048 C 
ENDROOT
BRANCH   1  14
ATOM     12  N   UNL     1       0.858  -2.256   1.370  0.00  0.00    -0.173 N 
ATOM     13  C   UNL     1       0.873  -0.830   1.702  0.00  0.00    +0.160 C 
ATOM     14  C   UNL     1      -0.178  -3.027   1.755  0.00  0.00    +0.301 C 
ATOM     15  O   UNL     1      -0.136  -4.231   1.587  0.00  0.00    -0.265 OA
BRANCH  12  16
ATOM     16  S   UNL     1       2.114  -2.921   0.520  0.00  0.00    +0.047 S 
ATOM     17  O   UNL     1       2.619  -1.857  -0.273  0.00  0.00    -0.155 OA
ATOM     18  O   UNL     1       1.565  -4.082  -0.089  0.00  0.00    -0.155 OA
BRANCH  16  20
ATOM     19  C   UNL     1       4.548  -4.026   1.102  0.00  0.00    +0.030 C 
ATOM     20  C   UNL     1       3.331  -3.394   1.780  0.00  0.00    +0.185 C 
ENDBRANCH  16  20
ENDBRANCH  12  16
ENDBRANCH   1  14
TORSDOF 3
