REMARK  Name = ZINC14550779
REMARK  4 active torsions:
REMARK  status: ('A' for Active; 'I' for Inactive)
REMARK    1  A    between atoms: C_3  and  N_32
REMARK    2  A    between atoms: C_6  and  C_7
REMARK    3  A    between atoms: C_18  and  S_23
REMARK    4  A    between atoms: S_23  and  N_26
REMARK                            x       y       z     vdW  Elec       q    Type
REMARK                         _______ _______ _______ _____ _____    ______ ____
ROOT
ATOM      1  C   UNL     1       0.652   3.208  -2.073  0.00  0.00    +0.105 C 
ATOM      2  C   UNL     1       0.691   3.315  -0.546  0.00  0.00    +0.029 C 
ATOM      3  C   UNL     1       1.222   1.957   0.001  0.00  0.00    +0.033 C 
ATOM      4  C   UNL     1      -0.013   1.076   0.008  0.00  0.00    -0.030 C 
ATOM      5  C   UNL     1      -1.100   1.808   0.017  0.00  0.00    -0.023 C 
ATOM      6  C   UNL     1      -0.741   3.275   0.021  0.00  0.00    +0.049 C 
ATOM      7  C   UNL     1      -1.711   4.075  -0.789  0.00  0.00    -0.018 A 
ATOM      8  C   UNL     1      -2.968   4.334  -0.260  0.00  0.00    +0.034 A 
ATOM      9  C   UNL     1      -3.891   5.073  -0.971  0.00  0.00    +0.106 A 
ATOM     10  C   UNL     1      -3.573   5.566  -2.224  0.00  0.00    +0.030 A 
ATOM     11  C   UNL     1      -2.328   5.314  -2.762  0.00  0.00    +0.025 A 
ATOM     12  C   UNL     1      -1.398   4.569  -2.046  0.00  0.00    +0.031 A 
ATOM     13  N   UNL     1      -0.141   4.321  -2.607  0.00  0.00    -0.336 N 
ATOM     14  H   UNL     1       0.199   4.871  -3.330  0.00  0.00    +0.147 HD
ENDROOT
BRANCH   1  20
ATOM     15  C   UNL     1      -1.358   1.766  -2.456  0.00  0.00    +0.008 A 
ATOM     16  C   UNL     1      -1.940   0.568  -2.826  0.00  0.00    +0.033 A 
ATOM     17  C   UNL     1      -1.145  -0.500  -3.200  0.00  0.00    +0.126 A 
ATOM     18  C   UNL     1       0.231  -0.367  -3.209  0.00  0.00    +0.033 A 
ATOM     19  C   UNL     1       0.812   0.832  -2.845  0.00  0.00    +0.008 A 
ATOM     20  C   UNL     1       0.018   1.900  -2.471  0.00  0.00    -0.027 A 
BRANCH  17  21
ATOM     21  N   UNL     1      -1.768  -1.785  -3.590  0.00  0.00    +0.056 N 
ATOM     22  O   UNL     1      -1.068  -2.726  -3.919  0.00  0.00    -0.126 OA
ATOM     23  O   UNL     1      -2.980  -1.901  -3.582  0.00  0.00    -0.126 OA
ENDBRANCH  17  21
ENDBRANCH   1  20
BRANCH   9  24
ATOM     24  S   UNL     1      -5.480   5.391  -0.281  0.00  0.00    +0.061 S 
ATOM     25  O   UNL     1      -5.339   5.286   1.129  0.00  0.00    -0.153 OA
ATOM     26  O   UNL     1      -5.970   6.567  -0.911  0.00  0.00    -0.153 OA
BRANCH  24  27
ATOM     27  N   UNL     1      -6.475   4.153  -0.750  0.00  0.00    -0.177 NA
ATOM     28  C   UNL     1      -7.249   4.246  -1.996  0.00  0.00    +0.109 C 
ATOM     29  C   UNL     1      -6.952   3.005  -2.850  0.00  0.00    +0.017 C 
ATOM     30  C   UNL     1      -7.235   1.746  -2.026  0.00  0.00    +0.003 C 
ATOM     31  C   UNL     1      -6.318   1.719  -0.801  0.00  0.00    +0.017 C 
ATOM     32  C   UNL     1      -6.604   2.943   0.073  0.00  0.00    +0.109 C 
ENDBRANCH  24  27
ENDBRANCH   9  24
TORSDOF 4
