REMARK  Name = ZINC35056579
REMARK  8 active torsions:
REMARK  status: ('A' for Active; 'I' for Inactive)
REMARK    1  A    between atoms: C_1  and  C_2
REMARK    2  A    between atoms: C_5  and  O_9
REMARK    3  A    between atoms: C_6  and  C_8
REMARK    4  A    between atoms: O_9  and  C_10
REMARK    5  A    between atoms: C_12  and  N_33
REMARK    6  A    between atoms: C_14  and  O_32
REMARK    7  A    between atoms: C_23  and  C_26
REMARK    8  A    between atoms: C_34  and  C_36
REMARK                            x       y       z     vdW  Elec       q    Type
REMARK                         _______ _______ _______ _____ _____    ______ ____
ROOT
ATOM      1  C   UNL     1       0.058  -4.771  -1.298  0.00  0.00    +0.331 C 
ATOM      2  C   UNL     1       0.210  -6.281  -1.106  0.00  0.00    +0.173 C 
ATOM      3  C   UNL     1      -1.007  -6.831  -0.353  0.00  0.00    +0.172 C 
ATOM      4  C   UNL     1      -2.268  -6.455  -1.131  0.00  0.00    +0.183 C 
ATOM      5  C   UNL     1      -2.324  -4.927  -1.265  0.00  0.00    +0.179 C 
ATOM      6  O   UNL     1      -1.170  -4.486  -1.974  0.00  0.00    -0.332 OA
ATOM      7  C   UNL     1      -3.607  -4.553  -2.007  0.00  0.00    +0.197 C 
ATOM      8  O   UNL     1      -4.718  -5.117  -1.298  0.00  0.00    -0.345 OA
ATOM      9  C   UNL     1      -4.652  -6.534  -1.130  0.00  0.00    +0.282 C 
ATOM     10  O   UNL     1      -3.444  -6.894  -0.451  0.00  0.00    -0.339 OA
ENDROOT
BRANCH   9  11
ATOM     11  C   UNL     1      -5.835  -6.997  -0.319  0.00  0.00    +0.008 A 
ATOM     12  C   UNL     1      -5.636  -7.641   0.888  0.00  0.00    +0.008 A 
ATOM     13  C   UNL     1      -6.721  -8.065   1.632  0.00  0.00    +0.000 A 
ATOM     14  C   UNL     1      -8.005  -7.846   1.169  0.00  0.00    +0.000 A 
ATOM     15  C   UNL     1      -8.204  -7.201  -0.038  0.00  0.00    +0.000 A 
ATOM     16  C   UNL     1      -7.119  -6.773  -0.780  0.00  0.00    +0.008 A 
ENDBRANCH   9  11
BRANCH   2  17
ATOM     17  N   UNL     1       1.425  -6.555  -0.335  0.00  0.00    -0.304 N 
ATOM     18  C   UNL     1       2.615  -6.645  -0.960  0.00  0.00    +0.210 C 
ATOM     19  O   UNL     1       2.681  -6.498  -2.163  0.00  0.00    -0.276 OA
ATOM     20  C   UNL     1       3.865  -6.926  -0.166  0.00  0.00    +0.109 C 
ATOM     21  H   UNL     1       1.372  -6.672   0.627  0.00  0.00    +0.149 HD
ENDBRANCH   2  17
BRANCH   3  22
ATOM     22  O   UNL     1      -0.907  -8.253  -0.252  0.00  0.00    -0.387 OA
ATOM     23  H   UNL     1      -0.120  -8.559   0.219  0.00  0.00    +0.210 HD
ENDBRANCH   3  22
BRANCH   1  24
ATOM     24  O   UNL     1       0.057  -4.129  -0.021  0.00  0.00    -0.461 OA
BRANCH  24  29
ATOM     25  C   UNL     1      -0.018   1.503   0.010  0.00  0.00    +0.044 C 
ATOM     26  C   UNL     1       0.002  -0.004   0.002  0.00  0.00    -0.050 A 
ATOM     27  C   UNL     1       0.006  -0.688  -1.200  0.00  0.00    +0.007 A 
ATOM     28  C   UNL     1       0.024  -2.069  -1.210  0.00  0.00    +0.046 A 
ATOM     29  C   UNL     1       0.039  -2.770  -0.013  0.00  0.00    +0.127 A 
ATOM     30  C   UNL     1       0.036  -2.082   1.191  0.00  0.00    -0.008 A 
ATOM     31  C   UNL     1       0.023  -0.701   1.196  0.00  0.00    +0.010 A 
ATOM     32  C   UNL     1       0.052  -2.841   2.493  0.00  0.00    +0.047 C 
ENDBRANCH  24  29
ENDBRANCH   1  24
TORSDOF 5
