REMARK  Name = ZINC67430707
REMARK  6 active torsions:
REMARK  status: ('A' for Active; 'I' for Inactive)
REMARK    1  A    between atoms: C_1  and  C_2
REMARK    2  A    between atoms: C_2  and  C_3
REMARK    3  A    between atoms: C_2  and  N_4
REMARK    4  A    between atoms: C_8  and  N_11
REMARK    5  A    between atoms: C_12  and  C_14
REMARK    6  A    between atoms: N_16  and  C_17
REMARK                            x       y       z     vdW  Elec       q    Type
REMARK                         _______ _______ _______ _____ _____    ______ ____
ROOT
ATOM      1  N   UNL     1       5.133  -3.553  -2.142  0.00  0.00    -0.276 N 
ATOM      2  C   UNL     1       5.920  -3.976  -1.133  0.00  0.00    +0.303 C 
ATOM      3  O   UNL     1       5.601  -3.758   0.018  0.00  0.00    -0.265 OA
ATOM      4  H   UNL     1       5.346  -3.793  -3.057  0.00  0.00    +0.155 HD
ENDROOT
BRANCH   1   9
ATOM      5  N   UNL     1       0.787  -0.416  -0.970  0.00  0.00    -0.244 N 
ATOM      6  C   UNL     1       1.750  -1.276  -1.425  0.00  0.00    +0.159 A 
ATOM      7  C   UNL     1       2.865  -1.114  -0.579  0.00  0.00    +0.040 A 
ATOM      8  C   UNL     1       4.016  -1.876  -0.807  0.00  0.00    +0.038 A 
ATOM      9  C   UNL     1       4.007  -2.767  -1.869  0.00  0.00    +0.053 A 
ATOM     10  C   UNL     1       2.866  -2.872  -2.664  0.00  0.00    +0.136 A 
ATOM     11  N   UNL     1       1.797  -2.144  -2.428  0.00  0.00    -0.234 NA
ATOM     12  C   UNL     1       2.494  -0.102   0.405  0.00  0.00    +0.144 A 
ATOM     13  N   UNL     1       1.279   0.282   0.137  0.00  0.00    -0.177 NA
BRANCH   5  15
ATOM     14  C   UNL     1      -1.609  -0.580  -0.504  0.00  0.00    +0.032 C 
ATOM     15  C   UNL     1      -0.546  -0.249  -1.554  0.00  0.00    +0.103 C 
ATOM     16  C   UNL     1      -0.722   1.199  -2.018  0.00  0.00    +0.032 C 
ENDBRANCH   5  15
ENDBRANCH   1   9
BRANCH   2  17
ATOM     17  C   UNL     1       7.183  -4.715  -1.431  0.00  0.00    +0.300 C 
ATOM     18  O   UNL     1       7.502  -4.933  -2.581  0.00  0.00    -0.265 OA
ATOM     19  N   UNL     1       7.970  -5.138  -0.422  0.00  0.00    -0.301 N 
ATOM     20  H   UNL     1       7.716  -4.963   0.498  0.00  0.00    +0.150 HD
BRANCH  19  21
ATOM     21  C   UNL     1       9.210  -5.862  -0.714  0.00  0.00    +0.104 C 
ATOM     22  C   UNL     1       9.619  -6.731   0.494  0.00  0.00    +0.032 C 
ATOM     23  C   UNL     1      10.563  -5.792   1.274  0.00  0.00    +0.037 C 
ATOM     24  C   UNL     1      11.131  -4.848   0.235  0.00  0.00    -0.041 A 
ATOM     25  C   UNL     1      10.353  -4.889  -0.910  0.00  0.00    -0.024 A 
ATOM     26  C   UNL     1      10.685  -4.103  -2.001  0.00  0.00    +0.007 A 
ATOM     27  C   UNL     1      11.791  -3.277  -1.952  0.00  0.00    +0.020 A 
ATOM     28  C   UNL     1      12.570  -3.234  -0.810  0.00  0.00    +0.041 A 
ATOM     29  C   UNL     1      12.240  -4.022   0.285  0.00  0.00    +0.024 A 
ATOM     30 CL   UNL     1      13.962  -2.198  -0.746  0.00  0.00    -0.084 Cl
ENDBRANCH  19  21
ENDBRANCH   2  17
TORSDOF 4
