REMARK  Name = ZINC65112632
REMARK  5 active torsions:
REMARK  status: ('A' for Active; 'I' for Inactive)
REMARK    1  A    between atoms: C_6  and  S_7
REMARK    2  A    between atoms: S_7  and  N_10
REMARK    3  A    between atoms: N_10  and  C_11
REMARK    4  A    between atoms: C_19  and  C_23
REMARK    5  A    between atoms: C_23  and  C_24
REMARK                            x       y       z     vdW  Elec       q    Type
REMARK                         _______ _______ _______ _____ _____    ______ ____
ROOT
ATOM      1  C   UNL     1      -0.017   1.379   0.010  0.00  0.00    +0.030 A 
ATOM      2  C   UNL     1       1.172   2.069   0.002  0.00  0.00    +0.018 A 
ATOM      3  C   UNL     1       2.408   1.408  -0.015  0.00  0.00    +0.029 A 
ATOM      4  C   UNL     1       2.430   0.021  -0.024  0.00  0.00    +0.049 A 
ATOM      5  C   UNL     1       1.206  -0.667  -0.014  0.00  0.00    +0.053 A 
ATOM      6  C   UNL     1       0.002  -0.004   0.002  0.00  0.00    +0.107 A 
ATOM      7  N   UNL     1       3.537  -0.786  -0.046  0.00  0.00    -0.284 N 
ATOM      8  C   UNL     1       4.812  -0.748   0.121  0.00  0.00    +0.222 C 
ATOM      9  O   UNL     1       5.348  -1.829   0.252  0.00  0.00    -0.275 OA
ATOM     10  C   UNL     1       5.727   0.424   0.178  0.00  0.00    +0.094 C 
ATOM     11  C   UNL     1       5.117   1.590   0.901  0.00  0.00    +0.087 C 
ATOM     12  S   UNL     1       3.832   2.420  -0.022  0.00  0.00    -0.123 S 
ATOM     13  H   UNL     1       3.268  -1.693  -0.260  0.00  0.00    +0.155 HD
ENDROOT
BRANCH   6  14
ATOM     14  S   UNL     1      -1.509  -0.911   0.013  0.00  0.00    +0.059 S 
ATOM     15  O   UNL     1      -1.211  -2.190   0.554  0.00  0.00    -0.153 OA
ATOM     16  O   UNL     1      -2.492  -0.055   0.578  0.00  0.00    -0.153 OA
BRANCH  14  17
ATOM     17  N   UNL     1      -1.945  -1.154  -1.566  0.00  0.00    -0.187 NA
ATOM     18  H   UNL     1      -2.754  -0.748  -1.914  0.00  0.00    +0.148 HD
BRANCH  17  19
ATOM     19  C   UNL     1      -1.109  -1.983  -2.438  0.00  0.00    +0.077 C 
ATOM     20  C   UNL     1      -0.182  -1.089  -3.288  0.00  0.00    +0.020 C 
ATOM     21  C   UNL     1      -0.122  -1.803  -4.661  0.00  0.00    +0.002 C 
ATOM     22  C   UNL     1      -1.571  -2.322  -4.841  0.00  0.00    +0.002 C 
ATOM     23  C   UNL     1      -1.991  -2.767  -3.425  0.00  0.00    +0.020 C 
ENDBRANCH  17  19
ENDBRANCH  14  17
ENDBRANCH   6  14
BRANCH  10  24
ATOM     24  C   UNL     1       7.013   0.014   0.899  0.00  0.00    +0.109 C 
BRANCH  24  25
ATOM     25  C   UNL     1       7.736  -1.026   0.083  0.00  0.00    +0.216 C 
ATOM     26  O   UNL     1       7.269  -1.402  -0.971  0.00  0.00    -0.276 OA
ATOM     27  N   UNL     1       8.902  -1.538   0.524  0.00  0.00    -0.301 N 
ATOM     28  C   UNL     1       9.575  -1.178   1.782  0.00  0.00    +0.108 C 
ATOM     29  C   UNL     1      10.883  -1.994   1.851  0.00  0.00    +0.020 C 
ATOM     30  C   UNL     1      11.153  -2.345   0.365  0.00  0.00    +0.020 C 
ATOM     31  C   UNL     1       9.712  -2.556  -0.170  0.00  0.00    +0.108 C 
ENDBRANCH  24  25
ENDBRANCH  10  24
TORSDOF 5
