REMARK  Name = ZINC35375000
REMARK  11 active torsions:
REMARK  status: ('A' for Active; 'I' for Inactive)
REMARK    1  A    between atoms: C_1  and  C_2
REMARK    2  A    between atoms: C_2  and  C_3
REMARK    3  A    between atoms: C_3  and  C_5
REMARK    4  A    between atoms: C_3  and  C_6
REMARK    5  A    between atoms: C_6  and  N_7
REMARK    6  A    between atoms: C_8  and  C_10
REMARK    7  A    between atoms: C_21  and  C_23
REMARK    8  A    between atoms: C_24  and  O_31
REMARK    9  A    between atoms: C_28  and  O_29
REMARK   10  A    between atoms: O_29  and  C_30
REMARK   11  A    between atoms: O_31  and  C_32
REMARK                            x       y       z     vdW  Elec       q    Type
REMARK                         _______ _______ _______ _____ _____    ______ ____
ROOT
ATOM      1  C   UNL     1       2.697  -4.272  -3.689  0.00  0.00    +0.028 C 
ATOM      2  C   UNL     1       1.975  -3.883  -5.015  0.00  0.00    +0.061 C 
ATOM      3  S   UNL     1       2.780  -5.088  -6.158  0.00  0.00    -0.174 S 
ATOM      4  C   UNL     1       3.367  -6.292  -4.902  0.00  0.00    -0.016 C 
ATOM      5  N   UNL     1       2.832  -5.742  -3.639  0.00  0.00    +0.397 N 
ATOM      6  C   UNL     1       4.887  -6.322  -4.886  0.00  0.00    +0.017 C 
ATOM      7  C   UNL     1       5.369  -7.307  -3.815  0.00  0.00    +0.107 C 
ATOM      8  N   UNL     1       4.717  -8.604  -4.041  0.00  0.00    -0.297 N 
ATOM      9  C   UNL     1       3.251  -8.657  -4.119  0.00  0.00    +0.107 C 
ATOM     10  C   UNL     1       2.780  -7.665  -5.189  0.00  0.00    +0.017 C 
ATOM     11  C   UNL     1       5.452  -9.726  -4.175  0.00  0.00    +0.254 C 
ATOM     12  O   UNL     1       6.665  -9.671  -4.109  0.00  0.00    -0.270 OA
ATOM     13  H   UNL     1       3.456  -5.989  -2.886  0.00  0.00    -0.083 HD
ATOM     14  H   UNL     1       1.926  -6.149  -3.460  0.00  0.00    -0.083 HD
ENDROOT
BRANCH  11  15
ATOM     15  C   UNL     1       4.785 -11.020  -4.400  0.00  0.00    +0.120 A 
ATOM     16  C   UNL     1       4.528 -11.463  -5.706  0.00  0.00    +0.136 A 
ATOM     17  C   UNL     1       3.901 -12.682  -5.907  0.00  0.00    +0.046 A 
ATOM     18  C   UNL     1       3.529 -13.460  -4.827  0.00  0.00    +0.007 A 
ATOM     19  C   UNL     1       3.778 -13.033  -3.536  0.00  0.00    +0.046 A 
ATOM     20  C   UNL     1       4.409 -11.820  -3.312  0.00  0.00    +0.136 A 
BRANCH  20  21
ATOM     21  O   UNL     1       4.657 -11.405  -2.044  0.00  0.00    -0.494 OA
ATOM     22  C   UNL     1       4.246 -12.273  -0.986  0.00  0.00    +0.277 C 
ENDBRANCH  20  21
BRANCH  16  23
ATOM     23  O   UNL     1       4.891 -10.701  -6.768  0.00  0.00    -0.494 OA
ATOM     24  C   UNL     1       4.596 -11.217  -8.067  0.00  0.00    +0.277 C 
ENDBRANCH  16  23
ENDBRANCH  11  15
BRANCH   1  26
ATOM     25  N   UNL     1       1.639  -2.482  -2.350  0.00  0.00    -0.316 N 
ATOM     26  C   UNL     1       1.885  -3.797  -2.512  0.00  0.00    +0.200 C 
ATOM     27  O   UNL     1       1.454  -4.599  -1.710  0.00  0.00    -0.278 OA
ATOM     28  H   UNL     1       1.984  -1.842  -2.991  0.00  0.00    +0.149 HD
BRANCH  25  29
ATOM     29  C   UNL     1       0.849  -2.021  -1.205  0.00  0.00    +0.107 C 
BRANCH  29  30
ATOM     30  C   UNL     1       0.718  -0.497  -1.257  0.00  0.00    +0.003 C 
ATOM     31  C   UNL     1      -0.089  -0.097  -2.493  0.00  0.00    +0.009 C 
BRANCH  30  33
ATOM     32  C   UNL     1      -0.019   1.526   0.010  0.00  0.00    +0.004 C 
ATOM     33  C   UNL     1       0.002  -0.004   0.002  0.00  0.00    +0.001 C 
ENDBRANCH  30  33
ENDBRANCH  29  30
ENDBRANCH  25  29
ENDBRANCH   1  26
TORSDOF 7
