REMARK  Name = ZINC49060447
REMARK  4 active torsions:
REMARK  status: ('A' for Active; 'I' for Inactive)
REMARK    1  A    between atoms: C_1  and  C_2
REMARK    2  A    between atoms: C_5  and  N_8
REMARK    3  A    between atoms: C_10  and  C_15
REMARK    4  A    between atoms: C_17  and  C_20
REMARK                            x       y       z     vdW  Elec       q    Type
REMARK                         _______ _______ _______ _____ _____    ______ ____
ROOT
ATOM      1  N   UNL     1       0.059  -4.170  -0.021  0.00  0.00    -0.271 N 
ATOM      2  C   UNL     1       0.176  -5.003   1.182  0.00  0.00    +0.125 C 
ATOM      3  C   UNL     1      -0.280  -6.415   0.751  0.00  0.00    +0.087 C 
ATOM      4  C   UNL     1       0.013  -6.391  -0.767  0.00  0.00    +0.109 C 
ATOM      5  C   UNL     1      -0.034  -4.923  -1.130  0.00  0.00    +0.221 C 
ATOM      6  O   UNL     1      -0.139  -4.490  -2.258  0.00  0.00    -0.275 OA
ENDROOT
BRANCH   1  11
ATOM      7  C   UNL     1      -0.018   1.503   0.010  0.00  0.00    +0.044 C 
ATOM      8  C   UNL     1       0.002  -0.004   0.002  0.00  0.00    -0.050 A 
ATOM      9  C   UNL     1       0.020  -0.687  -1.200  0.00  0.00    +0.005 A 
ATOM     10  C   UNL     1       0.039  -2.068  -1.211  0.00  0.00    +0.024 A 
ATOM     11  C   UNL     1       0.040  -2.771  -0.013  0.00  0.00    +0.036 A 
ATOM     12  C   UNL     1       0.022  -2.082   1.192  0.00  0.00    +0.024 A 
ATOM     13  C   UNL     1       0.009  -0.701   1.197  0.00  0.00    +0.005 A 
ENDBRANCH   1  11
BRANCH   3  14
ATOM     14  C   UNL     1       0.533  -7.479   1.442  0.00  0.00    +0.177 A 
ATOM     15  N   UNL     1       0.045  -8.428   2.242  0.00  0.00    -0.191 NA
ATOM     16  C   UNL     1       1.020  -9.192   2.679  0.00  0.00    +0.259 A 
ATOM     17  O   UNL     1       2.172  -8.736   2.157  0.00  0.00    -0.333 OA
ATOM     18  N   UNL     1       1.825  -7.621   1.349  0.00  0.00    -0.061 NA
BRANCH  16  19
ATOM     19  C   UNL     1       0.876 -10.351   3.588  0.00  0.00    +0.042 A 
ATOM     20  C   UNL     1      -0.380 -10.738   4.067  0.00  0.00    +0.033 A 
ATOM     21  C   UNL     1      -0.468 -11.825   4.912  0.00  0.00    +0.111 A 
ATOM     22  N   UNL     1       0.610 -12.495   5.269  0.00  0.00    -0.263 NA
ATOM     23  C   UNL     1       1.813 -12.164   4.841  0.00  0.00    +0.111 A 
ATOM     24  C   UNL     1       1.992 -11.094   3.988  0.00  0.00    +0.033 A 
ENDBRANCH  16  19
ENDBRANCH   3  14
TORSDOF 3
