REMARK  Name = ZINC57122190
REMARK  7 active torsions:
REMARK  status: ('A' for Active; 'I' for Inactive)
REMARK    1  A    between atoms: C_1  and  C_2
REMARK    2  A    between atoms: C_2  and  O_3
REMARK    3  A    between atoms: O_3  and  C_4
REMARK    4  A    between atoms: C_5  and  N_11
REMARK    5  A    between atoms: N_11  and  S_12
REMARK    6  A    between atoms: S_12  and  C_15
REMARK    7  A    between atoms: C_18  and  C_21
REMARK                            x       y       z     vdW  Elec       q    Type
REMARK                         _______ _______ _______ _____ _____    ______ ____
ROOT
ATOM      1  N   UNL     1      -1.287  -1.864   2.526  0.00  0.00    -0.213 N 
ATOM      2  H   UNL     1      -1.694  -1.141   2.024  0.00  0.00    +0.174 HD
ENDROOT
BRANCH   1   4
ATOM      3  C   UNL     1       0.899  -1.599   1.523  0.00  0.00    +0.161 A 
ATOM      4  C   UNL     1      -0.071  -2.413   2.102  0.00  0.00    +0.091 A 
ATOM      5  C   UNL     1       0.170  -3.770   2.258  0.00  0.00    +0.028 A 
ATOM      6  C   UNL     1       1.372  -4.311   1.839  0.00  0.00    +0.004 A 
ATOM      7  C   UNL     1       2.335  -3.503   1.265  0.00  0.00    +0.024 A 
ATOM      8  C   UNL     1       2.098  -2.149   1.100  0.00  0.00    +0.084 A 
ATOM      9 CL   UNL     1       3.307  -1.139   0.370  0.00  0.00    -0.080 Cl
BRANCH   3  10
ATOM     10  O   UNL     1       0.667  -0.267   1.367  0.00  0.00    -0.489 OA
BRANCH  10  12
ATOM     11  C   UNL     1      -0.128   1.665   0.153  0.00  0.00    +0.048 C 
ATOM     12  C   UNL     1       0.050   0.146   0.146  0.00  0.00    +0.226 C 
ENDBRANCH  10  12
ENDBRANCH   3  10
ENDBRANCH   1   4
BRANCH   1  13
ATOM     13  S   UNL     1      -2.030  -2.449   3.886  0.00  0.00    +0.072 S 
ATOM     14  O   UNL     1      -3.154  -1.612   4.125  0.00  0.00    -0.150 OA
ATOM     15  O   UNL     1      -2.150  -3.854   3.711  0.00  0.00    -0.150 OA
BRANCH  13  16
ATOM     16  C   UNL     1      -0.922  -2.201   5.233  0.00  0.00    +0.109 A 
ATOM     17  C   UNL     1      -0.001  -3.182   5.556  0.00  0.00    +0.029 A 
ATOM     18  C   UNL     1       0.870  -2.995   6.609  0.00  0.00    +0.017 A 
ATOM     19  C   UNL     1       0.820  -1.812   7.350  0.00  0.00    +0.063 A 
ATOM     20  C   UNL     1      -0.112  -0.826   7.018  0.00  0.00    +0.017 A 
ATOM     21  C   UNL     1      -0.973  -1.024   5.959  0.00  0.00    +0.029 A 
BRANCH  19  22
ATOM     22  C   UNL     1       1.748  -1.605   8.479  0.00  0.00    +0.387 C 
ATOM     23  O   UNL     1       2.562  -2.471   8.768  0.00  0.00    -0.241 OA
ATOM     24  O   UNL     1       1.702  -0.569   9.126  0.00  0.00    -0.241 OA
ENDBRANCH  19  22
ENDBRANCH  13  16
ENDBRANCH   1  13
TORSDOF 6
