REMARK  Name = ZINC13086096
REMARK  5 active torsions:
REMARK  status: ('A' for Active; 'I' for Inactive)
REMARK    1  A    between atoms: C_9  and  C_25
REMARK    2  A    between atoms: C_10  and  O_11
REMARK    3  A    between atoms: O_11  and  C_12
REMARK    4  A    between atoms: C_12  and  C_13
REMARK    5  A    between atoms: N_15  and  C_16
REMARK                            x       y       z     vdW  Elec       q    Type
REMARK                         _______ _______ _______ _____ _____    ______ ____
ROOT
ATOM      1  O   UNL     1      -1.302   5.904   0.042  0.00  0.00    -0.481 OA
ENDROOT
BRANCH   1  11
ATOM      2  C   UNL     1      -0.067   1.044   0.007  0.00  0.00    +0.001 A 
ATOM      3  C   UNL     1      -1.282   1.723   0.017  0.00  0.00    +0.001 A 
ATOM      4  C   UNL     1      -1.323   3.085   0.029  0.00  0.00    +0.012 A 
ATOM      5  C   UNL     1      -0.124   3.816   0.021  0.00  0.00    +0.025 A 
ATOM      6  C   UNL     1       1.113   3.125   0.005  0.00  0.00    -0.014 A 
ATOM      7  C   UNL     1       1.115   1.721  -0.002  0.00  0.00    +0.008 A 
ATOM      8  C   UNL     1       2.319   3.852  -0.004  0.00  0.00    +0.009 A 
ATOM      9  C   UNL     1       2.300   5.208   0.003  0.00  0.00    +0.019 A 
ATOM     10  C   UNL     1       1.082   5.913   0.018  0.00  0.00    +0.105 A 
ATOM     11  C   UNL     1      -0.131   5.226   0.028  0.00  0.00    +0.143 A 
BRANCH  10  12
ATOM     12  C   UNL     1       1.089   7.385   0.026  0.00  0.00    +0.390 C 
ATOM     13  O   UNL     1       0.039   7.998   0.039  0.00  0.00    -0.240 OA
ATOM     14  O   UNL     1       2.259   8.054   0.017  0.00  0.00    -0.240 OA
ENDBRANCH  10  12
ENDBRANCH   1  11
BRANCH   1  15
ATOM     15  C   UNL     1      -1.851   6.224   1.322  0.00  0.00    +0.325 C 
BRANCH  15  16
ATOM     16  C   UNL     1      -3.146   6.974   1.141  0.00  0.00    +0.255 C 
ATOM     17  O   UNL     1      -3.558   7.211   0.025  0.00  0.00    -0.272 OA
ATOM     18  N   UNL     1      -3.846   7.380   2.218  0.00  0.00    -0.280 N 
ATOM     19  H   UNL     1      -3.551   7.135   3.109  0.00  0.00    +0.155 HD
BRANCH  18  20
ATOM     20  C   UNL     1      -5.000   8.158   2.052  0.00  0.00    +0.072 A 
ATOM     21  C   UNL     1      -5.828   7.947   0.957  0.00  0.00    +0.029 A 
ATOM     22  C   UNL     1      -6.968   8.710   0.796  0.00  0.00    +0.043 A 
ATOM     23  C   UNL     1      -7.282   9.693   1.720  0.00  0.00    +0.161 A 
ATOM     24  C   UNL     1      -6.456   9.910   2.812  0.00  0.00    +0.195 A 
ATOM     25  C   UNL     1      -5.315   9.144   2.979  0.00  0.00    +0.182 A 
ATOM     26  F   UNL     1      -4.508   9.354   4.043  0.00  0.00    -0.200 F 
ATOM     27  F   UNL     1      -6.763  10.870   3.711  0.00  0.00    -0.199 F 
ATOM     28  F   UNL     1      -8.396  10.441   1.557  0.00  0.00    -0.202 F 
ENDBRANCH  18  20
ENDBRANCH  15  16
ENDBRANCH   1  15
TORSDOF 5
