REMARK  Name = ZINC39733951
REMARK  7 active torsions:
REMARK  status: ('A' for Active; 'I' for Inactive)
REMARK    1  A    between atoms: C_1  and  C_2
REMARK    2  A    between atoms: C_2  and  C_4
REMARK    3  A    between atoms: C_2  and  S_13
REMARK    4  A    between atoms: N_9  and  C_10
REMARK    5  A    between atoms: C_10  and  C_11
REMARK    6  A    between atoms: C_10  and  C_12
REMARK    7  A    between atoms: S_13  and  C_14
REMARK                            x       y       z     vdW  Elec       q    Type
REMARK                         _______ _______ _______ _____ _____    ______ ____
ROOT
ATOM      1  S   UNL     1       0.879  -0.605   1.472  0.00  0.00    -0.076 S 
ENDROOT
BRANCH   1   2
ATOM      2  C   UNL     1       2.533  -0.042   1.241  0.00  0.00    +0.182 C 
ATOM      3  N   UNL     1       2.815   0.653   0.152  0.00  0.00    -0.151 NA
ATOM      4  C   UNL     1       4.035   1.124  -0.105  0.00  0.00    +0.272 C 
ATOM      5  O   UNL     1       4.260   1.761  -1.121  0.00  0.00    -0.268 OA
ATOM      6  C   UNL     1       5.121   0.850   0.891  0.00  0.00    +0.071 C 
ATOM      7  C   UNL     1       6.393   1.280   0.862  0.00  0.00    -0.042 C 
ATOM      8  C   UNL     1       6.924   2.295  -0.147  0.00  0.00    +0.033 C 
ATOM      9  C   UNL     1       7.551   3.438   0.663  0.00  0.00    +0.004 C 
ATOM     10  C   UNL     1       8.568   2.883   1.658  0.00  0.00    +0.002 C 
ATOM     11  C   UNL     1       7.886   1.974   2.685  0.00  0.00    +0.019 C 
ATOM     12  C   UNL     1       7.316   0.755   1.955  0.00  0.00    +0.079 C 
ATOM     13  S   UNL     1       6.146  -0.138   3.047  0.00  0.00    -0.097 S 
ATOM     14  C   UNL     1       4.683   0.055   2.059  0.00  0.00    +0.112 C 
ATOM     15  N   UNL     1       3.439  -0.333   2.175  0.00  0.00    -0.217 NA
ENDBRANCH   1   2
BRANCH   1  17
ATOM     16  C   UNL     1      -0.019   1.526   0.010  0.00  0.00    +0.029 C 
ATOM     17  C   UNL     1       0.002  -0.004   0.002  0.00  0.00    +0.137 C 
BRANCH  17  18
ATOM     18  C   UNL     1      -1.412  -0.526   0.013  0.00  0.00    +0.233 C 
ATOM     19  O   UNL     1      -1.939  -0.827   1.062  0.00  0.00    -0.274 OA
ATOM     20  N   UNL     1      -2.090  -0.657  -1.144  0.00  0.00    -0.239 N 
ATOM     21  C   UNL     1      -3.355  -1.124  -1.135  0.00  0.00    +0.306 C 
ATOM     22  O   UNL     1      -3.883  -1.426  -0.083  0.00  0.00    -0.252 OA
ATOM     23  N   UNL     1      -4.033  -1.255  -2.292  0.00  0.00    -0.297 N 
ATOM     24  H   UNL     1      -1.669  -0.416  -1.984  0.00  0.00    +0.159 HD
ATOM     25  H   UNL     1      -3.611  -1.014  -3.131  0.00  0.00    +0.151 HD
BRANCH  23  26
ATOM     26  C   UNL     1      -5.408  -1.762  -2.281  0.00  0.00    +0.068 C 
ATOM     27  C   UNL     1      -6.148  -1.256  -3.521  0.00  0.00    +0.027 C 
ATOM     28  C   UNL     1      -5.387  -3.292  -2.290  0.00  0.00    +0.027 C 
ENDBRANCH  23  26
ENDBRANCH  17  18
ENDBRANCH   1  17
TORSDOF 4
