REMARK  Name = ZINC44592934
REMARK  3 active torsions:
REMARK  status: ('A' for Active; 'I' for Inactive)
REMARK    1  A    between atoms: C_1  and  C_2
REMARK    2  A    between atoms: C_5  and  C_8
REMARK    3  A    between atoms: C_10  and  C_13
REMARK                            x       y       z     vdW  Elec       q    Type
REMARK                         _______ _______ _______ _____ _____    ______ ____
ROOT
ATOM      1  C   UNL     1       0.059  -4.256  -0.021  0.00  0.00    +0.202 A 
ATOM      2  N   UNL     1       0.070  -5.047   1.067  0.00  0.00    -0.190 NA
ATOM      3  C   UNL     1       0.086  -6.299   0.708  0.00  0.00    +0.249 A 
ATOM      4  O   UNL     1       0.086  -6.357  -0.630  0.00  0.00    -0.336 OA
ATOM      5  N   UNL     1       0.064  -5.015  -1.090  0.00  0.00    -0.056 NA
ENDROOT
BRANCH   3   6
ATOM      6  C   UNL     1       0.102  -7.482   1.642  0.00  0.00    +0.175 C 
ATOM      7  C   UNL     1       1.496  -8.102   1.659  0.00  0.00    -0.011 A 
ATOM      8  C   UNL     1       2.675  -7.361   1.687  0.00  0.00    +0.013 A 
ATOM      9  C   UNL     1       3.872  -7.993   1.698  0.00  0.00    +0.046 A 
ATOM     10  S   UNL     1       3.381  -9.711   1.671  0.00  0.00    -0.101 S 
ATOM     11  C   UNL     1       1.629  -9.458   1.647  0.00  0.00    -0.004 A 
ATOM     12  C   UNL     1       0.524 -10.463   1.621  0.00  0.00    +0.058 C 
ATOM     13  C   UNL     1      -0.784  -9.729   1.965  0.00  0.00    +0.087 C 
ATOM     14  N   UNL     1      -0.858  -8.491   1.175  0.00  0.00    -0.302 NA
ATOM     15  H   UNL     1      -1.797  -8.120   1.167  0.00  0.00    +0.123 HD
ENDBRANCH   3   6
BRANCH   1  20
ATOM     16  C   UNL     1      -0.018   1.503   0.010  0.00  0.00    +0.044 C 
ATOM     17  C   UNL     1       0.002  -0.004   0.002  0.00  0.00    -0.050 A 
ATOM     18  C   UNL     1       0.006  -0.686  -1.201  0.00  0.00    +0.004 A 
ATOM     19  C   UNL     1       0.024  -2.067  -1.214  0.00  0.00    +0.012 A 
ATOM     20  C   UNL     1       0.040  -2.772  -0.013  0.00  0.00    +0.022 A 
ATOM     21  C   UNL     1       0.036  -2.080   1.196  0.00  0.00    +0.012 A 
ATOM     22  C   UNL     1       0.023  -0.700   1.198  0.00  0.00    +0.004 A 
ENDBRANCH   1  20
TORSDOF 2
