REMARK  Name = ZINC32112406
REMARK  2 active torsions:
REMARK  status: ('A' for Active; 'I' for Inactive)
REMARK    1  A    between atoms: C_12  and  C_19
REMARK    2  A    between atoms: C_14  and  C_16
REMARK                            x       y       z     vdW  Elec       q    Type
REMARK                         _______ _______ _______ _____ _____    ______ ____
ROOT
ATOM      1  C   UNL     1       1.169   2.088   0.002  0.00  0.00    +0.000 A 
ATOM      2  C   UNL     1       2.376   1.413  -0.014  0.00  0.00    +0.002 A 
ATOM      3  C   UNL     1       2.400   0.035  -0.021  0.00  0.00    +0.024 A 
ATOM      4  C   UNL     1       1.206  -0.691  -0.013  0.00  0.00    +0.040 A 
ATOM      5  C   UNL     1       0.002  -0.004   0.002  0.00  0.00    -0.024 A 
ATOM      6  C   UNL     1      -0.017   1.377   0.010  0.00  0.00    +0.005 A 
ATOM      7  C   UNL     1      -1.126  -1.011   0.008  0.00  0.00    +0.056 C 
ATOM      8  C   UNL     1      -0.423  -2.379  -0.006  0.00  0.00    +0.118 C 
ATOM      9  N   UNL     1       1.010  -2.074  -0.018  0.00  0.00    -0.269 N 
ATOM     10  C   UNL     1       2.023  -3.019  -0.033  0.00  0.00    +0.224 A 
ATOM     11  N   UNL     1       1.705  -4.304  -0.032  0.00  0.00    -0.204 NA
ATOM     12  C   UNL     1       2.654  -5.237  -0.051  0.00  0.00    +0.145 A 
ATOM     13  C   UNL     1       3.994  -4.840  -0.061  0.00  0.00    +0.062 A 
ATOM     14  C   UNL     1       4.280  -3.483  -0.057  0.00  0.00    +0.051 A 
ATOM     15  N   UNL     1       3.284  -2.613  -0.043  0.00  0.00    -0.219 NA
ENDROOT
BRANCH  14  16
ATOM     16  C   UNL     1       5.709  -3.006  -0.068  0.00  0.00    +0.038 C 
ATOM     17  C   UNL     1       6.796  -4.020   0.296  0.00  0.00    +0.010 C 
ATOM     18  C   UNL     1       6.431  -2.903   1.277  0.00  0.00    +0.010 C 
ENDBRANCH  14  16
BRANCH  12  19
ATOM     19  C   UNL     1       2.308  -6.627  -0.055  0.00  0.00    +0.119 C 
ATOM     20  N   UNL     1       2.033  -7.729  -0.059  0.00  0.00    -0.189 NA
ENDBRANCH  12  19
TORSDOF 2
