REMARK  Name = ZINC06526733
REMARK  6 active torsions:
REMARK  status: ('A' for Active; 'I' for Inactive)
REMARK    1  A    between atoms: C_1  and  C_2
REMARK    2  A    between atoms: C_4  and  C_8
REMARK    3  A    between atoms: N_6  and  C_7
REMARK    4  A    between atoms: N_10  and  C_11
REMARK    5  A    between atoms: C_16  and  C_21
REMARK    6  A    between atoms: C_18  and  C_20
REMARK                            x       y       z     vdW  Elec       q    Type
REMARK                         _______ _______ _______ _____ _____    ______ ____
ROOT
ATOM      1  C   UNL     1      -1.215   2.175   0.020  0.00  0.00    +0.266 C 
ATOM      2  O   UNL     1      -1.095   3.385   0.025  0.00  0.00    -0.268 OA
ATOM      3  N   UNL     1      -2.443   1.620   0.024  0.00  0.00    -0.307 N 
ATOM      4  H   UNL     1      -2.539   0.655   0.019  0.00  0.00    +0.149 HD
ENDROOT
BRANCH   1   8
ATOM      5  C   UNL     1       3.581   0.537  -0.029  0.00  0.00    +0.066 C 
ATOM      6  C   UNL     1       2.076   0.617  -0.015  0.00  0.00    +0.051 A 
ATOM      7  C   UNL     1       1.331   1.748  -0.001  0.00  0.00    +0.071 A 
ATOM      8  C   UNL     1      -0.016   1.314   0.009  0.00  0.00    +0.161 A 
ATOM      9  N   UNL     1       0.002  -0.004   0.002  0.00  0.00    -0.165 NA
ATOM     10  N   UNL     1       1.214  -0.430  -0.012  0.00  0.00    -0.270 N 
ATOM     11  C   UNL     1       1.608  -1.841  -0.023  0.00  0.00    +0.172 C 
ATOM     12 BR   UNL     1       1.959   3.532   0.002  0.00  0.00    -0.046 Br
ENDBRANCH   1   8
BRANCH   3  13
ATOM     13  C   UNL     1      -3.633   2.475   0.034  0.00  0.00    +0.076 C 
ATOM     14  C   UNL     1      -3.982   2.882  -1.399  0.00  0.00    +0.022 C 
ATOM     15  C   UNL     1      -5.224   3.774  -1.388  0.00  0.00    +0.002 C 
ATOM     16  C   UNL     1      -6.398   3.007  -0.776  0.00  0.00    +0.003 C 
ATOM     17  C   UNL     1      -6.050   2.600   0.657  0.00  0.00    -0.009 C 
ATOM     18  C   UNL     1      -4.807   1.707   0.646  0.00  0.00    +0.009 C 
ATOM     19  C   UNL     1      -4.459   1.300   2.079  0.00  0.00    +0.009 C 
ATOM     20  C   UNL     1      -7.223   1.832   1.269  0.00  0.00    +0.008 C 
ENDBRANCH   3  13
TORSDOF 2
