REMARK  Name = ZINC40526236
REMARK  2 active torsions:
REMARK  status: ('A' for Active; 'I' for Inactive)
REMARK    1  A    between atoms: C_1  and  C_2
REMARK    2  A    between atoms: C_5  and  N_9
REMARK                            x       y       z     vdW  Elec       q    Type
REMARK                         _______ _______ _______ _____ _____    ______ ____
ROOT
ATOM      1  N   UNL     1       0.059  -4.171  -0.023  0.00  0.00    -0.268 N 
ATOM      2  C   UNL     1      -0.039  -4.839  -1.189  0.00  0.00    +0.307 C 
ATOM      3  O   UNL     1      -0.053  -4.229  -2.240  0.00  0.00    -0.252 OA
ATOM      4  N   UNL     1      -0.122  -6.184  -1.190  0.00  0.00    -0.275 N 
ATOM      5  C   UNL     1      -0.225  -6.945  -2.447  0.00  0.00    +0.128 C 
ATOM      6  C   UNL     1       0.995  -7.863  -2.550  0.00  0.00    +0.123 C 
ATOM      7  N   UNL     1       1.222  -8.564  -1.294  0.00  0.00    -0.313 N 
ATOM      8  C   UNL     1       0.772  -8.155  -0.107  0.00  0.00    +0.231 C 
ATOM      9  O   UNL     1       1.093  -8.782   0.880  0.00  0.00    -0.274 OA
ATOM     10  C   UNL     1      -0.108  -6.953   0.064  0.00  0.00    +0.205 C 
ATOM     11  H   UNL     1       0.136  -4.660   0.812  0.00  0.00    +0.156 HD
ATOM     12  H   UNL     1       1.736  -9.386  -1.323  0.00  0.00    +0.149 HD
ENDROOT
BRANCH   1  17
ATOM     13  C   UNL     1       0.027   1.503   0.006  0.00  0.00    +0.044 C 
ATOM     14  C   UNL     1       0.035  -0.004  -0.001  0.00  0.00    -0.049 A 
ATOM     15  C   UNL     1       0.633  -0.685  -1.046  0.00  0.00    +0.005 A 
ATOM     16  C   UNL     1       0.642  -2.066  -1.056  0.00  0.00    +0.025 A 
ATOM     17  C   UNL     1       0.051  -2.771  -0.015  0.00  0.00    +0.049 A 
ATOM     18  C   UNL     1      -0.548  -2.084   1.033  0.00  0.00    +0.039 A 
ATOM     19  C   UNL     1      -0.550  -0.702   1.039  0.00  0.00    +0.020 A 
ATOM     20 BR   UNL     1      -1.355  -3.038   2.452  0.00  0.00    -0.048 Br
ENDBRANCH   1  17
TORSDOF 1
