REMARK  Name = ZINC00045110
REMARK  5 active torsions:
REMARK  status: ('A' for Active; 'I' for Inactive)
REMARK    1  A    between atoms: C_1  and  C_2
REMARK    2  A    between atoms: C_2  and  C_3
REMARK    3  A    between atoms: C_9  and  C_10
REMARK    4  A    between atoms: C_9  and  N_48
REMARK    5  A    between atoms: C_11  and  O_25
REMARK                            x       y       z     vdW  Elec       q    Type
REMARK                         _______ _______ _______ _____ _____    ______ ____
ROOT
ATOM      1  C   UNL     1       1.756   1.357   0.882  0.00  0.00    +0.020 A 
ATOM      2  C   UNL     1       1.032   0.904  -0.209  0.00  0.00    +0.122 A 
ATOM      3  C   UNL     1       1.566   0.983  -1.491  0.00  0.00    +0.046 A 
ATOM      4  C   UNL     1       2.824   1.510  -1.683  0.00  0.00    +0.016 A 
ATOM      5  C   UNL     1       3.562   1.964  -0.590  0.00  0.00    +0.026 A 
ATOM      6  C   UNL     1       3.027   1.886   0.705  0.00  0.00    +0.144 A 
ATOM      7  O   UNL     1       3.726   2.321   1.777  0.00  0.00    -0.421 OA
ATOM      8  C   UNL     1       4.957   2.848   1.680  0.00  0.00    +0.345 A 
ATOM      9  O   UNL     1       5.536   3.222   2.681  0.00  0.00    -0.245 OA
ATOM     10  C   UNL     1       5.608   2.975   0.368  0.00  0.00    +0.067 A 
ATOM     11  C   UNL     1       4.911   2.532  -0.776  0.00  0.00    -0.000 A 
ATOM     12  C   UNL     1       5.499   2.638  -2.030  0.00  0.00    +0.009 A 
ATOM     13  C   UNL     1       6.764   3.179  -2.146  0.00  0.00    +0.001 A 
ATOM     14  C   UNL     1       7.451   3.615  -1.023  0.00  0.00    +0.001 A 
ATOM     15  C   UNL     1       6.884   3.518   0.231  0.00  0.00    +0.015 A 
ENDROOT
BRANCH   2  16
ATOM     16  O   UNL     1      -0.209   0.383  -0.026  0.00  0.00    -0.506 OA
ATOM     17  H   UNL     1      -0.217  -0.572   0.123  0.00  0.00    +0.292 HD
ENDBRANCH   2  16
BRANCH   1  18
ATOM     18  C   UNL     1       1.163   1.270   2.265  0.00  0.00    -0.035 C 
BRANCH  18  24
ATOM     19  C   UNL     1       0.796  -0.229   4.130  0.00  0.00    -0.068 C 
ATOM     20  C   UNL     1       1.083  -1.636   4.657  0.00  0.00    -0.015 C 
ATOM     21  C   UNL     1       2.589  -1.794   4.884  0.00  0.00    -0.003 C 
ATOM     22  C   UNL     1       3.326  -1.522   3.570  0.00  0.00    -0.019 C 
ATOM     23  C   UNL     1       2.974  -0.118   3.074  0.00  0.00    -0.078 C 
ATOM     24  N   UNL     1       1.514  -0.039   2.852  0.00  0.00    +0.384 N 
ATOM     25  H   UNL     1       1.236  -0.782   2.200  0.00  0.00    -0.081 HD
BRANCH  19  27
ATOM     26  C   UNL     1      -1.460  -0.241   5.204  0.00  0.00    +0.002 C 
ATOM     27  C   UNL     1      -0.706  -0.073   3.883  0.00  0.00    -0.019 C 
ENDBRANCH  19  27
ENDBRANCH  18  24
ENDBRANCH   1  18
TORSDOF 4
