REMARK  Name = ZINC53215377
REMARK  6 active torsions:
REMARK  status: ('A' for Active; 'I' for Inactive)
REMARK    1  A    between atoms: C_3  and  N_26
REMARK    2  A    between atoms: C_6  and  C_7
REMARK    3  A    between atoms: C_7  and  C_8
REMARK    4  A    between atoms: C_8  and  N_9
REMARK    5  A    between atoms: C_10  and  C_12
REMARK    6  A    between atoms: N_16  and  C_18
REMARK                            x       y       z     vdW  Elec       q    Type
REMARK                         _______ _______ _______ _____ _____    ______ ____
ROOT
ATOM      1  N   UNL     1      -3.003  -1.778  -1.421  0.00  0.00    -0.315 N 
ATOM      2  C   UNL     1      -3.593  -2.117  -2.585  0.00  0.00    +0.218 C 
ATOM      3  O   UNL     1      -3.082  -1.801  -3.639  0.00  0.00    -0.275 OA
ATOM      4  H   UNL     1      -3.412  -2.031  -0.579  0.00  0.00    +0.149 HD
ENDROOT
BRANCH   2   5
ATOM      5  C   UNL     1      -4.888  -2.888  -2.577  0.00  0.00    +0.101 C 
ATOM      6  C   UNL     1      -4.675  -4.321  -2.037  0.00  0.00    +0.110 C 
ATOM      7  C   UNL     1      -5.598  -5.175  -2.878  0.00  0.00    +0.221 C 
ATOM      8  O   UNL     1      -5.943  -6.305  -2.601  0.00  0.00    -0.275 OA
ATOM      9  N   UNL     1      -5.979  -4.501  -3.976  0.00  0.00    -0.268 N 
ATOM     10  C   UNL     1      -5.377  -3.163  -4.016  0.00  0.00    +0.127 C 
BRANCH   9  11
ATOM     11  C   UNL     1      -6.841  -5.010  -4.957  0.00  0.00    +0.072 A 
ATOM     12  C   UNL     1      -8.211  -4.814  -4.848  0.00  0.00    +0.029 A 
ATOM     13  C   UNL     1      -9.059  -5.316  -5.815  0.00  0.00    +0.040 A 
ATOM     14  C   UNL     1      -8.545  -6.014  -6.895  0.00  0.00    +0.126 A 
ATOM     15  C   UNL     1      -7.179  -6.212  -7.007  0.00  0.00    +0.078 A 
ATOM     16  C   UNL     1      -6.325  -5.706  -6.044  0.00  0.00    +0.147 A 
ATOM     17  F   UNL     1      -4.992  -5.893  -6.157  0.00  0.00    -0.203 F 
ATOM     18  F   UNL     1      -9.377  -6.504  -7.840  0.00  0.00    -0.205 F 
ENDBRANCH   9  11
ENDBRANCH   2   5
BRANCH   1  19
ATOM     19  C   UNL     1      -1.744  -1.028  -1.429  0.00  0.00    +0.109 C 
BRANCH  19  20
ATOM     20  C   UNL     1      -1.293  -0.775   0.010  0.00  0.00    +0.054 C 
BRANCH  20  26
ATOM     21  C   UNL     1      -0.017   1.378   0.010  0.00  0.00    +0.006 A 
ATOM     22  C   UNL     1       1.171   2.086   0.002  0.00  0.00    +0.033 A 
ATOM     23  C   UNL     1       2.377   1.411  -0.013  0.00  0.00    +0.126 A 
ATOM     24  C   UNL     1       2.396   0.029  -0.020  0.00  0.00    +0.033 A 
ATOM     25  C   UNL     1       1.208  -0.679  -0.012  0.00  0.00    +0.006 A 
ATOM     26  C   UNL     1       0.002  -0.004   0.002  0.00  0.00    -0.046 A 
BRANCH  23  27
ATOM     27  N   UNL     1       3.649   2.168  -0.022  0.00  0.00    +0.056 N 
ATOM     28  O   UNL     1       3.633   3.377  -0.016  0.00  0.00    -0.126 OA
ATOM     29  O   UNL     1       4.704   1.578  -0.035  0.00  0.00    -0.126 OA
ENDBRANCH  23  27
ENDBRANCH  20  26
ENDBRANCH  19  20
ENDBRANCH   1  19
TORSDOF 6
