REMARK  Name = ZINC14533497
REMARK  9 active torsions:
REMARK  status: ('A' for Active; 'I' for Inactive)
REMARK    1  A    between atoms: C_1  and  C_2
REMARK    2  A    between atoms: C_2  and  C_3
REMARK    3  A    between atoms: C_2  and  N_4
REMARK    4  A    between atoms: C_12  and  C_13
REMARK    5  A    between atoms: C_12  and  N_68
REMARK    6  A    between atoms: N_15  and  C_22
REMARK    7  A    between atoms: N_23  and  C_26
REMARK    8  A    between atoms: C_26  and  C_27
REMARK    9  A    between atoms: C_27  and  C_28
REMARK                            x       y       z     vdW  Elec       q    Type
REMARK                         _______ _______ _______ _____ _____    ______ ____
ROOT
ATOM      1  N   UNL     1      -0.747   3.043   1.253  0.00  0.00    -0.222 N 
ATOM      2  C   UNL     1      -1.873   3.785   1.299  0.00  0.00    +0.247 C 
ATOM      3  O   UNL     1      -3.017   3.383   1.319  0.00  0.00    -0.273 OA
ATOM      4  C   UNL     1      -1.408   5.222   1.323  0.00  0.00    +0.112 C 
ATOM      5  C   UNL     1      -1.934   5.970   0.102  0.00  0.00    +0.017 C 
ATOM      6  C   UNL     1      -1.470   7.428   0.163  0.00  0.00    -0.076 C 
ATOM      7  C   UNL     1      -1.397   7.373   2.586  0.00  0.00    -0.076 C 
ATOM      8  C   UNL     1      -1.859   5.912   2.607  0.00  0.00    +0.017 C 
ATOM      9  N   UNL     1       0.056   5.125   1.277  0.00  0.00    -0.271 N 
ATOM     10  C   UNL     1       0.349   3.811   1.238  0.00  0.00    +0.312 C 
ATOM     11  O   UNL     1       1.482   3.373   1.193  0.00  0.00    -0.252 OA
ATOM     12  N   UNL     1      -1.985   8.043   1.406  0.00  0.00    +0.383 N 
ATOM     13  H   UNL     1      -3.005   7.932   1.434  0.00  0.00    -0.081 HD
ENDROOT
BRANCH   1  15
ATOM     14  C   UNL     1      -0.036   1.109  -0.063  0.00  0.00    +0.028 C 
ATOM     15  C   UNL     1      -0.727   1.579   1.219  0.00  0.00    +0.080 C 
ATOM     16  C   UNL     1       0.039   1.050   2.434  0.00  0.00    +0.028 C 
ENDBRANCH   1  15
BRANCH  12  17
ATOM     17  C   UNL     1      -1.658   9.483   1.429  0.00  0.00    -0.041 C 
BRANCH  17  18
ATOM     18  C   UNL     1      -2.443  10.176   0.346  0.00  0.00    -0.039 A 
ATOM     19  C   UNL     1      -1.983  10.553  -0.858  0.00  0.00    +0.088 A 
ATOM     20  N   UNL     1      -2.984  11.152  -1.573  0.00  0.00    -0.349 N 
ATOM     21  C   UNL     1      -4.142  11.176  -0.829  0.00  0.00    +0.049 A 
ATOM     22  C   UNL     1      -3.856  10.560   0.404  0.00  0.00    +0.001 A 
ATOM     23  C   UNL     1      -4.854  10.446   1.373  0.00  0.00    +0.010 A 
ATOM     24  C   UNL     1      -6.108  10.924   1.116  0.00  0.00    +0.001 A 
ATOM     25  C   UNL     1      -6.396  11.527  -0.100  0.00  0.00    +0.002 A 
ATOM     26  C   UNL     1      -5.425  11.655  -1.069  0.00  0.00    +0.026 A 
ATOM     27  C   UNL     1      -2.844  11.689  -2.929  0.00  0.00    +0.149 C 
ENDBRANCH  17  18
ENDBRANCH  12  17
BRANCH   9  28
ATOM     28  C   UNL     1       1.010   6.238   1.273  0.00  0.00    +0.115 C 
BRANCH  28  29
ATOM     29  C   UNL     1       1.818   6.221   2.572  0.00  0.00    +0.054 C 
BRANCH  29  30
ATOM     30  C   UNL     1       2.712   7.433   2.623  0.00  0.00    -0.046 A 
ATOM     31  C   UNL     1       3.992   7.370   2.103  0.00  0.00    +0.004 A 
ATOM     32  C   UNL     1       4.810   8.484   2.145  0.00  0.00    +0.000 A 
ATOM     33  C   UNL     1       4.353   9.657   2.716  0.00  0.00    +0.000 A 
ATOM     34  C   UNL     1       3.075   9.718   3.240  0.00  0.00    +0.000 A 
ATOM     35  C   UNL     1       2.255   8.606   3.193  0.00  0.00    +0.004 A 
ENDBRANCH  29  30
ENDBRANCH  28  29
ENDBRANCH   9  28
TORSDOF 6
