REMARK  Name = ZINC26463818
REMARK  4 active torsions:
REMARK  status: ('A' for Active; 'I' for Inactive)
REMARK    1  A    between atoms: C_1  and  C_2
REMARK    2  A    between atoms: C_4  and  C_22
REMARK    3  A    between atoms: N_15  and  C_18
REMARK    4  A    between atoms: C_18  and  C_19
REMARK                            x       y       z     vdW  Elec       q    Type
REMARK                         _______ _______ _______ _____ _____    ______ ____
ROOT
ATOM      1  C   UNL     1      -2.856  -1.573  -1.527  0.00  0.00    +0.040 C 
ATOM      2  C   UNL     1      -2.067  -0.515  -0.753  0.00  0.00    +0.148 C 
ATOM      3  C   UNL     1      -1.997  -0.876   0.748  0.00  0.00    +0.148 C 
ATOM      4  O   UNL     1      -0.656  -0.538   1.153  0.00  0.00    -0.332 OA
ATOM      5  C   UNL     1       0.002  -0.004   0.002  0.00  0.00    +0.279 C 
ATOM      6  O   UNL     1      -0.673  -0.520  -1.155  0.00  0.00    -0.332 OA
ATOM      7  C   UNL     1       1.461  -0.369  -0.015  0.00  0.00    +0.043 A 
ATOM      8  C   UNL     1       2.135  -1.570  -0.030  0.00  0.00    +0.031 A 
ATOM      9  C   UNL     1       3.520  -1.587  -0.044  0.00  0.00    +0.042 A 
ATOM     10  C   UNL     1       4.223  -0.395  -0.043  0.00  0.00    +0.022 A 
ATOM     11  C   UNL     1       3.551   0.809  -0.029  0.00  0.00    +0.025 A 
ATOM     12  C   UNL     1       2.158   0.835  -0.015  0.00  0.00    +0.046 A 
ATOM     13  N   UNL     1       1.265   1.909   0.000  0.00  0.00    -0.253 N 
ATOM     14  C   UNL     1      -0.018   1.502   0.010  0.00  0.00    +0.286 C 
ATOM     15  O   UNL     1      -1.002   2.212   0.019  0.00  0.00    -0.269 OA
ATOM     16 CL   UNL     1       4.371  -3.100  -0.063  0.00  0.00    -0.084 Cl
ATOM     17  C   UNL     1      -3.015  -0.051   1.540  0.00  0.00    +0.040 C 
ENDROOT
BRANCH  13  18
ATOM     18  C   UNL     1       1.677   3.315   0.004  0.00  0.00    +0.232 C 
BRANCH  18  19
ATOM     19  C   UNL     1       1.829   3.777   1.393  0.00  0.00    +0.082 C 
ATOM     20  N   UNL     1       1.946   4.135   2.465  0.00  0.00    -0.195 NA
ENDBRANCH  18  19
ENDBRANCH  13  18
TORSDOF 2
