REMARK  Name = ZINC67251688
REMARK  8 active torsions:
REMARK  status: ('A' for Active; 'I' for Inactive)
REMARK    1  A    between atoms: C_1  and  C_2
REMARK    2  A    between atoms: C_2  and  C_4
REMARK    3  A    between atoms: C_2  and  N_16
REMARK    4  A    between atoms: C_8  and  S_10
REMARK    5  A    between atoms: S_10  and  N_13
REMARK    6  A    between atoms: N_13  and  C_14
REMARK    7  A    between atoms: N_13  and  C_15
REMARK    8  A    between atoms: N_19  and  C_20
REMARK                            x       y       z     vdW  Elec       q    Type
REMARK                         _______ _______ _______ _____ _____    ______ ____
ROOT
ATOM      1  C   UNL     1      -0.014   1.504   0.027  0.00  0.00    +0.033 C 
ATOM      2  C   UNL     1      -0.002  -0.025   0.008  0.00  0.00    +0.102 C 
ENDROOT
BRANCH   2   3
ATOM      3  C   UNL     1       0.720  -0.538   1.227  0.00  0.00    -0.026 A 
ATOM      4  C   UNL     1       2.103  -0.557   1.255  0.00  0.00    +0.005 A 
ATOM      5  C   UNL     1       2.765  -1.026   2.373  0.00  0.00    +0.002 A 
ATOM      6  C   UNL     1       2.046  -1.477   3.464  0.00  0.00    +0.028 A 
ATOM      7  C   UNL     1       0.664  -1.458   3.437  0.00  0.00    +0.106 A 
ATOM      8  C   UNL     1       0.001  -0.984   2.320  0.00  0.00    +0.034 A 
BRANCH   7   9
ATOM      9  S   UNL     1      -0.253  -2.033   4.827  0.00  0.00    +0.060 S 
ATOM     10  O   UNL     1      -1.531  -2.418   4.340  0.00  0.00    -0.153 OA
ATOM     11  O   UNL     1       0.596  -2.929   5.531  0.00  0.00    -0.153 OA
BRANCH   9  12
ATOM     12  N   UNL     1      -0.499  -0.733   5.823  0.00  0.00    -0.183 NA
ATOM     13  C   UNL     1      -1.691   0.102   5.657  0.00  0.00    +0.131 C 
ATOM     14  C   UNL     1       0.475  -0.417   6.870  0.00  0.00    +0.131 C 
ENDBRANCH   9  12
ENDBRANCH   7   9
ENDBRANCH   2   3
BRANCH   2  15
ATOM     15  N   UNL     1       0.684  -0.493  -1.199  0.00  0.00    -0.293 N 
ATOM     16  C   UNL     1       0.005  -0.613  -2.357  0.00  0.00    +0.304 C 
ATOM     17  O   UNL     1      -1.177  -0.332  -2.401  0.00  0.00    -0.252 OA
ATOM     18  N   UNL     1       0.637  -1.043  -3.467  0.00  0.00    -0.267 N 
ATOM     19  H   UNL     1       1.628  -0.717  -1.165  0.00  0.00    +0.151 HD
ATOM     20  H   UNL     1       1.596  -1.188  -3.454  0.00  0.00    +0.156 HD
BRANCH  18  21
ATOM     21  C   UNL     1      -0.092  -1.280  -4.641  0.00  0.00    +0.070 A 
ATOM     22  C   UNL     1      -1.445  -1.579  -4.570  0.00  0.00    +0.027 A 
ATOM     23  C   UNL     1      -2.162  -1.812  -5.728  0.00  0.00    +0.022 A 
ATOM     24  C   UNL     1      -1.532  -1.749  -6.958  0.00  0.00    +0.044 A 
ATOM     25  C   UNL     1      -0.182  -1.451  -7.033  0.00  0.00    +0.060 A 
ATOM     26  C   UNL     1       0.539  -1.210  -5.878  0.00  0.00    +0.146 A 
ATOM     27  F   UNL     1       1.855  -0.914  -5.951  0.00  0.00    -0.203 F 
ATOM     28 CL   UNL     1      -2.436  -2.043  -8.411  0.00  0.00    -0.083 Cl
ENDBRANCH  18  21
ENDBRANCH   2  15
TORSDOF 5
