REMARK  Name = ZINC59181790
REMARK  8 active torsions:
REMARK  status: ('A' for Active; 'I' for Inactive)
REMARK    1  A    between atoms: C_1  and  C_2
REMARK    2  A    between atoms: C_2  and  C_4
REMARK    3  A    between atoms: C_2  and  O_18
REMARK    4  A    between atoms: C_4  and  N_5
REMARK    5  A    between atoms: N_8  and  C_11
REMARK    6  A    between atoms: C_11  and  C_12
REMARK    7  A    between atoms: O_18  and  C_19
REMARK    8  A    between atoms: C_19  and  C_21
REMARK                            x       y       z     vdW  Elec       q    Type
REMARK                         _______ _______ _______ _____ _____    ______ ____
ROOT
ATOM      1  C   UNL     1      -0.019   1.526   0.010  0.00  0.00    +0.053 C 
ATOM      2  C   UNL     1       0.002  -0.004   0.002  0.00  0.00    +0.187 C 
ENDROOT
BRANCH   2   3
ATOM      3  C   UNL     1       0.718  -0.497  -1.257  0.00  0.00    +0.128 C 
BRANCH   3   4
ATOM      4  N   UNL     1       0.634  -1.962  -1.326  0.00  0.00    -0.302 NA
ATOM      5  C   UNL     1      -0.755  -2.401  -1.525  0.00  0.00    +0.066 C 
ATOM      6  C   UNL     1      -0.807  -3.931  -1.532  0.00  0.00    -0.063 C 
ATOM      7  N   UNL     1       0.047  -4.445  -2.610  0.00  0.00    +0.384 N 
ATOM      8  C   UNL     1       1.434  -4.020  -2.384  0.00  0.00    -0.063 C 
ATOM      9  C   UNL     1       1.505  -2.491  -2.385  0.00  0.00    +0.066 C 
ATOM     10  H   UNL     1      -0.276  -4.084  -3.495  0.00  0.00    -0.081 HD
BRANCH   7  11
ATOM     11  C   UNL     1      -0.018  -5.913  -2.627  0.00  0.00    -0.043 C 
BRANCH  11  12
ATOM     12  C   UNL     1       0.759  -6.436  -3.808  0.00  0.00    -0.064 A 
ATOM     13  C   UNL     1       0.128  -6.619  -5.024  0.00  0.00    +0.002 A 
ATOM     14  C   UNL     1       0.840  -7.099  -6.107  0.00  0.00    +0.000 A 
ATOM     15  C   UNL     1       2.184  -7.396  -5.974  0.00  0.00    +0.000 A 
ATOM     16  C   UNL     1       2.815  -7.212  -4.758  0.00  0.00    +0.000 A 
ATOM     17  C   UNL     1       2.103  -6.728  -3.676  0.00  0.00    +0.002 A 
ENDBRANCH  11  12
ENDBRANCH   7  11
ENDBRANCH   3   4
ENDBRANCH   2   3
BRANCH   2  18
ATOM     18  O   UNL     1       0.693  -0.477   1.160  0.00  0.00    -0.458 OA
BRANCH  18  19
ATOM     19  C   UNL     1      -0.042  -0.697   2.261  0.00  0.00    +0.352 C 
ATOM     20  O   UNL     1      -1.233  -0.493   2.243  0.00  0.00    -0.247 OA
BRANCH  19  21
ATOM     21  C   UNL     1       0.618  -1.196   3.521  0.00  0.00    +0.318 C 
ATOM     22  C   UNL     1       1.579  -0.129   4.060  0.00  0.00    +0.285 C 
ATOM     23  O   UNL     1       2.177  -0.629   5.261  0.00  0.00    -0.484 OA
ATOM     24  C   UNL     1       1.340  -1.205   6.166  0.00  0.00    +0.162 A 
ATOM     25  C   UNL     1       1.768  -1.378   7.474  0.00  0.00    +0.049 A 
ATOM     26  C   UNL     1       0.930  -1.964   8.404  0.00  0.00    +0.004 A 
ATOM     27  C   UNL     1      -0.336  -2.379   8.034  0.00  0.00    +0.004 A 
ATOM     28  C   UNL     1      -0.768  -2.208   6.733  0.00  0.00    +0.049 A 
ATOM     29  C   UNL     1       0.067  -1.619   5.795  0.00  0.00    +0.163 A 
ATOM     30  O   UNL     1      -0.377  -1.450   4.519  0.00  0.00    -0.471 OA
ENDBRANCH  19  21
ENDBRANCH  18  19
ENDBRANCH   2  18
TORSDOF 7
