REMARK  Name = ZINC23633984
REMARK  4 active torsions:
REMARK  status: ('A' for Active; 'I' for Inactive)
REMARK    1  A    between atoms: C_6  and  N_7
REMARK    2  A    between atoms: C_11  and  C_12
REMARK    3  A    between atoms: C_15  and  O_19
REMARK    4  A    between atoms: C_16  and  O_18
REMARK                            x       y       z     vdW  Elec       q    Type
REMARK                         _______ _______ _______ _____ _____    ______ ____
ROOT
ATOM      1  N   UNL     1      -0.001   1.257  -0.781  0.00  0.00    -0.184 N 
ATOM      2  C   UNL     1       0.031  -0.080  -0.626  0.00  0.00    +0.272 C 
ATOM      3  O   UNL     1      -0.906  -0.846  -0.752  0.00  0.00    -0.268 OA
ATOM      4  C   UNL     1       1.419  -0.438  -0.277  0.00  0.00    +0.102 C 
ATOM      5  C   UNL     1       1.923  -1.697  -0.025  0.00  0.00    +0.026 C 
ATOM      6  C   UNL     1       2.151   0.843  -0.255  0.00  0.00    +0.266 C 
ATOM      7  O   UNL     1       3.333   0.999  -0.009  0.00  0.00    -0.268 OA
ATOM      8  N   UNL     1       1.262   1.807  -0.559  0.00  0.00    -0.223 N 
ATOM      9  H   UNL     1       1.411   2.893  -0.646  0.00  0.00    +0.174 HD
ENDROOT
BRANCH   1  15
ATOM     10  C   UNL     1      -2.350   1.343  -1.333  0.00  0.00    +0.026 A 
ATOM     11  C   UNL     1      -3.475   2.072  -1.665  0.00  0.00    +0.022 A 
ATOM     12  C   UNL     1      -3.396   3.448  -1.798  0.00  0.00    +0.041 A 
ATOM     13  C   UNL     1      -2.191   4.096  -1.594  0.00  0.00    +0.022 A 
ATOM     14  C   UNL     1      -1.064   3.373  -1.256  0.00  0.00    +0.026 A 
ATOM     15  C   UNL     1      -1.141   1.993  -1.122  0.00  0.00    +0.056 A 
ATOM     16 CL   UNL     1      -4.810   4.360  -2.223  0.00  0.00    -0.084 Cl
ENDBRANCH   1  15
BRANCH   5  17
ATOM     17  C   UNL     1       1.015  -2.839   0.088  0.00  0.00    -0.020 A 
ATOM     18  C   UNL     1       1.388  -4.089  -0.428  0.00  0.00    +0.012 A 
ATOM     19  C   UNL     1       0.532  -5.161  -0.320  0.00  0.00    +0.050 A 
ATOM     20  C   UNL     1      -0.703  -5.009   0.299  0.00  0.00    +0.158 A 
ATOM     21  C   UNL     1      -1.083  -3.770   0.816  0.00  0.00    +0.159 A 
ATOM     22  C   UNL     1      -0.230  -2.690   0.717  0.00  0.00    +0.057 A 
BRANCH  21  23
ATOM     23  O   UNL     1      -2.292  -3.627   1.421  0.00  0.00    -0.503 OA
ATOM     24  H   UNL     1      -2.592  -2.650   1.828  0.00  0.00    +0.292 HD
ENDBRANCH  21  23
BRANCH  20  25
ATOM     25  O   UNL     1      -1.542  -6.071   0.403  0.00  0.00    -0.503 OA
ATOM     26  H   UNL     1      -2.520  -5.953   0.893  0.00  0.00    +0.292 HD
ENDBRANCH  20  25
ENDBRANCH   5  17
TORSDOF 4
