REMARK  Name = ZINC23821804
REMARK  6 active torsions:
REMARK  status: ('A' for Active; 'I' for Inactive)
REMARK    1  A    between atoms: C_7  and  N_11
REMARK    2  A    between atoms: C_8  and  C_9
REMARK    3  A    between atoms: C_12  and  C_14
REMARK    4  A    between atoms: C_14  and  C_15
REMARK    5  A    between atoms: C_15  and  N_16
REMARK    6  A    between atoms: C_22  and  C_24
REMARK                            x       y       z     vdW  Elec       q    Type
REMARK                         _______ _______ _______ _____ _____    ______ ____
ROOT
ATOM      1  N   UNL     1      -7.914   8.561   2.522  0.00  0.00    -0.279 N 
ATOM      2  C   UNL     1      -6.813   8.563   1.744  0.00  0.00    +0.219 C 
ATOM      3  O   UNL     1      -6.141   9.568   1.648  0.00  0.00    -0.275 OA
ATOM      4  H   UNL     1      -8.524   7.650   2.609  0.00  0.00    +0.155 HD
ENDROOT
BRANCH   1  11
ATOM      5  C   UNL     1     -10.109  13.762   6.631  0.00  0.00    +0.001 C 
ATOM      6  C   UNL     1     -10.959  13.028   5.596  0.00  0.00    +0.005 C 
ATOM      7  C   UNL     1     -10.662  11.532   5.625  0.00  0.00    +0.037 C 
ATOM      8  C   UNL     1      -9.523  11.211   4.665  0.00  0.00    -0.018 A 
ATOM      9  C   UNL     1      -8.578  12.116   4.329  0.00  0.00    -0.004 A 
ATOM     10  S   UNL     1      -7.482  11.246   3.241  0.00  0.00    -0.077 S 
ATOM     11  C   UNL     1      -8.278   9.708   3.213  0.00  0.00    +0.090 A 
ATOM     12  C   UNL     1      -9.363   9.900   4.053  0.00  0.00    +0.084 A 
ATOM     13  C   UNL     1      -8.474  13.541   4.776  0.00  0.00    +0.043 C 
ATOM     14  C   UNL     1      -8.628  13.605   6.301  0.00  0.00    +0.005 C 
BRANCH  12  15
ATOM     15  C   UNL     1     -10.295   8.844   4.311  0.00  0.00    +0.102 C 
ATOM     16  N   UNL     1     -11.034   8.006   4.515  0.00  0.00    -0.191 NA
ENDBRANCH  12  15
ENDBRANCH   1  11
BRANCH   2  17
ATOM     17  C   UNL     1      -6.418   7.318   0.994  0.00  0.00    +0.111 C 
BRANCH  17  18
ATOM     18  C   UNL     1      -5.142   7.588   0.193  0.00  0.00    +0.093 C 
BRANCH  18  19
ATOM     19  N   UNL     1      -4.757   6.373  -0.538  0.00  0.00    -0.299 NA
ATOM     20  C   UNL     1      -3.681   6.656  -1.498  0.00  0.00    +0.103 C 
ATOM     21  C   UNL     1      -3.434   5.415  -2.363  0.00  0.00    +0.123 C 
ATOM     22  N   UNL     1      -3.191   4.268  -1.476  0.00  0.00    -0.297 N 
ATOM     23  C   UNL     1      -4.161   3.999  -0.403  0.00  0.00    +0.123 C 
ATOM     24  C   UNL     1      -4.376   5.299   0.389  0.00  0.00    +0.103 C 
ATOM     25  C   UNL     1      -2.110   3.480  -1.644  0.00  0.00    +0.245 C 
ATOM     26  O   UNL     1      -1.323   3.713  -2.537  0.00  0.00    -0.273 OA
BRANCH  25  27
ATOM     27  C   UNL     1      -1.880   2.309  -0.724  0.00  0.00    +0.204 C 
ATOM     28  C   UNL     1      -1.552   2.804   0.708  0.00  0.00    +0.043 C 
ATOM     29  C   UNL     1      -0.753   1.593   1.264  0.00  0.00    +0.031 C 
ATOM     30  C   UNL     1      -0.013   1.086   0.008  0.00  0.00    +0.161 C 
ATOM     31  O   UNL     1      -0.722   1.569  -1.139  0.00  0.00    -0.367 OA
ENDBRANCH  25  27
ENDBRANCH  18  19
ENDBRANCH  17  18
ENDBRANCH   2  17
TORSDOF 6
