REMARK  Name = ZINC00850043
REMARK  9 active torsions:
REMARK  status: ('A' for Active; 'I' for Inactive)
REMARK    1  A    between atoms: C_1  and  C_2
REMARK    2  A    between atoms: C_9  and  C_17
REMARK    3  A    between atoms: C_11  and  C_15
REMARK    4  A    between atoms: C_12  and  N_14
REMARK    5  A    between atoms: C_20  and  O_31
REMARK    6  A    between atoms: C_21  and  O_23
REMARK    7  A    between atoms: O_23  and  C_24
REMARK    8  A    between atoms: C_24  and  C_25
REMARK    9  A    between atoms: O_31  and  C_32
REMARK                            x       y       z     vdW  Elec       q    Type
REMARK                         _______ _______ _______ _____ _____    ______ ____
ROOT
ATOM      1  C   UNL     1       7.875   2.605   4.712  0.00  0.00    +0.086 C 
ATOM      2  C   UNL     1       7.122   2.975   3.460  0.00  0.00    +0.110 A 
ATOM      3  C   UNL     1       7.488   2.413   2.293  0.00  0.00    +0.088 A 
ATOM      4  C   UNL     1       6.791   2.751   1.110  0.00  0.00    +0.144 A 
ATOM      5  C   UNL     1       5.752   3.649   1.198  0.00  0.00    +0.092 A 
ATOM      6  C   UNL     1       5.429   4.193   2.449  0.00  0.00    +0.345 A 
ATOM      7  O   UNL     1       4.511   4.991   2.540  0.00  0.00    -0.245 OA
ATOM      8  O   UNL     1       6.115   3.849   3.548  0.00  0.00    -0.427 OA
ATOM      9  C   UNL     1       4.972   4.048  -0.024  0.00  0.00    +0.105 C 
ATOM     10  C   UNL     1       5.728   3.662  -1.266  0.00  0.00    +0.098 C 
ATOM     11  C   UNL     1       6.751   2.777  -1.219  0.00  0.00    +0.199 C 
ATOM     12  O   UNL     1       7.143   2.201  -0.069  0.00  0.00    -0.441 OA
ENDROOT
BRANCH   9  13
ATOM     13  C   UNL     1       3.637   3.349  -0.015  0.00  0.00    -0.031 A 
ATOM     14  C   UNL     1       3.581   1.967  -0.021  0.00  0.00    +0.008 A 
ATOM     15  C   UNL     1       2.359   1.321  -0.013  0.00  0.00    +0.050 A 
ATOM     16  C   UNL     1       1.186   2.059   0.002  0.00  0.00    +0.162 A 
ATOM     17  C   UNL     1       1.242   3.449   0.003  0.00  0.00    +0.163 A 
ATOM     18  C   UNL     1       2.470   4.090   0.001  0.00  0.00    +0.054 A 
BRANCH  16  19
ATOM     19  O   UNL     1      -0.017   1.425   0.010  0.00  0.00    -0.491 OA
ATOM     20  C   UNL     1       0.002  -0.004   0.002  0.00  0.00    +0.277 C 
ENDBRANCH  16  19
BRANCH  17  21
ATOM     21  O   UNL     1       0.093   4.177   0.012  0.00  0.00    -0.484 OA
BRANCH  21  22
ATOM     22  C   UNL     1       0.227   5.600   0.013  0.00  0.00    +0.264 C 
BRANCH  22  23
ATOM     23  C   UNL     1      -1.141   6.233   0.024  0.00  0.00    -0.010 A 
ATOM     24  C   UNL     1      -1.775   6.530  -1.169  0.00  0.00    +0.007 A 
ATOM     25  C   UNL     1      -3.031   7.106  -1.159  0.00  0.00    +0.000 A 
ATOM     26  C   UNL     1      -3.650   7.394   0.043  0.00  0.00    +0.000 A 
ATOM     27  C   UNL     1      -3.014   7.102   1.235  0.00  0.00    +0.000 A 
ATOM     28  C   UNL     1      -1.760   6.522   1.226  0.00  0.00    +0.007 A 
ENDBRANCH  22  23
ENDBRANCH  21  22
ENDBRANCH  17  21
ENDBRANCH   9  13
BRANCH  11  29
ATOM     29  N   UNL     1       7.408   2.457  -2.381  0.00  0.00    -0.328 N 
ATOM     30  H   UNL     1       7.137   2.864  -3.219  0.00  0.00    +0.145 HD
ATOM     31  H   UNL     1       8.143   1.825  -2.365  0.00  0.00    +0.145 HD
ENDBRANCH  11  29
BRANCH  10  32
ATOM     32  C   UNL     1       5.357   4.242  -2.521  0.00  0.00    +0.101 C 
ATOM     33  N   UNL     1       5.064   4.703  -3.517  0.00  0.00    -0.191 NA
ENDBRANCH  10  32
TORSDOF 7
