REMARK  Name = ZINC32802778
REMARK  9 active torsions:
REMARK  status: ('A' for Active; 'I' for Inactive)
REMARK    1  A    between atoms: C_1  and  C_2
REMARK    2  A    between atoms: C_2  and  C_3
REMARK    3  A    between atoms: C_2  and  C_4
REMARK    4  A    between atoms: C_2  and  C_5
REMARK    5  A    between atoms: C_8  and  C_11
REMARK    6  A    between atoms: C_11  and  N_12
REMARK    7  A    between atoms: N_12  and  C_13
REMARK    8  A    between atoms: N_16  and  C_17
REMARK    9  A    between atoms: C_23  and  C_25
REMARK                            x       y       z     vdW  Elec       q    Type
REMARK                         _______ _______ _______ _____ _____    ______ ____
ROOT
ATOM      1  N   UNL     1       1.354   6.070   0.454  0.00  0.00    -0.284 N 
ATOM      2  C   UNL     1       0.034   6.515   0.909  0.00  0.00    +0.134 C 
ATOM      3  C   UNL     1       1.618   4.754   0.338  0.00  0.00    +0.302 C 
ATOM      4  O   UNL     1       2.713   4.385  -0.040  0.00  0.00    -0.253 OA
ATOM      5  N   UNL     1       0.669   3.847   0.640  0.00  0.00    -0.296 N 
ATOM      6  H   UNL     1      -0.322   4.180   0.982  0.00  0.00    +0.151 HD
ENDROOT
BRANCH   5   7
ATOM      7  C   UNL     1       0.956   2.416   0.514  0.00  0.00    +0.077 C 
ATOM      8  C   UNL     1      -0.351   1.650   0.296  0.00  0.00    +0.041 C 
ATOM      9  C   UNL     1      -0.043   0.159   0.130  0.00  0.00    +0.110 C 
ATOM     10  N   UNL     1       0.736  -0.295   1.290  0.00  0.00    -0.295 N 
ATOM     11  C   UNL     1       1.965   0.429   1.642  0.00  0.00    +0.110 C 
ATOM     12  C   UNL     1       1.635   1.917   1.792  0.00  0.00    +0.041 C 
ATOM     13  C   UNL     1       0.331  -1.356   2.016  0.00  0.00    +0.282 C 
ATOM     14  O   UNL     1      -0.753  -1.864   1.799  0.00  0.00    -0.267 OA
BRANCH  13  15
ATOM     15  C   UNL     1       1.198  -1.897   3.069  0.00  0.00    +0.189 A 
ATOM     16  C   UNL     1       0.857  -2.865   3.970  0.00  0.00    +0.054 A 
ATOM     17  C   UNL     1       1.981  -3.073   4.784  0.00  0.00    +0.042 A 
ATOM     18  C   UNL     1       2.947  -2.234   4.349  0.00  0.00    +0.196 A 
ATOM     19  O   UNL     1       2.473  -1.531   3.312  0.00  0.00    -0.458 OA
ENDBRANCH  13  15
ENDBRANCH   5   7
BRANCH   1  20
ATOM     20  C   UNL     1       2.386   7.057   0.125  0.00  0.00    +0.144 C 
BRANCH  20  24
ATOM     21  C   UNL     1       2.100   8.094  -4.009  0.00  0.00    -0.042 A 
ATOM     22  C   UNL     1       1.387   8.811  -3.065  0.00  0.00    +0.004 A 
ATOM     23  C   UNL     1       1.480   8.475  -1.728  0.00  0.00    +0.005 A 
ATOM     24  C   UNL     1       2.285   7.423  -1.333  0.00  0.00    -0.030 A 
ATOM     25  C   UNL     1       3.001   6.709  -2.276  0.00  0.00    +0.005 A 
ATOM     26  C   UNL     1       2.905   7.042  -3.614  0.00  0.00    +0.004 A 
BRANCH  21  28
ATOM     27  C   UNL     1       2.469   9.902  -5.665  0.00  0.00    +0.015 C 
ATOM     28  C   UNL     1       1.998   8.460  -5.467  0.00  0.00    -0.013 C 
ATOM     29  C   UNL     1       2.878   7.518  -6.291  0.00  0.00    +0.015 C 
ATOM     30  C   UNL     1       0.544   8.331  -5.926  0.00  0.00    +0.015 C 
ENDBRANCH  21  28
ENDBRANCH  20  24
ENDBRANCH   1  20
TORSDOF 5
