REMARK  Name = ZINC37756566
REMARK  2 active torsions:
REMARK  status: ('A' for Active; 'I' for Inactive)
REMARK    1  A    between atoms: C_4  and  C_6
REMARK    2  A    between atoms: C_8  and  C_11
REMARK                            x       y       z     vdW  Elec       q    Type
REMARK                         _______ _______ _______ _____ _____    ______ ____
ROOT
ATOM      1  C   UNL     1       1.130  -1.229  -1.857  0.00  0.00    +0.175 A 
ATOM      2  N   UNL     1       1.579  -2.468  -2.069  0.00  0.00    -0.191 NA
ATOM      3  C   UNL     1       1.210  -2.881  -3.261  0.00  0.00    +0.261 A 
ATOM      4  O   UNL     1       0.504  -1.895  -3.842  0.00  0.00    -0.333 OA
ATOM      5  N   UNL     1       0.463  -0.832  -2.903  0.00  0.00    -0.061 NA
ENDROOT
BRANCH   3   6
ATOM      6  C   UNL     1       1.516  -4.197  -3.858  0.00  0.00    +0.071 C 
ATOM      7  C   UNL     1       1.086  -4.485  -5.072  0.00  0.00    -0.041 C 
ATOM      8  C   UNL     1       1.721  -5.738  -5.697  0.00  0.00    +0.079 C 
ATOM      9  S   UNL     1       2.485  -6.541  -4.248  0.00  0.00    -0.098 S 
ATOM     10  C   UNL     1       2.309  -5.187  -3.094  0.00  0.00    +0.101 C 
ATOM     11  N   UNL     1       2.766  -5.095  -1.876  0.00  0.00    -0.292 NA
ATOM     12  C   UNL     1       0.483  -6.491  -6.207  0.00  0.00    +0.019 C 
ATOM     13  C   UNL     1      -0.337  -5.348  -6.864  0.00  0.00    +0.006 C 
ATOM     14  C   UNL     1       0.138  -4.045  -6.183  0.00  0.00    +0.033 C 
ATOM     15  H   UNL     1       3.276  -5.825  -1.493  0.00  0.00    +0.187 HD
ENDBRANCH   3   6
BRANCH   1  19
ATOM     16  C   UNL     1      -0.019   1.538   0.011  0.00  0.00    +0.001 C 
ATOM     17  C   UNL     1       1.477   1.939  -0.002  0.00  0.00    +0.001 C 
ATOM     18  C   UNL     1       2.107   0.881  -0.942  0.00  0.00    +0.011 C 
ATOM     19  C   UNL     1       1.353  -0.422  -0.604  0.00  0.00    +0.060 C 
ATOM     20  C   UNL     1       0.002  -0.004   0.002  0.00  0.00    +0.011 C 
ENDBRANCH   1  19
TORSDOF 2
