REMARK  Name = ZINC35378266
REMARK  7 active torsions:
REMARK  status: ('A' for Active; 'I' for Inactive)
REMARK    1  A    between atoms: C_1  and  C_2
REMARK    2  A    between atoms: C_2  and  C_3
REMARK    3  A    between atoms: C_3  and  C_5
REMARK    4  A    between atoms: C_3  and  N_14
REMARK    5  A    between atoms: C_10  and  C_13
REMARK    6  A    between atoms: C_21  and  C_25
REMARK    7  A    between atoms: C_22  and  C_24
REMARK                            x       y       z     vdW  Elec       q    Type
REMARK                         _______ _______ _______ _____ _____    ______ ____
ROOT
ATOM      1  C   UNL     1       0.720  -0.497  -1.258  0.00  0.00    +0.177 C 
ENDROOT
BRANCH   1   2
ATOM      2  N   UNL     1       0.028  -0.204  -2.516  0.00  0.00    -0.287 N 
ATOM      3  C   UNL     1      -1.191  -0.746  -2.761  0.00  0.00    +0.206 A 
ATOM      4  N   UNL     1      -1.849  -0.517  -3.862  0.00  0.00    -0.202 NA
ATOM      5  C   UNL     1      -1.349   0.274  -4.823  0.00  0.00    +0.234 A 
ATOM      6  C   UNL     1      -0.096   0.863  -4.631  0.00  0.00    +0.107 A 
ATOM      7  C   UNL     1       0.605   0.611  -3.429  0.00  0.00    +0.266 A 
ATOM      8  O   UNL     1       1.698   1.110  -3.224  0.00  0.00    -0.267 OA
ATOM      9  C   UNL     1       0.163   1.653  -5.835  0.00  0.00    +0.005 A 
ATOM     10  C   UNL     1      -0.909   1.484  -6.625  0.00  0.00    +0.108 A 
ATOM     11  O   UNL     1      -1.797   0.672  -6.024  0.00  0.00    -0.442 OA
ATOM     12  C   UNL     1      -1.092   2.114  -7.982  0.00  0.00    +0.086 C 
ATOM     13  C   UNL     1       1.384   2.485  -6.129  0.00  0.00    +0.048 C 
ENDBRANCH   1   2
BRANCH   1  14
ATOM     14  C   UNL     1       0.957  -1.982  -1.150  0.00  0.00    +0.239 C 
ATOM     15  O   UNL     1       0.275  -2.753  -1.791  0.00  0.00    -0.273 OA
ATOM     16  N   UNL     1       1.927  -2.452  -0.341  0.00  0.00    -0.300 N 
ATOM     17  C   UNL     1       2.682  -1.541   0.530  0.00  0.00    +0.108 C 
ATOM     18  C   UNL     1       4.179  -1.740   0.272  0.00  0.00    +0.022 C 
ATOM     19  C   UNL     1       4.531  -3.219   0.453  0.00  0.00    -0.011 C 
ATOM     20  C   UNL     1       3.750  -4.059  -0.560  0.00  0.00    +0.022 C 
ATOM     21  C   UNL     1       2.244  -3.886  -0.308  0.00  0.00    +0.108 C 
ATOM     22  C   UNL     1       6.032  -3.417   0.230  0.00  0.00    +0.007 C 
ENDBRANCH   1  14
BRANCH   1  24
ATOM     23  C   UNL     1      -0.272   1.493  -0.119  0.00  0.00    +0.006 C 
ATOM     24  C   UNL     1      -0.141  -0.031  -0.082  0.00  0.00    +0.031 C 
ENDBRANCH   1  24
TORSDOF 3
