REMARK  Name = ZINC59714690
REMARK  8 active torsions:
REMARK  status: ('A' for Active; 'I' for Inactive)
REMARK    1  A    between atoms: C_1  and  C_2
REMARK    2  A    between atoms: C_4  and  C_27
REMARK    3  A    between atoms: C_5  and  O_11
REMARK    4  A    between atoms: C_6  and  N_8
REMARK    5  A    between atoms: O_11  and  C_12
REMARK    6  A    between atoms: C_12  and  C_13
REMARK    7  A    between atoms: N_15  and  C_16
REMARK    8  A    between atoms: C_18  and  C_23
REMARK                            x       y       z     vdW  Elec       q    Type
REMARK                         _______ _______ _______ _____ _____    ______ ____
ROOT
ATOM      1  C   UNL     1       1.162  -6.257  -0.035  0.00  0.00    +0.255 C 
ATOM      2  O   UNL     1       0.048  -6.735  -0.038  0.00  0.00    -0.272 OA
ATOM      3  N   UNL     1       2.242  -7.064  -0.048  0.00  0.00    -0.281 N 
ATOM      4  H   UNL     1       3.131  -6.684  -0.127  0.00  0.00    +0.155 HD
ENDROOT
BRANCH   3   5
ATOM      5  C   UNL     1       2.080  -8.451   0.051  0.00  0.00    +0.052 A 
ATOM      6  C   UNL     1       0.949  -8.978   0.660  0.00  0.00    +0.037 A 
ATOM      7  C   UNL     1       0.792 -10.347   0.755  0.00  0.00    +0.057 A 
ATOM      8  C   UNL     1       1.760 -11.193   0.246  0.00  0.00    +0.014 A 
ATOM      9  C   UNL     1       2.888 -10.672  -0.361  0.00  0.00    +0.022 A 
ATOM     10  C   UNL     1       3.048  -9.303  -0.465  0.00  0.00    +0.062 A 
ATOM     11 CL   UNL     1       4.461  -8.650  -1.234  0.00  0.00    -0.082 Cl
BRANCH   7  12
ATOM     12  C   UNL     1      -0.436 -10.919   1.417  0.00  0.00    +0.417 C 
ATOM     13  F   UNL     1      -1.437 -11.106   0.458  0.00  0.00    -0.166 F 
ATOM     14  F   UNL     1      -0.118 -12.148   2.005  0.00  0.00    -0.166 F 
ATOM     15  F   UNL     1      -0.891 -10.034   2.400  0.00  0.00    -0.166 F 
ENDBRANCH   7  12
ENDBRANCH   3   5
BRANCH   1  16
ATOM     16  C   UNL     1       1.340  -4.761  -0.015  0.00  0.00    +0.325 C 
BRANCH  16  17
ATOM     17  O   UNL     1       0.059  -4.129  -0.003  0.00  0.00    -0.480 OA
BRANCH  17  22
ATOM     18  C   UNL     1      -0.016   1.503   0.071  0.00  0.00    +0.044 C 
ATOM     19  C   UNL     1       0.004  -0.004   0.051  0.00  0.00    -0.048 A 
ATOM     20  C   UNL     1       0.010  -0.678  -1.156  0.00  0.00    +0.010 A 
ATOM     21  C   UNL     1       0.029  -2.059  -1.177  0.00  0.00    -0.006 A 
ATOM     22  C   UNL     1       0.041  -2.770   0.015  0.00  0.00    +0.154 A 
ATOM     23  C   UNL     1       0.035  -2.091   1.224  0.00  0.00    +0.168 A 
ATOM     24  C   UNL     1       0.022  -0.710   1.240  0.00  0.00    +0.039 A 
ATOM     25  C   UNL     1       0.035  -2.794  -2.493  0.00  0.00    +0.047 C 
BRANCH  23  26
ATOM     26  N   UNL     1       0.048  -2.846   2.497  0.00  0.00    +0.060 N 
ATOM     27  O   UNL     1       0.043  -2.254   3.551  0.00  0.00    -0.126 OA
ATOM     28  O   UNL     1       0.064  -4.055   2.483  0.00  0.00    -0.126 OA
ENDBRANCH  23  26
ENDBRANCH  17  22
ENDBRANCH  16  17
ENDBRANCH   1  16
TORSDOF 6
