REMARK  Name = ZINC60101259
REMARK  5 active torsions:
REMARK  status: ('A' for Active; 'I' for Inactive)
REMARK    1  A    between atoms: C_3  and  N_16
REMARK    2  A    between atoms: C_5  and  S_7
REMARK    3  A    between atoms: S_7  and  N_10
REMARK    4  A    between atoms: C_17  and  C_19
REMARK    5  A    between atoms: C_23  and  C_25
REMARK                            x       y       z     vdW  Elec       q    Type
REMARK                         _______ _______ _______ _____ _____    ______ ____
ROOT
ATOM      1  C   UNL     1      -0.013   1.375  -0.180  0.00  0.00    +0.004 A 
ATOM      2  C   UNL     1       1.175   2.081  -0.183  0.00  0.00    +0.023 A 
ATOM      3  C   UNL     1       2.380   1.411  -0.019  0.00  0.00    +0.036 A 
ATOM      4  C   UNL     1       2.387   0.032   0.148  0.00  0.00    +0.052 A 
ATOM      5  C   UNL     1       1.197  -0.668   0.150  0.00  0.00    +0.114 A 
ATOM      6  C   UNL     1      -0.002   0.003  -0.014  0.00  0.00    +0.029 A 
ENDROOT
BRANCH   3   7
ATOM      7  N   UNL     1       3.583   2.123  -0.021  0.00  0.00    -0.281 N 
ATOM      8  C   UNL     1       3.627   3.374   0.478  0.00  0.00    +0.248 C 
ATOM      9  O   UNL     1       2.647   3.848   1.017  0.00  0.00    -0.270 OA
ATOM     10  H   UNL     1       4.387   1.716  -0.382  0.00  0.00    +0.155 HD
BRANCH   8  11
ATOM     11  C   UNL     1       4.867   4.169   0.370  0.00  0.00    +0.038 A 
ATOM     12  C   UNL     1       5.994   3.629  -0.254  0.00  0.00    +0.016 A 
ATOM     13  C   UNL     1       7.149   4.375  -0.352  0.00  0.00    +0.039 A 
ATOM     14  C   UNL     1       7.193   5.660   0.167  0.00  0.00    +0.135 A 
ATOM     15  C   UNL     1       6.078   6.201   0.788  0.00  0.00    +0.091 A 
ATOM     16  C   UNL     1       4.916   5.466   0.886  0.00  0.00    +0.028 A 
ATOM     17  F   UNL     1       8.328   6.387   0.068  0.00  0.00    -0.205 F 
BRANCH  15  18
ATOM     18  C   UNL     1       6.134   7.598   1.351  0.00  0.00    +0.420 C 
ATOM     19  F   UNL     1       4.899   7.920   1.923  0.00  0.00    -0.166 F 
ATOM     20  F   UNL     1       7.133   7.667   2.329  0.00  0.00    -0.166 F 
ATOM     21  F   UNL     1       6.423   8.503   0.325  0.00  0.00    -0.166 F 
ENDBRANCH  15  18
ENDBRANCH   8  11
ENDBRANCH   3   7
BRANCH   5  22
ATOM     22  S   UNL     1       1.205  -2.417   0.361  0.00  0.00    +0.100 S 
ATOM     23  O   UNL     1       0.002  -2.902  -0.220  0.00  0.00    -0.146 OA
ATOM     24  O   UNL     1       2.487  -2.870  -0.051  0.00  0.00    -0.146 OA
BRANCH  22  25
ATOM     25  N   UNL     1       1.098  -2.715   1.987  0.00  0.00    -0.118 NA
ATOM     26  C   UNL     1       1.084  -3.932   2.422  0.00  0.00    +0.117 C 
ATOM     27  N   UNL     1       1.158  -5.053   1.638  0.00  0.00    -0.331 N 
ATOM     28  C   UNL     1       1.600  -6.191   2.459  0.00  0.00    +0.103 C 
ATOM     29  C   UNL     1       1.059  -5.881   3.873  0.00  0.00    +0.026 C 
ATOM     30  C   UNL     1       0.991  -4.339   3.876  0.00  0.00    +0.074 C 
ATOM     31  H   UNL     1       0.952  -5.090   0.691  0.00  0.00    +0.147 HD
ENDBRANCH  22  25
ENDBRANCH   5  22
TORSDOF 5
