REMARK  Name = ZINC56007328
REMARK  5 active torsions:
REMARK  status: ('A' for Active; 'I' for Inactive)
REMARK    1  A    between atoms: C_1  and  C_2
REMARK    2  A    between atoms: C_3  and  S_9
REMARK    3  A    between atoms: N_5  and  C_7
REMARK    4  A    between atoms: S_9  and  N_12
REMARK    5  A    between atoms: C_21  and  C_23
REMARK                            x       y       z     vdW  Elec       q    Type
REMARK                         _______ _______ _______ _____ _____    ______ ____
ROOT
ATOM      1  S   UNL     1      -0.138  -0.351  -2.486  0.00  0.00    +0.080 S 
ATOM      2  O   UNL     1      -0.479   0.525  -1.421  0.00  0.00    -0.150 OA
ATOM      3  O   UNL     1      -0.252  -1.764  -2.376  0.00  0.00    -0.150 OA
ENDROOT
BRANCH   1   4
ATOM      4  N   UNL     1       1.440  -0.033  -2.875  0.00  0.00    -0.200 N 
ATOM      5  C   UNL     1       2.051   1.153  -2.452  0.00  0.00    +0.055 A 
ATOM      6  C   UNL     1       1.259   2.182  -1.955  0.00  0.00    +0.025 A 
ATOM      7  C   UNL     1       1.843   3.359  -1.530  0.00  0.00    +0.002 A 
ATOM      8  C   UNL     1       3.216   3.512  -1.599  0.00  0.00    +0.000 A 
ATOM      9  C   UNL     1       4.004   2.491  -2.094  0.00  0.00    +0.005 A 
ATOM     10  C   UNL     1       3.426   1.308  -2.525  0.00  0.00    -0.025 A 
ATOM     11  C   UNL     1       4.314   0.220  -3.068  0.00  0.00    +0.039 C 
ATOM     12  C   UNL     1       3.601  -1.131  -3.010  0.00  0.00    +0.029 C 
ATOM     13  C   UNL     1       2.224  -0.994  -3.663  0.00  0.00    +0.095 C 
ATOM     14  C   UNL     1       1.519  -2.352  -3.674  0.00  0.00    +0.030 C 
ENDBRANCH   1   4
BRANCH   1  17
ATOM     15  C   UNL     1      -1.383  -2.211  -4.946  0.00  0.00    +0.069 C 
ATOM     16  C   UNL     1      -1.609  -0.723  -4.865  0.00  0.00    +0.088 A 
ATOM     17  C   UNL     1      -1.121   0.127  -3.868  0.00  0.00    +0.167 A 
ATOM     18  C   UNL     1      -1.539   1.384  -4.151  0.00  0.00    +0.154 A 
ATOM     19  N   UNL     1      -2.265   1.329  -5.287  0.00  0.00    -0.254 N 
ATOM     20  N   UNL     1      -2.291  -0.003  -5.719  0.00  0.00    -0.173 NA
ATOM     21  C   UNL     1      -2.910   2.463  -5.954  0.00  0.00    +0.174 C 
ATOM     22 CL   UNL     1      -1.202   2.810  -3.220  0.00  0.00    -0.060 Cl
ENDBRANCH   1  17
TORSDOF 2
