REMARK  Name = ZINC04953577
REMARK  6 active torsions:
REMARK  status: ('A' for Active; 'I' for Inactive)
REMARK    1  A    between atoms: C_1  and  C_2
REMARK    2  A    between atoms: C_4  and  N_22
REMARK    3  A    between atoms: C_7  and  N_8
REMARK    4  A    between atoms: C_9  and  C_11
REMARK    5  A    between atoms: C_11  and  C_20
REMARK    6  A    between atoms: C_12  and  C_13
REMARK                            x       y       z     vdW  Elec       q    Type
REMARK                         _______ _______ _______ _____ _____    ______ ____
ROOT
ATOM      1  N   UNL     1      -1.486   2.607   0.270  0.00  0.00    -0.281 N 
ATOM      2  C   UNL     1      -0.432   1.784   0.102  0.00  0.00    +0.259 C 
ATOM      3  O   UNL     1      -0.608   0.584   0.003  0.00  0.00    -0.269 OA
ATOM      4  H   UNL     1      -1.342   3.554   0.426  0.00  0.00    +0.155 HD
ENDROOT
BRANCH   1  11
ATOM      5  C   UNL     1      -3.474   3.830   1.898  0.00  0.00    +0.046 C 
ATOM      6  C   UNL     1      -3.788   2.664   0.996  0.00  0.00    -0.027 A 
ATOM      7  C   UNL     1      -5.073   2.160   0.940  0.00  0.00    +0.038 A 
ATOM      8  C   UNL     1      -5.361   1.088   0.116  0.00  0.00    +0.127 A 
ATOM      9  C   UNL     1      -4.365   0.518  -0.657  0.00  0.00    +0.034 A 
ATOM     10  C   UNL     1      -3.080   1.020  -0.608  0.00  0.00    +0.026 A 
ATOM     11  C   UNL     1      -2.787   2.098   0.218  0.00  0.00    +0.037 A 
BRANCH   8  12
ATOM     12  N   UNL     1      -6.738   0.548   0.062  0.00  0.00    +0.056 N 
ATOM     13  O   UNL     1      -6.993  -0.398  -0.663  0.00  0.00    -0.126 OA
ATOM     14  O   UNL     1      -7.616   1.048   0.742  0.00  0.00    -0.126 OA
ENDBRANCH   8  12
ENDBRANCH   1  11
BRANCH   2  15
ATOM     15  C   UNL     1       0.930   2.336   0.034  0.00  0.00    +0.114 C 
ATOM     16  C   UNL     1       2.006   1.496  -0.142  0.00  0.00    +0.032 C 
BRANCH  16  17
ATOM     17  C   UNL     1       3.371   2.019  -0.031  0.00  0.00    -0.024 A 
ATOM     18  C   UNL     1       4.408   1.448  -0.781  0.00  0.00    +0.009 A 
ATOM     19  C   UNL     1       5.686   1.949  -0.675  0.00  0.00    +0.020 A 
ATOM     20  C   UNL     1       5.951   3.008   0.180  0.00  0.00    +0.041 A 
ATOM     21  C   UNL     1       4.933   3.575   0.929  0.00  0.00    +0.020 A 
ATOM     22  C   UNL     1       3.647   3.089   0.831  0.00  0.00    +0.009 A 
ATOM     23 CL   UNL     1       7.568   3.627   0.311  0.00  0.00    -0.084 Cl
ENDBRANCH  16  17
BRANCH  15  24
ATOM     24  C   UNL     1       1.137   3.748   0.152  0.00  0.00    +0.104 C 
ATOM     25  N   UNL     1       1.301   4.869   0.245  0.00  0.00    -0.191 NA
ENDBRANCH  15  24
ENDBRANCH   2  15
TORSDOF 5
