REMARK  Name = ZINC66699588
REMARK  6 active torsions:
REMARK  status: ('A' for Active; 'I' for Inactive)
REMARK    1  A    between atoms: C_1  and  C_2
REMARK    2  A    between atoms: C_2  and  C_4
REMARK    3  A    between atoms: C_2  and  N_10
REMARK    4  A    between atoms: N_13  and  C_14
REMARK    5  A    between atoms: C_14  and  C_15
REMARK    6  A    between atoms: C_19  and  C_21
REMARK                            x       y       z     vdW  Elec       q    Type
REMARK                         _______ _______ _______ _____ _____    ______ ____
ROOT
ATOM      1  N   UNL     1       0.688  -0.476  -1.203  0.00  0.00    -0.292 N 
ATOM      2  C   UNL     1       2.031  -0.587  -1.215  0.00  0.00    +0.300 C 
ATOM      3  O   UNL     1       2.674  -0.294  -0.225  0.00  0.00    -0.253 OA
ATOM      4  N   UNL     1       2.662  -1.022  -2.324  0.00  0.00    -0.292 N 
ATOM      5  H   UNL     1       0.175  -0.710  -1.993  0.00  0.00    +0.151 HD
ATOM      6  H   UNL     1       2.149  -1.255  -3.114  0.00  0.00    +0.151 HD
ENDROOT
BRANCH   1   8
ATOM      7  C   UNL     1      -0.019   1.526   0.010  0.00  0.00    +0.033 C 
ATOM      8  C   UNL     1       0.002  -0.004   0.002  0.00  0.00    +0.108 C 
BRANCH   8   9
ATOM      9  C   UNL     1      -1.412  -0.526   0.013  0.00  0.00    +0.011 A 
ATOM     10  C   UNL     1      -2.141  -0.993   1.055  0.00  0.00    +0.014 A 
ATOM     11  C   UNL     1      -3.435  -1.425   0.828  0.00  0.00    +0.028 A 
ATOM     12  C   UNL     1      -3.935  -1.368  -0.431  0.00  0.00    +0.078 A 
ATOM     13  S   UNL     1      -2.563  -0.681  -1.343  0.00  0.00    -0.080 S 
ATOM     14 CL   UNL     1      -5.505  -1.836  -1.006  0.00  0.00    -0.076 Cl
ENDBRANCH   8   9
ENDBRANCH   1   8
BRANCH   4  15
ATOM     15  C   UNL     1       4.122  -1.142  -2.336  0.00  0.00    +0.181 C 
BRANCH  15  16
ATOM     16  C   UNL     1       4.573  -1.645  -3.683  0.00  0.00    +0.143 A 
ATOM     17  N   UNL     1       4.985  -0.881  -4.711  0.00  0.00    -0.261 N 
ATOM     18  H   UNL     1       5.048   0.086  -4.726  0.00  0.00    +0.190 HD
ATOM     19  N   UNL     1       5.307  -1.760  -5.758  0.00  0.00    -0.152 NA
ATOM     20  C   UNL     1       5.077  -2.978  -5.314  0.00  0.00    +0.188 A 
ATOM     21  N   UNL     1       4.636  -2.897  -4.051  0.00  0.00    -0.209 NA
BRANCH  20  22
ATOM     22  C   UNL     1       5.277  -4.227  -6.080  0.00  0.00    +0.058 A 
ATOM     23  C   UNL     1       5.731  -4.391  -7.361  0.00  0.00    +0.019 A 
ATOM     24  C   UNL     1       5.836  -5.667  -7.869  0.00  0.00    +0.008 A 
ATOM     25  C   UNL     1       5.486  -6.721  -7.087  0.00  0.00    +0.046 A 
ATOM     26  S   UNL     1       4.995  -5.915  -5.572  0.00  0.00    -0.093 S 
ENDBRANCH  20  22
ENDBRANCH  15  16
ENDBRANCH   4  15
TORSDOF 5
