REMARK  Name = ZINC20467587
REMARK  4 active torsions:
REMARK  status: ('A' for Active; 'I' for Inactive)
REMARK    1  A    between atoms: C_1  and  C_2
REMARK    2  A    between atoms: N_8  and  S_9
REMARK    3  A    between atoms: S_9  and  C_12
REMARK    4  A    between atoms: C_17  and  N_18
REMARK                            x       y       z     vdW  Elec       q    Type
REMARK                         _______ _______ _______ _____ _____    ______ ____
ROOT
ATOM      1  S   UNL     1       3.334  -0.798   1.609  0.00  0.00    +0.064 S 
ATOM      2  O   UNL     1       3.512  -1.740   0.560  0.00  0.00    -0.153 OA
ATOM      3  O   UNL     1       4.332   0.151   1.958  0.00  0.00    -0.153 OA
ENDROOT
BRANCH   1  10
ATOM      4  C   UNL     1       1.154  -2.048   0.298  0.00  0.00    +0.026 C 
ATOM      5  C   UNL     1       0.803  -0.599   0.640  0.00  0.00    +0.077 C 
ATOM      6  C   UNL     1       0.416   0.151  -0.638  0.00  0.00    +0.020 C 
ATOM      7  C   UNL     1       0.198   1.630  -0.310  0.00  0.00    +0.003 C 
ATOM      8  C   UNL     1       1.498   2.232   0.229  0.00  0.00    +0.017 C 
ATOM      9  C   UNL     1       1.897   1.506   1.517  0.00  0.00    +0.110 C 
ATOM     10  N   UNL     1       1.968   0.064   1.243  0.00  0.00    -0.174 NA
ENDBRANCH   1  10
BRANCH   1  11
ATOM     11  C   UNL     1       2.990  -1.727   3.066  0.00  0.00    +0.146 A 
ATOM     12  C   UNL     1       2.981  -3.110   3.031  0.00  0.00    +0.048 A 
ATOM     13  C   UNL     1       2.705  -3.801   4.204  0.00  0.00    +0.038 A 
ATOM     14  C   UNL     1       2.450  -3.093   5.362  0.00  0.00    +0.128 A 
ATOM     15  N   UNL     1       2.465  -1.773   5.365  0.00  0.00    -0.238 NA
ATOM     16  C   UNL     1       2.729  -1.079   4.269  0.00  0.00    +0.143 A 
ATOM     17 BR   UNL     1       2.680  -5.692   4.215  0.00  0.00    -0.049 Br
BRANCH  16  18
ATOM     18  N   UNL     1       2.740   0.310   4.320  0.00  0.00    -0.342 N 
ATOM     19  H   UNL     1       2.534   0.828   5.269  0.00  0.00    +0.144 HD
ATOM     20  H   UNL     1       2.954   0.892   3.411  0.00  0.00    +0.144 HD
ENDBRANCH  16  18
ENDBRANCH   1  11
TORSDOF 3
