REMARK  Name = ZINC20708041
REMARK  2 active torsions:
REMARK  status: ('A' for Active; 'I' for Inactive)
REMARK    1  A    between atoms: C_6  and  C_11
REMARK    2  A    between atoms: C_24  and  N_27
REMARK                            x       y       z     vdW  Elec       q    Type
REMARK                         _______ _______ _______ _____ _____    ______ ____
ROOT
ATOM      1  C   UNL     1       0.097   0.755   0.106  0.00  0.00    +0.105 C 
ATOM      2  C   UNL     1      -0.812   1.229  -1.016  0.00  0.00    +0.029 C 
ATOM      3  C   UNL     1      -0.894   2.775  -1.029  0.00  0.00    +0.033 C 
ATOM      4  C   UNL     1      -1.103   3.098  -2.497  0.00  0.00    -0.030 C 
ATOM      5  C   UNL     1      -0.697   2.105  -3.248  0.00  0.00    -0.023 C 
ATOM      6  C   UNL     1      -0.158   0.973  -2.389  0.00  0.00    +0.049 C 
ATOM      7  C   UNL     1       1.339   1.116  -2.317  0.00  0.00    -0.017 A 
ATOM      8  C   UNL     1       2.056   0.989  -3.500  0.00  0.00    +0.006 A 
ATOM      9  C   UNL     1       3.431   1.103  -3.504  0.00  0.00    +0.003 A 
ATOM     10  C   UNL     1       4.109   1.346  -2.323  0.00  0.00    +0.034 A 
ATOM     11  C   UNL     1       3.406   1.475  -1.144  0.00  0.00    +0.147 A 
ATOM     12  C   UNL     1       2.016   1.361  -1.137  0.00  0.00    +0.062 A 
ATOM     13  N   UNL     1       1.354   1.504   0.083  0.00  0.00    -0.335 N 
ATOM     14  H   UNL     1       1.666   2.083   0.964  0.00  0.00    +0.147 HD
ENDROOT
BRANCH   1  20
ATOM     15  C   UNL     1       2.317  -5.306  -0.106  0.00  0.00    +0.001 A 
ATOM     16  C   UNL     1       3.251  -4.495   0.536  0.00  0.00    +0.001 A 
ATOM     17  C   UNL     1       3.022  -3.165   0.711  0.00  0.00    +0.008 A 
ATOM     18  C   UNL     1       1.826  -2.597   0.238  0.00  0.00    -0.018 A 
ATOM     19  C   UNL     1       1.554  -1.228   0.400  0.00  0.00    +0.014 A 
ATOM     20  C   UNL     1       0.385  -0.713  -0.070  0.00  0.00    -0.026 A 
ATOM     21  C   UNL     1      -0.551  -1.525  -0.708  0.00  0.00    +0.006 A 
ATOM     22  C   UNL     1      -0.319  -2.854  -0.888  0.00  0.00    +0.009 A 
ATOM     23  C   UNL     1       0.876  -3.422  -0.415  0.00  0.00    -0.018 A 
ATOM     24  C   UNL     1       1.148  -4.791  -0.577  0.00  0.00    +0.008 A 
ENDBRANCH   1  20
BRANCH  11  25
ATOM     25  N   UNL     1       4.130   1.736   0.120  0.00  0.00    +0.058 N 
ATOM     26  O   UNL     1       3.648   2.479   0.956  0.00  0.00    -0.126 OA
ATOM     27  O   UNL     1       5.208   1.208   0.325  0.00  0.00    -0.126 OA
ENDBRANCH  11  25
TORSDOF 2
