REMARK  Name = ZINC27028793
REMARK  4 active torsions:
REMARK  status: ('A' for Active; 'I' for Inactive)
REMARK    1  A    between atoms: C_1  and  C_2
REMARK    2  A    between atoms: C_5  and  N_9
REMARK    3  A    between atoms: C_6  and  C_8
REMARK    4  A    between atoms: C_13  and  C_19
REMARK                            x       y       z     vdW  Elec       q    Type
REMARK                         _______ _______ _______ _____ _____    ______ ____
ROOT
ATOM      1  N   UNL     1       0.057  -4.145  -0.021  0.00  0.00    -0.234 NA
ATOM      2  C   UNL     1      -0.039  -4.791  -1.147  0.00  0.00    +0.124 C 
ATOM      3  N   UNL     1      -0.049  -4.113  -2.344  0.00  0.00    -0.236 N 
ATOM      4  N   UNL     1      -1.005  -4.442  -3.310  0.00  0.00    -0.212 N 
ATOM      5  C   UNL     1      -1.357  -3.787  -4.447  0.00  0.00    +0.255 A 
ATOM      6  N   UNL     1      -2.293  -4.492  -5.025  0.00  0.00    -0.123 NA
ATOM      7  N   UNL     1      -2.554  -5.545  -4.326  0.00  0.00    -0.121 NA
ATOM      8  C   UNL     1      -1.798  -5.559  -3.269  0.00  0.00    +0.210 A 
ATOM      9  S   UNL     1      -1.725  -6.740  -1.958  0.00  0.00    -0.077 S 
ATOM     10  C   UNL     1      -0.134  -6.305  -1.163  0.00  0.00    +0.150 C 
ATOM     11  H   UNL     1       0.600  -3.413  -2.517  0.00  0.00    +0.174 HD
ENDROOT
BRANCH   1  16
ATOM     12  C   UNL     1      -0.045   1.502   0.015  0.00  0.00    +0.044 C 
ATOM     13  C   UNL     1      -0.018  -0.004   0.005  0.00  0.00    -0.050 A 
ATOM     14  C   UNL     1      -1.000  -0.707  -0.671  0.00  0.00    +0.005 A 
ATOM     15  C   UNL     1      -0.981  -2.086  -0.683  0.00  0.00    +0.028 A 
ATOM     16  C   UNL     1       0.032  -2.773  -0.013  0.00  0.00    +0.069 A 
ATOM     17  C   UNL     1       1.020  -2.059   0.666  0.00  0.00    -0.025 A 
ATOM     18  C   UNL     1       0.992  -0.679   0.667  0.00  0.00    +0.008 A 
ATOM     19  C   UNL     1       2.118  -2.792   1.393  0.00  0.00    +0.046 C 
ENDBRANCH   1  16
BRANCH   5  20
ATOM     20  C   UNL     1      -0.776  -2.489  -4.947  0.00  0.00    +0.454 C 
ATOM     21  F   UNL     1      -1.605  -1.960  -5.941  0.00  0.00    -0.163 F 
ATOM     22  F   UNL     1      -0.681  -1.581  -3.887  0.00  0.00    -0.163 F 
ATOM     23  F   UNL     1       0.498  -2.722  -5.477  0.00  0.00    -0.163 F 
ENDBRANCH   5  20
TORSDOF 2
