REMARK  Name = ZINC49739006
REMARK  4 active torsions:
REMARK  status: ('A' for Active; 'I' for Inactive)
REMARK    1  A    between atoms: N_9  and  C_12
REMARK    2  A    between atoms: C_12  and  C_13
REMARK    3  A    between atoms: N_15  and  C_16
REMARK    4  A    between atoms: C_16  and  C_17
REMARK                            x       y       z     vdW  Elec       q    Type
REMARK                         _______ _______ _______ _____ _____    ______ ____
ROOT
ATOM      1  C   UNL     1       3.955  -3.850  -1.479  0.00  0.00    +0.231 C 
ATOM      2  O   UNL     1       3.537  -3.171  -2.393  0.00  0.00    -0.274 OA
ATOM      3  N   UNL     1       4.640  -4.982  -1.738  0.00  0.00    -0.310 N 
ATOM      4  H   UNL     1       4.974  -5.524  -1.007  0.00  0.00    +0.149 HD
ENDROOT
BRANCH   1   5
ATOM      5  C   UNL     1       3.709  -3.428  -0.053  0.00  0.00    +0.212 C 
BRANCH   5  14
ATOM      6  C   UNL     1      -0.017   1.382   0.010  0.00  0.00    +0.001 A 
ATOM      7  C   UNL     1       1.165   2.099   0.002  0.00  0.00    +0.001 A 
ATOM      8  C   UNL     1       2.385   1.442  -0.013  0.00  0.00    +0.014 A 
ATOM      9  C   UNL     1       2.420   0.056  -0.021  0.00  0.00    +0.049 A 
ATOM     10  C   UNL     1       1.215  -0.675  -0.013  0.00  0.00    +0.049 A 
ATOM     11  C   UNL     1       0.002  -0.004   0.002  0.00  0.00    +0.014 A 
ATOM     12  C   UNL     1       1.606  -2.100  -0.025  0.00  0.00    +0.254 C 
ATOM     13  O   UNL     1       0.843  -3.045  -0.023  0.00  0.00    -0.270 OA
ATOM     14  N   UNL     1       2.949  -2.175  -0.039  0.00  0.00    -0.225 N 
ATOM     15  C   UNL     1       3.503  -0.949  -0.038  0.00  0.00    +0.254 C 
ATOM     16  O   UNL     1       4.693  -0.709  -0.049  0.00  0.00    -0.270 OA
ENDBRANCH   5  14
ENDBRANCH   1   5
BRANCH   3  17
ATOM     17  C   UNL     1       4.879  -5.392  -3.124  0.00  0.00    +0.158 C 
BRANCH  17  18
ATOM     18  C   UNL     1       5.672  -6.700  -3.139  0.00  0.00    +0.276 C 
ATOM     19  C   UNL     1       5.917  -7.123  -4.565  0.00  0.00    +0.260 C 
ATOM     20  O   UNL     1       5.145  -7.879  -5.117  0.00  0.00    -0.271 OA
ATOM     21  N   UNL     1       6.997  -6.655  -5.226  0.00  0.00    -0.279 N 
ATOM     22  C   UNL     1       7.941  -5.886  -4.534  0.00  0.00    +0.076 A 
ATOM     23  C   UNL     1       8.934  -5.204  -5.221  0.00  0.00    +0.027 A 
ATOM     24  C   UNL     1       9.850  -4.438  -4.524  0.00  0.00    +0.002 A 
ATOM     25  C   UNL     1       9.778  -4.350  -3.146  0.00  0.00    +0.004 A 
ATOM     26  C   UNL     1       8.794  -5.031  -2.455  0.00  0.00    +0.047 A 
ATOM     27  C   UNL     1       7.876  -5.806  -3.145  0.00  0.00    +0.143 A 
ATOM     28  O   UNL     1       6.923  -6.505  -2.475  0.00  0.00    -0.476 OA
ATOM     29  H   UNL     1       7.117  -6.851  -6.169  0.00  0.00    +0.155 HD
ENDBRANCH  17  18
ENDBRANCH   3  17
TORSDOF 4
