REMARK  Name = ZINC14161962
REMARK  5 active torsions:
REMARK  status: ('A' for Active; 'I' for Inactive)
REMARK    1  A    between atoms: C_1  and  C_2
REMARK    2  A    between atoms: C_2  and  C_3
REMARK    3  A    between atoms: N_16  and  C_17
REMARK    4  A    between atoms: C_20  and  N_23
REMARK    5  A    between atoms: N_23  and  C_24
REMARK                            x       y       z     vdW  Elec       q    Type
REMARK                         _______ _______ _______ _____ _____    ______ ____
ROOT
ATOM      1  C   UNL     1      -0.806   0.394   4.745  0.00  0.00    +0.139 A 
ATOM      2  N   UNL     1      -1.486   1.481   4.985  0.00  0.00    -0.132 NA
ATOM      3  N   UNL     1      -1.363   2.304   4.005  0.00  0.00    -0.110 NA
ATOM      4  C   UNL     1      -0.591   1.784   3.077  0.00  0.00    +0.244 A 
ATOM      5  N   UNL     1      -0.214   0.550   3.524  0.00  0.00    -0.264 N 
ATOM      6  C   UNL     1       0.615  -0.263   2.762  0.00  0.00    +0.063 A 
ATOM      7  C   UNL     1       1.002  -1.517   3.208  0.00  0.00    +0.027 A 
ATOM      8  C   UNL     1       1.828  -2.300   2.426  0.00  0.00    +0.002 A 
ATOM      9  C   UNL     1       2.274  -1.845   1.196  0.00  0.00    +0.001 A 
ATOM     10  C   UNL     1       1.899  -0.601   0.735  0.00  0.00    +0.015 A 
ATOM     11  C   UNL     1       1.066   0.200   1.515  0.00  0.00    +0.064 A 
ATOM     12  C   UNL     1       0.642   1.536   1.059  0.00  0.00    +0.268 A 
ATOM     13  O   UNL     1       1.014   1.970  -0.015  0.00  0.00    -0.267 OA
ATOM     14  N   UNL     1      -0.164   2.269   1.854  0.00  0.00    -0.245 N 
ENDROOT
BRANCH  14  15
ATOM     15  C   UNL     1      -0.576   3.542   1.435  0.00  0.00    +0.053 A 
ATOM     16  C   UNL     1       0.162   4.663   1.793  0.00  0.00    +0.028 A 
ATOM     17  C   UNL     1      -0.240   5.916   1.376  0.00  0.00    +0.025 A 
ATOM     18  C   UNL     1      -1.389   6.056   0.607  0.00  0.00    +0.031 A 
ATOM     19  C   UNL     1      -2.129   4.935   0.254  0.00  0.00    +0.025 A 
ATOM     20  C   UNL     1      -1.724   3.682   0.666  0.00  0.00    +0.028 A 
BRANCH  18  21
ATOM     21  N   UNL     1      -1.800   7.327   0.189  0.00  0.00    -0.314 N 
ATOM     22  H   UNL     1      -2.290   7.429  -0.642  0.00  0.00    +0.152 HD
BRANCH  21  23
ATOM     23  C   UNL     1      -1.505   8.448   0.969  0.00  0.00    +0.031 A 
ATOM     24  C   UNL     1      -1.385   8.325   2.348  0.00  0.00    +0.023 A 
ATOM     25  C   UNL     1      -1.089   9.434   3.115  0.00  0.00    +0.002 A 
ATOM     26  C   UNL     1      -0.922  10.668   2.513  0.00  0.00    +0.000 A 
ATOM     27  C   UNL     1      -1.046  10.795   1.141  0.00  0.00    +0.002 A 
ATOM     28  C   UNL     1      -1.337   9.689   0.368  0.00  0.00    +0.023 A 
ENDBRANCH  21  23
ENDBRANCH  18  21
ENDBRANCH  14  15
BRANCH   1  30
ATOM     29  C   UNL     1      -1.705  -1.871   5.205  0.00  0.00    +0.012 C 
ATOM     30  C   UNL     1      -0.694  -0.809   5.645  0.00  0.00    +0.073 C 
ENDBRANCH   1  30
TORSDOF 4
