REMARK  Name = ZINC03456930
REMARK  6 active torsions:
REMARK  status: ('A' for Active; 'I' for Inactive)
REMARK    1  A    between atoms: C_1  and  C_2
REMARK    2  A    between atoms: C_2  and  C_20
REMARK    3  A    between atoms: N_5  and  C_9
REMARK    4  A    between atoms: C_9  and  C_10
REMARK    5  A    between atoms: N_12  and  C_13
REMARK    6  A    between atoms: N_12  and  C_14
REMARK                            x       y       z     vdW  Elec       q    Type
REMARK                         _______ _______ _______ _____ _____    ______ ____
ROOT
ATOM      1  C   UNL     1       6.826   6.955  -4.948  0.00  0.00    +0.047 C 
ATOM      2  C   UNL     1       5.674   5.947  -4.951  0.00  0.00    +0.135 C 
ATOM      3  C   UNL     1       5.328   5.529  -3.536  0.00  0.00    +0.251 C 
ATOM      4  O   UNL     1       4.933   6.240  -2.638  0.00  0.00    -0.272 OA
ATOM      5  N   UNL     1       5.549   4.200  -3.485  0.00  0.00    -0.215 N 
ATOM      6  C   UNL     1       5.988   3.727  -4.657  0.00  0.00    +0.310 C 
ATOM      7  O   UNL     1       6.260   2.559  -4.855  0.00  0.00    -0.252 OA
ATOM      8  N   UNL     1       6.090   4.688  -5.593  0.00  0.00    -0.281 N 
ATOM      9  H   UNL     1       6.401   4.685  -6.648  0.00  0.00    +0.152 HD
ENDROOT
BRANCH   2  10
ATOM     10  C   UNL     1       4.466   6.522  -5.645  0.00  0.00    -0.015 A 
ATOM     11  C   UNL     1       3.491   7.170  -4.910  0.00  0.00    +0.007 A 
ATOM     12  C   UNL     1       2.385   7.702  -5.546  0.00  0.00    +0.020 A 
ATOM     13  C   UNL     1       2.250   7.578  -6.917  0.00  0.00    +0.041 A 
ATOM     14  C   UNL     1       3.224   6.925  -7.652  0.00  0.00    +0.020 A 
ATOM     15  C   UNL     1       4.332   6.398  -7.015  0.00  0.00    +0.007 A 
ATOM     16 CL   UNL     1       0.859   8.241  -7.716  0.00  0.00    -0.084 Cl
ENDBRANCH   2  10
BRANCH   5  17
ATOM     17  C   UNL     1       5.342   3.377  -2.291  0.00  0.00    +0.213 C 
BRANCH  17  18
ATOM     18  C   UNL     1       3.928   2.855  -2.280  0.00  0.00    +0.234 C 
ATOM     19  O   UNL     1       3.168   3.143  -3.181  0.00  0.00    -0.274 OA
ATOM     20  N   UNL     1       3.507   2.069  -1.270  0.00  0.00    -0.300 N 
ATOM     21  C   UNL     1       4.425   1.722  -0.181  0.00  0.00    +0.132 C 
BRANCH  20  22
ATOM     22  C   UNL     1       2.133   1.562  -1.259  0.00  0.00    +0.076 C 
ATOM     23  C   UNL     1       1.417   2.055  -0.000  0.00  0.00    +0.022 C 
ATOM     24  C   UNL     1      -0.019   1.526   0.010  0.00  0.00    +0.002 C 
ATOM     25  C   UNL     1       0.002  -0.004   0.002  0.00  0.00    +0.000 C 
ATOM     26  C   UNL     1       0.718  -0.497  -1.257  0.00  0.00    +0.002 C 
ATOM     27  C   UNL     1       2.154   0.032  -1.268  0.00  0.00    +0.022 C 
ENDBRANCH  20  22
ENDBRANCH  17  18
ENDBRANCH   5  17
TORSDOF 4
