REMARK  Name = ZINC58887892
REMARK  6 active torsions:
REMARK  status: ('A' for Active; 'I' for Inactive)
REMARK    1  A    between atoms: C_1  and  O_2
REMARK    2  A    between atoms: O_2  and  C_3
REMARK    3  A    between atoms: C_6  and  S_22
REMARK    4  A    between atoms: C_8  and  N_9
REMARK    5  A    between atoms: S_22  and  N_25
REMARK    6  A    between atoms: N_25  and  C_26
REMARK                            x       y       z     vdW  Elec       q    Type
REMARK                         _______ _______ _______ _____ _____    ______ ____
ROOT
ATOM      1  C   UNL     1      -1.211  -0.660  -0.277  0.00  0.00    +0.141 A 
ATOM      2  C   UNL     1      -2.386   0.072  -0.329  0.00  0.00    +0.049 A 
ATOM      3  C   UNL     1      -3.603  -0.560  -0.152  0.00  0.00    +0.032 A 
ATOM      4  C   UNL     1      -3.651  -1.923   0.076  0.00  0.00    +0.107 A 
ATOM      5  C   UNL     1      -2.483  -2.660   0.128  0.00  0.00    +0.055 A 
ATOM      6  C   UNL     1      -1.259  -2.034  -0.054  0.00  0.00    +0.079 A 
ENDROOT
BRANCH   6   7
ATOM      7  N   UNL     1      -0.074  -2.780  -0.007  0.00  0.00    -0.266 N 
ATOM      8  C   UNL     1      -0.126  -4.124   0.083  0.00  0.00    +0.307 C 
ATOM      9  O   UNL     1      -1.202  -4.691   0.086  0.00  0.00    -0.252 OA
ATOM     10  N   UNL     1       1.013  -4.838   0.170  0.00  0.00    -0.281 N 
ATOM     11  C   UNL     1       0.996  -6.311   0.159  0.00  0.00    +0.114 C 
ATOM     12  C   UNL     1       1.725  -6.780  -1.099  0.00  0.00    +0.054 C 
ATOM     13  C   UNL     1       3.035  -6.054  -1.262  0.00  0.00    -0.041 A 
ATOM     14  C   UNL     1       3.997  -6.636  -2.078  0.00  0.00    +0.004 A 
ATOM     15  C   UNL     1       5.214  -6.019  -2.277  0.00  0.00    +0.000 A 
ATOM     16  C   UNL     1       5.481  -4.810  -1.663  0.00  0.00    +0.000 A 
ATOM     17  C   UNL     1       4.529  -4.231  -0.849  0.00  0.00    +0.005 A 
ATOM     18  C   UNL     1       3.305  -4.854  -0.643  0.00  0.00    -0.027 A 
ATOM     19  C   UNL     1       2.320  -4.181   0.272  0.00  0.00    +0.144 C 
ATOM     20  H   UNL     1       0.785  -2.329  -0.039  0.00  0.00    +0.156 HD
ENDBRANCH   6   7
BRANCH   4  21
ATOM     21  S   UNL     1      -5.205  -2.723   0.301  0.00  0.00    +0.059 S 
ATOM     22  O   UNL     1      -4.949  -3.908   1.040  0.00  0.00    -0.153 OA
ATOM     23  O   UNL     1      -6.113  -1.726   0.750  0.00  0.00    -0.153 OA
BRANCH  21  24
ATOM     24  N   UNL     1      -5.731  -3.202  -1.195  0.00  0.00    -0.187 NA
ATOM     25  H   UNL     1      -6.533  -2.812  -1.575  0.00  0.00    +0.148 HD
BRANCH  24  26
ATOM     26  C   UNL     1      -4.983  -4.215  -1.944  0.00  0.00    +0.077 C 
ATOM     27  C   UNL     1      -4.956  -4.089  -3.469  0.00  0.00    +0.022 C 
ATOM     28  C   UNL     1      -5.786  -5.191  -2.806  0.00  0.00    +0.022 C 
ENDBRANCH  24  26
ENDBRANCH  21  24
ENDBRANCH   4  21
BRANCH   1  30
ATOM     29  C   UNL     1      -0.041   1.372  -0.675  0.00  0.00    +0.277 C 
ATOM     30  O   UNL     1      -0.013  -0.039  -0.450  0.00  0.00    -0.493 OA
ENDBRANCH   1  30
TORSDOF 5
