REMARK  Name = ZINC24206875
REMARK  6 active torsions:
REMARK  status: ('A' for Active; 'I' for Inactive)
REMARK    1  A    between atoms: C_6  and  C_10
REMARK    2  A    between atoms: C_10  and  O_12
REMARK    3  A    between atoms: O_12  and  C_13
REMARK    4  A    between atoms: C_13  and  C_14
REMARK    5  A    between atoms: N_16  and  C_17
REMARK    6  A    between atoms: C_21  and  N_23
REMARK                            x       y       z     vdW  Elec       q    Type
REMARK                         _______ _______ _______ _____ _____    ______ ____
ROOT
ATOM      1  C   UNL     1       2.555   5.718   0.014  0.00  0.00    +0.328 C 
ENDROOT
BRANCH   1   2
ATOM      2  C   UNL     1       1.626   6.904   0.021  0.00  0.00    +0.255 C 
ATOM      3  O   UNL     1       0.425   6.734   0.024  0.00  0.00    -0.272 OA
ATOM      4  N   UNL     1       2.129   8.155   0.025  0.00  0.00    -0.283 N 
ATOM      5  H   UNL     1       3.216   8.310   0.099  0.00  0.00    +0.155 HD
BRANCH   4   6
ATOM      6  C   UNL     1       1.269   9.256  -0.067  0.00  0.00    +0.036 A 
ATOM      7  C   UNL     1       1.667  10.393  -0.757  0.00  0.00    +0.026 A 
ATOM      8  C   UNL     1       0.814  11.476  -0.851  0.00  0.00    +0.042 A 
ATOM      9  C   UNL     1      -0.432  11.432  -0.248  0.00  0.00    +0.154 A 
ATOM     10  C   UNL     1      -0.828  10.301   0.445  0.00  0.00    +0.163 A 
ATOM     11  C   UNL     1       0.019   9.213   0.536  0.00  0.00    +0.059 A 
ATOM     12  F   UNL     1      -1.262  12.494  -0.336  0.00  0.00    -0.203 F 
BRANCH  10  13
ATOM     13  N   UNL     1      -2.160  10.256   1.088  0.00  0.00    +0.059 N 
ATOM     14  O   UNL     1      -2.510   9.261   1.697  0.00  0.00    -0.126 OA
ATOM     15  O   UNL     1      -2.908  11.214   1.008  0.00  0.00    -0.126 OA
ENDBRANCH  10  13
ENDBRANCH   4   6
ENDBRANCH   1   2
BRANCH   1  16
ATOM     16  O   UNL     1       1.776   4.493   0.012  0.00  0.00    -0.451 OA
BRANCH  16  17
ATOM     17  C   UNL     1       2.462   3.332   0.006  0.00  0.00    +0.346 C 
ATOM     18  O   UNL     1       3.678   3.343   0.003  0.00  0.00    -0.244 OA
BRANCH  17  24
ATOM     19  C   UNL     1      -0.606  -2.311  -0.007  0.00  0.00    +0.004 A 
ATOM     20  C   UNL     1       0.740  -2.652  -0.011  0.00  0.00    +0.039 A 
ATOM     21  C   UNL     1       1.721  -1.695  -0.011  0.00  0.00    +0.132 A 
ATOM     22  C   UNL     1       1.383  -0.315  -0.005  0.00  0.00    +0.025 A 
ATOM     23  C   UNL     1       2.250   0.792  -0.003  0.00  0.00    +0.034 A 
ATOM     24  C   UNL     1       1.741   2.053   0.003  0.00  0.00    +0.097 A 
ATOM     25  S   UNL     1      -0.021   1.771   0.006  0.00  0.00    -0.082 S 
ATOM     26  C   UNL     1       0.003  -0.004  -0.001  0.00  0.00    +0.023 A 
ATOM     27  C   UNL     1      -0.971  -0.980  -0.002  0.00  0.00    +0.016 A 
ATOM     28  F   UNL     1       3.019  -2.067  -0.015  0.00  0.00    -0.205 F 
ENDBRANCH  17  24
ENDBRANCH  16  17
ENDBRANCH   1  16
TORSDOF 6
