REMARK  Name = ZINC23058246
REMARK  5 active torsions:
REMARK  status: ('A' for Active; 'I' for Inactive)
REMARK    1  A    between atoms: C_1  and  C_2
REMARK    2  A    between atoms: C_5  and  C_25
REMARK    3  A    between atoms: C_6  and  S_9
REMARK    4  A    between atoms: S_9  and  N_12
REMARK    5  A    between atoms: C_18  and  C_20
REMARK                            x       y       z     vdW  Elec       q    Type
REMARK                         _______ _______ _______ _____ _____    ______ ____
ROOT
ATOM      1  S   UNL     1       7.657   4.453   3.004  0.00  0.00    +0.063 S 
ATOM      2  O   UNL     1       7.084   5.120   4.120  0.00  0.00    -0.153 OA
ATOM      3  O   UNL     1       9.009   4.017   2.989  0.00  0.00    -0.153 OA
ENDROOT
BRANCH   1   9
ATOM      4  C   UNL     1       9.075   6.140  -1.738  0.00  0.00    +0.045 C 
ATOM      5  C   UNL     1       8.150   6.259  -0.554  0.00  0.00    -0.029 A 
ATOM      6  C   UNL     1       7.146   7.208  -0.554  0.00  0.00    +0.025 A 
ATOM      7  C   UNL     1       6.297   7.316   0.533  0.00  0.00    +0.046 A 
ATOM      8  C   UNL     1       6.450   6.471   1.618  0.00  0.00    -0.004 A 
ATOM      9  C   UNL     1       7.457   5.525   1.620  0.00  0.00    +0.128 A 
ATOM     10  C   UNL     1       8.307   5.417   0.533  0.00  0.00    +0.071 A 
ATOM     11 CL   UNL     1       9.569   4.225   0.533  0.00  0.00    -0.081 Cl
ATOM     12  C   UNL     1       5.521   6.584   2.799  0.00  0.00    +0.047 C 
ATOM     13 CL   UNL     1       5.035   8.509   0.533  0.00  0.00    -0.083 Cl
ENDBRANCH   1   9
BRANCH   1  14
ATOM     14  N   UNL     1       6.724   3.113   2.724  0.00  0.00    -0.174 NA
ATOM     15  C   UNL     1       7.234   2.006   1.902  0.00  0.00    +0.128 C 
ATOM     16  C   UNL     1       6.241   1.745   0.763  0.00  0.00    +0.125 C 
ATOM     17  N   UNL     1       4.890   1.641   1.331  0.00  0.00    -0.299 N 
ATOM     18  C   UNL     1       4.378   2.751   2.148  0.00  0.00    +0.125 C 
ATOM     19  C   UNL     1       5.373   3.010   3.292  0.00  0.00    +0.128 C 
ATOM     20  C   UNL     1       4.131   0.551   1.103  0.00  0.00    +0.219 C 
ATOM     21  O   UNL     1       4.562  -0.356   0.423  0.00  0.00    -0.275 OA
BRANCH  20  22
ATOM     22  C   UNL     1       2.747   0.459   1.693  0.00  0.00    +0.075 C 
ATOM     23  C   UNL     1       1.810   1.518   1.061  0.00  0.00    +0.013 C 
ATOM     24  C   UNL     1       0.394   0.940   1.264  0.00  0.00    +0.001 C 
ATOM     25  C   UNL     1       0.559  -0.583   1.414  0.00  0.00    +0.001 C 
ATOM     26  C   UNL     1       2.070  -0.876   1.297  0.00  0.00    +0.013 C 
ENDBRANCH  20  22
ENDBRANCH   1  14
TORSDOF 3
