REMARK  Name = ZINC67295517
REMARK  6 active torsions:
REMARK  status: ('A' for Active; 'I' for Inactive)
REMARK    1  A    between atoms: C_8  and  C_23
REMARK    2  A    between atoms: N_10  and  C_11
REMARK    3  A    between atoms: C_15  and  O_17
REMARK    4  A    between atoms: O_17  and  C_18
REMARK    5  A    between atoms: N_25  and  C_26
REMARK    6  A    between atoms: C_26  and  C_27
REMARK                            x       y       z     vdW  Elec       q    Type
REMARK                         _______ _______ _______ _____ _____    ______ ____
ROOT
ATOM      1  C   UNL     1      -0.538   0.693  -0.031  0.00  0.00    +0.001 A 
ATOM      2  C   UNL     1       0.469   1.634   0.127  0.00  0.00    +0.004 A 
ATOM      3  C   UNL     1       1.794   1.246   0.168  0.00  0.00    +0.047 A 
ATOM      4  C   UNL     1       2.123  -0.096   0.050  0.00  0.00    +0.137 A 
ATOM      5  C   UNL     1       1.099  -1.049  -0.106  0.00  0.00    +0.018 A 
ATOM      6  C   UNL     1      -0.237  -0.635  -0.147  0.00  0.00    +0.011 A 
ATOM      7  C   UNL     1       1.449  -2.467  -0.221  0.00  0.00    +0.030 A 
ATOM      8  C   UNL     1       2.750  -2.831   0.102  0.00  0.00    +0.097 A 
ATOM      9  C   UNL     1       3.663  -1.753   0.530  0.00  0.00    +0.212 A 
ATOM     10  N   UNL     1       4.685  -2.005   1.320  0.00  0.00    -0.325 N 
ATOM     11  O   UNL     1       3.418  -0.495   0.083  0.00  0.00    -0.439 OA
ATOM     12  H   UNL     1       4.796  -2.889   1.703  0.00  0.00    +0.169 HD
ENDROOT
BRANCH  10  13
ATOM     13  C   UNL     1       5.590  -1.019   1.602  0.00  0.00    +0.045 A 
ATOM     14  C   UNL     1       6.077  -0.200   0.579  0.00  0.00    +0.026 A 
ATOM     15  C   UNL     1       6.990   0.793   0.867  0.00  0.00    +0.006 A 
ATOM     16  C   UNL     1       7.426   0.981   2.166  0.00  0.00    +0.046 A 
ATOM     17  C   UNL     1       6.949   0.173   3.189  0.00  0.00    +0.132 A 
ATOM     18  C   UNL     1       6.027  -0.823   2.913  0.00  0.00    +0.071 A 
BRANCH  17  19
ATOM     19  O   UNL     1       7.382   0.363   4.463  0.00  0.00    -0.406 OA
BRANCH  19  20
ATOM     20  C   UNL     1       8.329   1.412   4.676  0.00  0.00    +0.575 C 
ATOM     21  F   UNL     1       7.768   2.632   4.284  0.00  0.00    -0.133 F 
ATOM     22  F   UNL     1       8.664   1.468   6.033  0.00  0.00    -0.133 F 
ATOM     23  F   UNL     1       9.479   1.163   3.921  0.00  0.00    -0.133 F 
ENDBRANCH  19  20
ENDBRANCH  17  19
ENDBRANCH  10  13
BRANCH   8  24
ATOM     24  C   UNL     1       3.199  -4.232   0.020  0.00  0.00    +0.250 C 
ATOM     25  O   UNL     1       4.372  -4.505   0.185  0.00  0.00    -0.270 OA
ATOM     26  N   UNL     1       2.308  -5.210  -0.236  0.00  0.00    -0.304 N 
ATOM     27  H   UNL     1       1.384  -4.987  -0.428  0.00  0.00    +0.149 HD
BRANCH  26  28
ATOM     28  C   UNL     1       2.737  -6.611  -0.226  0.00  0.00    +0.179 C 
BRANCH  28  29
ATOM     29  C   UNL     1       1.560  -7.499  -0.540  0.00  0.00    +0.122 A 
ATOM     30  C   UNL     1       1.185  -7.902  -1.768  0.00  0.00    +0.046 A 
ATOM     31  C   UNL     1       0.041  -8.715  -1.600  0.00  0.00    +0.041 A 
ATOM     32  C   UNL     1      -0.216  -8.759  -0.280  0.00  0.00    +0.195 A 
ATOM     33  O   UNL     1       0.711  -8.026   0.357  0.00  0.00    -0.466 OA
ENDBRANCH  28  29
ENDBRANCH  26  28
ENDBRANCH   8  24
TORSDOF 6
