REMARK  Name = ZINC00707820
REMARK  5 active torsions:
REMARK  status: ('A' for Active; 'I' for Inactive)
REMARK    1  A    between atoms: C_4  and  C_7
REMARK    2  A    between atoms: C_18  and  C_19
REMARK    3  A    between atoms: C_18  and  C_29
REMARK    4  A    between atoms: C_19  and  C_20
REMARK    5  A    between atoms: C_23  and  N_26
REMARK                            x       y       z     vdW  Elec       q    Type
REMARK                         _______ _______ _______ _____ _____    ______ ____
ROOT
ATOM      1  C   UNL     1       3.695  -0.684  -0.038  0.00  0.00    +0.252 C 
ATOM      2  O   UNL     1       4.734  -0.064  -0.160  0.00  0.00    -0.270 OA
ATOM      3  N   UNL     1       3.720  -2.029   0.056  0.00  0.00    -0.251 N 
ATOM      4  C   UNL     1       2.535  -2.750   0.059  0.00  0.00    +0.081 C 
ATOM      5  C   UNL     1       2.458  -3.890   0.759  0.00  0.00    +0.024 C 
ATOM      6  C   UNL     1       3.642  -4.351   1.511  0.00  0.00    -0.018 A 
ATOM      7  C   UNL     1       3.527  -5.333   2.494  0.00  0.00    +0.008 A 
ATOM      8  C   UNL     1       4.651  -5.744   3.182  0.00  0.00    +0.001 A 
ATOM      9  C   UNL     1       5.884  -5.183   2.900  0.00  0.00    +0.000 A 
ATOM     10  C   UNL     1       6.004  -4.208   1.925  0.00  0.00    +0.007 A 
ATOM     11  C   UNL     1       4.892  -3.792   1.229  0.00  0.00    -0.002 A 
ATOM     12  C   UNL     1       5.002  -2.739   0.150  0.00  0.00    +0.158 C 
ENDROOT
BRANCH   1  16
ATOM     13  C   UNL     1      -0.011   1.386   0.092  0.00  0.00    +0.000 A 
ATOM     14  C   UNL     1       0.115   0.159   0.720  0.00  0.00    +0.001 A 
ATOM     15  C   UNL     1       1.316  -0.518   0.681  0.00  0.00    +0.013 A 
ATOM     16  C   UNL     1       2.405   0.036   0.007  0.00  0.00    +0.037 A 
ATOM     17  C   UNL     1       2.271   1.274  -0.625  0.00  0.00    +0.013 A 
ATOM     18  C   UNL     1       1.064   1.941  -0.578  0.00  0.00    +0.001 A 
ENDBRANCH   1  16
BRANCH  12  19
ATOM     19  C   UNL     1       6.069  -1.786   0.496  0.00  0.00    +0.094 C 
ATOM     20  N   UNL     1       6.893  -1.051   0.763  0.00  0.00    -0.194 NA
ENDBRANCH  12  19
BRANCH  12  21
ATOM     21  C   UNL     1       5.319  -3.404  -1.191  0.00  0.00    +0.081 C 
BRANCH  21  22
ATOM     22  C   UNL     1       5.407  -2.351  -2.266  0.00  0.00    -0.044 A 
ATOM     23  C   UNL     1       4.275  -1.986  -2.971  0.00  0.00    +0.006 A 
ATOM     24  C   UNL     1       4.356  -1.020  -3.957  0.00  0.00    +0.033 A 
ATOM     25  C   UNL     1       5.569  -0.419  -4.237  0.00  0.00    +0.126 A 
ATOM     26  C   UNL     1       6.700  -0.782  -3.531  0.00  0.00    +0.033 A 
ATOM     27  C   UNL     1       6.619  -1.745  -2.542  0.00  0.00    +0.006 A 
BRANCH  25  28
ATOM     28  N   UNL     1       5.656   0.615  -5.293  0.00  0.00    +0.056 N 
ATOM     29  O   UNL     1       4.666   0.933  -5.910  0.00  0.00    -0.126 OA
ATOM     30  O   UNL     1       6.716   1.141  -5.538  0.00  0.00    -0.126 OA
ENDBRANCH  25  28
ENDBRANCH  21  22
ENDBRANCH  12  21
TORSDOF 5
