REMARK  Name = ZINC66995664
REMARK  3 active torsions:
REMARK  status: ('A' for Active; 'I' for Inactive)
REMARK    1  A    between atoms: C_1  and  C_2
REMARK    2  A    between atoms: N_7  and  C_9
REMARK    3  A    between atoms: C_9  and  N_10
REMARK                            x       y       z     vdW  Elec       q    Type
REMARK                         _______ _______ _______ _____ _____    ______ ____
ROOT
ATOM      1  N   UNL     1       1.662  -3.919   2.317  0.00  0.00    -0.258 N 
ATOM      2  C   UNL     1       0.991  -4.818   3.064  0.00  0.00    +0.176 A 
ATOM      3  S   UNL     1      -0.240  -4.465   4.200  0.00  0.00    -0.011 S 
ATOM      4  N   UNL     1       1.460  -6.044   2.759  0.00  0.00    -0.307 N 
ATOM      5  C   UNL     1       2.361  -5.886   1.702  0.00  0.00    +0.132 A 
ATOM      6  N   UNL     1       2.502  -4.636   1.453  0.00  0.00    -0.158 NA
ATOM      7  C   UNL     1       2.952  -7.067   0.976  0.00  0.00    +0.076 C 
ATOM      8  C   UNL     1       1.782  -7.911   0.515  0.00  0.00    +0.008 C 
ATOM      9  C   UNL     1       1.444  -9.049   1.514  0.00  0.00    +0.002 C 
ATOM     10  C   UNL     1       1.867  -8.544   2.901  0.00  0.00    +0.022 C 
ATOM     11  C   UNL     1       1.202  -7.297   3.358  0.00  0.00    +0.125 C 
ENDROOT
BRANCH   1  12
ATOM     12  C   UNL     1       1.534  -2.461   2.390  0.00  0.00    +0.072 C 
BRANCH  12  18
ATOM     13  C   UNL     1      -0.019   1.526   0.010  0.00  0.00    +0.005 C 
ATOM     14  C   UNL     1       0.002  -0.004   0.002  0.00  0.00    -0.031 C 
ATOM     15  C   UNL     1      -1.434  -0.535   0.015  0.00  0.00    -0.001 C 
ATOM     16  C   UNL     1      -1.402  -2.064   0.086  0.00  0.00    -0.018 C 
ATOM     17  C   UNL     1      -0.613  -2.496   1.324  0.00  0.00    -0.076 C 
ATOM     18  N   UNL     1       0.758  -1.980   1.239  0.00  0.00    +0.393 N 
ATOM     19  C   UNL     1       0.740  -0.512   1.242  0.00  0.00    -0.073 C 
ATOM     20  H   UNL     1       1.188  -2.307   0.386  0.00  0.00    -0.079 HD
ENDBRANCH  12  18
ENDBRANCH   1  12
TORSDOF 2
