REMARK  Name = ZINC39951312
REMARK  11 active torsions:
REMARK  status: ('A' for Active; 'I' for Inactive)
REMARK    1  A    between atoms: C_1  and  C_2
REMARK    2  A    between atoms: C_2  and  C_3
REMARK    3  A    between atoms: C_3  and  C_4
REMARK    4  A    between atoms: C_9  and  C_27
REMARK    5  A    between atoms: C_10  and  O_12
REMARK    6  A    between atoms: C_20  and  C_22
REMARK    7  A    between atoms: C_22  and  O_24
REMARK    8  A    between atoms: O_24  and  C_25
REMARK    9  A    between atoms: C_25  and  C_26
REMARK   10  A    between atoms: C_27  and  C_28
REMARK   11  A    between atoms: C_28  and  C_29
REMARK                            x       y       z     vdW  Elec       q    Type
REMARK                         _______ _______ _______ _____ _____    ______ ____
ROOT
ATOM      1  C   UNL     1       0.631  -2.027  -1.200  0.00  0.00    +0.011 C 
ATOM      2  C   UNL     1      -0.835  -2.332  -1.259  0.00  0.00    +0.026 C 
ATOM      3  C   UNL     1      -1.226  -3.665  -0.716  0.00  0.00    +0.087 C 
ATOM      4  N   UNL     1      -0.235  -4.704  -0.834  0.00  0.00    -0.283 NA
ATOM      5  C   UNL     1       0.460  -4.799  -2.094  0.00  0.00    +0.097 C 
ATOM      6  C   UNL     1       1.731  -3.988  -2.240  0.00  0.00    +0.023 C 
ATOM      7  C   UNL     1       1.399  -2.502  -2.412  0.00  0.00    +0.131 C 
ATOM      8  C   UNL     1       2.603  -4.126  -0.987  0.00  0.00    +0.097 C 
ATOM      9  N   UNL     1       1.753  -3.799   0.169  0.00  0.00    -0.283 NA
ATOM     10  C   UNL     1       1.299  -2.407   0.108  0.00  0.00    +0.095 C 
ATOM     11  C   UNL     1       0.665  -4.749   0.323  0.00  0.00    +0.088 C 
ATOM     12  C   UNL     1      -0.106  -4.479   1.635  0.00  0.00    +0.039 C 
ATOM     13  C   UNL     1      -0.936  -5.780   1.787  0.00  0.00    +0.004 C 
ATOM     14  C   UNL     1       0.023  -6.897   1.311  0.00  0.00    +0.018 C 
ATOM     15  C   UNL     1       1.161  -6.192   0.534  0.00  0.00    +0.133 C 
ENDROOT
BRANCH   7  16
ATOM     16  O   UNL     1       2.603  -1.745  -2.544  0.00  0.00    -0.391 OA
ATOM     17  H   UNL     1       2.460  -0.794  -2.652  0.00  0.00    +0.210 HD
ENDBRANCH   7  16
BRANCH  15  18
ATOM     18  C   UNL     1       2.408  -6.209   1.380  0.00  0.00    +0.313 C 
ATOM     19  O   UNL     1       2.876  -5.172   1.788  0.00  0.00    -0.250 OA
BRANCH  18  20
ATOM     20  O   UNL     1       3.000  -7.376   1.680  0.00  0.00    -0.465 OA
BRANCH  20  21
ATOM     21  C   UNL     1       4.179  -7.317   2.485  0.00  0.00    +0.229 C 
ATOM     22  C   UNL     1       4.707  -8.734   2.720  0.00  0.00    +0.048 C 
ENDBRANCH  20  21
ENDBRANCH  18  20
ENDBRANCH  15  18
BRANCH   1  23
ATOM     23  C   UNL     1       0.718  -0.497  -1.257  0.00  0.00    +0.010 C 
BRANCH  23  25
ATOM     24  C   UNL     1       0.169   1.527  -2.614  0.00  0.00    +0.004 C 
ATOM     25  C   UNL     1       0.113  -0.001  -2.571  0.00  0.00    -0.003 C 
ENDBRANCH  23  25
ENDBRANCH   1  23
BRANCH   6  26
ATOM     26  C   UNL     1       2.512  -4.481  -3.461  0.00  0.00    +0.012 C 
BRANCH  26  27
ATOM     27  C   UNL     1       2.867  -5.958  -3.276  0.00  0.00    -0.003 C 
ATOM     28  C   UNL     1       3.648  -6.451  -4.495  0.00  0.00    +0.004 C 
ENDBRANCH  26  27
ENDBRANCH   6  26
TORSDOF 8
