REMARK  Name = ZINC09457208
REMARK  9 active torsions:
REMARK  status: ('A' for Active; 'I' for Inactive)
REMARK    1  A    between atoms: C_1  and  C_2
REMARK    2  A    between atoms: C_4  and  C_16
REMARK    3  A    between atoms: C_5  and  C_15
REMARK    4  A    between atoms: N_6  and  C_7
REMARK    5  A    between atoms: C_16  and  C_18
REMARK    6  A    between atoms: C_18  and  O_19
REMARK    7  A    between atoms: O_19  and  C_20
REMARK    8  A    between atoms: C_20  and  C_22
REMARK    9  A    between atoms: C_23  and  C_31
REMARK                            x       y       z     vdW  Elec       q    Type
REMARK                         _______ _______ _______ _____ _____    ______ ____
ROOT
ATOM      1  C   UNL     1      -1.334  10.222  -0.161  0.00  0.00    +0.202 C 
ATOM      2  O   UNL     1      -0.150  10.045  -0.354  0.00  0.00    -0.288 OA
ENDROOT
BRANCH   1   6
ATOM      3  C   UNL     1      -4.488  14.169   0.503  0.00  0.00    +0.063 C 
ATOM      4  C   UNL     1      -3.267  13.316   0.274  0.00  0.00    +0.017 A 
ATOM      5  C   UNL     1      -3.255  11.973   0.216  0.00  0.00    +0.034 A 
ATOM      6  C   UNL     1      -1.858  11.582  -0.021  0.00  0.00    +0.042 A 
ATOM      7  C   UNL     1      -1.140  12.762  -0.078  0.00  0.00    +0.027 A 
ATOM      8  N   UNL     1      -1.997  13.784   0.094  0.00  0.00    -0.343 N 
ATOM      9  C   UNL     1       0.346  12.882  -0.299  0.00  0.00    +0.064 C 
BRANCH   8  10
ATOM     10  C   UNL     1      -1.621  15.199   0.096  0.00  0.00    +0.110 C 
ATOM     11  C   UNL     1      -2.061  15.844   1.421  0.00  0.00    +0.049 C 
ATOM     12  C   UNL     1      -1.938  17.387   1.273  0.00  0.00    +0.168 C 
ATOM     13  S   UNL     1      -2.576  17.613  -0.441  0.00  0.00    -0.029 S 
ATOM     14  O   UNL     1      -3.973  17.871  -0.384  0.00  0.00    -0.174 OA
ATOM     15  O   UNL     1      -1.726  18.516  -1.135  0.00  0.00    -0.174 OA
ATOM     16  C   UNL     1      -2.308  15.915  -1.093  0.00  0.00    +0.191 C 
ENDBRANCH   8  10
ENDBRANCH   1   6
BRANCH   1  17
ATOM     17  C   UNL     1      -2.267   9.042  -0.065  0.00  0.00    +0.312 C 
BRANCH  17  18
ATOM     18  O   UNL     1      -1.511   7.814  -0.235  0.00  0.00    -0.451 OA
BRANCH  18  19
ATOM     19  C   UNL     1      -2.202   6.657  -0.176  0.00  0.00    +0.376 C 
ATOM     20  O   UNL     1      -3.403   6.675   0.013  0.00  0.00    -0.241 OA
BRANCH  19  21
ATOM     21  C   UNL     1      -1.504   5.376  -0.340  0.00  0.00    +0.216 A 
ATOM     22  C   UNL     1      -2.095   4.152  -0.299  0.00  0.00    +0.010 A 
ATOM     23  C   UNL     1      -1.024   3.179  -0.508  0.00  0.00    +0.024 A 
ATOM     24  C   UNL     1      -0.976   1.784  -0.579  0.00  0.00    +0.012 A 
ATOM     25  C   UNL     1       0.220   1.158  -0.788  0.00  0.00    +0.001 A 
ATOM     26  C   UNL     1       1.385   1.897  -0.940  0.00  0.00    +0.004 A 
ATOM     27  C   UNL     1       1.358   3.274  -0.877  0.00  0.00    +0.047 A 
ATOM     28  C   UNL     1       0.154   3.934  -0.661  0.00  0.00    +0.136 A 
ATOM     29  O   UNL     1      -0.179   5.235  -0.554  0.00  0.00    -0.448 OA
ATOM     30  C   UNL     1      -3.557   3.859  -0.082  0.00  0.00    +0.048 C 
ENDBRANCH  19  21
ENDBRANCH  18  19
ENDBRANCH  17  18
ENDBRANCH   1  17
TORSDOF 6
