REMARK  Name = ZINC12507586
REMARK  5 active torsions:
REMARK  status: ('A' for Active; 'I' for Inactive)
REMARK    1  A    between atoms: C_1  and  C_2
REMARK    2  A    between atoms: C_7  and  C_11
REMARK    3  A    between atoms: N_13  and  C_14
REMARK    4  A    between atoms: C_15  and  C_24
REMARK    5  A    between atoms: C_21  and  C_23
REMARK                            x       y       z     vdW  Elec       q    Type
REMARK                         _______ _______ _______ _____ _____    ______ ____
ROOT
ATOM      1  C   UNL     1      -6.822   1.212   0.169  0.00  0.00    +0.138 A 
ATOM      2  C   UNL     1      -7.650   0.113   0.269  0.00  0.00    +0.112 A 
ATOM      3  N   UNL     1      -8.917   0.553   0.355  0.00  0.00    -0.226 NA
ATOM      4  C   UNL     1      -8.925   1.876   0.305  0.00  0.00    +0.140 A 
ATOM      5  N   UNL     1      -7.628   2.318   0.188  0.00  0.00    -0.287 N 
ATOM      6  C   UNL     1      -7.357   3.657   0.116  0.00  0.00    +0.095 A 
ATOM      7  C   UNL     1      -8.355   4.562   0.157  0.00  0.00    +0.021 A 
ATOM      8  C   UNL     1      -9.691   4.142   0.276  0.00  0.00    -0.046 A 
ATOM      9  C   UNL     1      -9.977   2.815   0.349  0.00  0.00    +0.050 A 
ATOM     10  C   UNL     1     -10.803   5.158   0.321  0.00  0.00    +0.044 C 
ENDROOT
BRANCH   2  11
ATOM     11  C   UNL     1      -7.217  -1.304   0.283  0.00  0.00    +0.004 A 
ATOM     12  C   UNL     1      -6.128  -1.711  -0.487  0.00  0.00    +0.010 A 
ATOM     13  C   UNL     1      -5.726  -3.031  -0.466  0.00  0.00    +0.001 A 
ATOM     14  C   UNL     1      -6.410  -3.952   0.308  0.00  0.00    +0.000 A 
ATOM     15  C   UNL     1      -7.494  -3.556   1.069  0.00  0.00    +0.001 A 
ATOM     16  C   UNL     1      -7.902  -2.237   1.061  0.00  0.00    +0.010 A 
ENDBRANCH   2  11
BRANCH   1  19
ATOM     17  C   UNL     1      -4.799   2.170  -0.627  0.00  0.00    +0.269 C 
ATOM     18  O   UNL     1      -5.443   2.992  -1.250  0.00  0.00    -0.268 OA
ATOM     19  N   UNL     1      -5.431   1.199   0.062  0.00  0.00    -0.264 N 
ATOM     20  H   UNL     1      -4.919   0.491   0.484  0.00  0.00    +0.157 HD
BRANCH  17  27
ATOM     21  C   UNL     1       2.470   1.264   0.284  0.00  0.00    +0.044 C 
ATOM     22  C   UNL     1       1.144   1.818  -0.168  0.00  0.00    -0.046 A 
ATOM     23  C   UNL     1       1.098   2.950  -0.999  0.00  0.00    +0.021 A 
ATOM     24  C   UNL     1      -0.087   3.450  -1.405  0.00  0.00    +0.093 A 
ATOM     25  N   UNL     1      -1.260   2.865  -1.017  0.00  0.00    -0.306 N 
ATOM     26  C   UNL     1      -2.563   3.162  -1.278  0.00  0.00    +0.125 A 
ATOM     27  C   UNL     1      -3.325   2.235  -0.625  0.00  0.00    +0.144 A 
ATOM     28  N   UNL     1      -2.498   1.392   0.020  0.00  0.00    -0.223 NA
ATOM     29  C   UNL     1      -1.247   1.754  -0.210  0.00  0.00    +0.139 A 
ATOM     30  C   UNL     1      -0.013   1.224   0.227  0.00  0.00    +0.050 A 
ENDBRANCH  17  27
ENDBRANCH   1  19
TORSDOF 3
