REMARK  Name = ZINC20257625
REMARK  7 active torsions:
REMARK  status: ('A' for Active; 'I' for Inactive)
REMARK    1  A    between atoms: C_1  and  C_2
REMARK    2  A    between atoms: C_5  and  N_21
REMARK    3  A    between atoms: C_6  and  C_20
REMARK    4  A    between atoms: C_7  and  N_8
REMARK    5  A    between atoms: N_8  and  S_9
REMARK    6  A    between atoms: S_9  and  N_12
REMARK    7  A    between atoms: C_16  and  C_19
REMARK                            x       y       z     vdW  Elec       q    Type
REMARK                         _______ _______ _______ _____ _____    ______ ____
ROOT
ATOM      1  N   UNL     1       4.239   1.484   1.356  0.00  0.00    -0.206 N 
ATOM      2  H   UNL     1       4.712   1.406   0.365  0.00  0.00    +0.175 HD
ENDROOT
BRANCH   1   9
ATOM      3  C   UNL     1       3.760   4.265   1.010  0.00  0.00    +0.046 C 
ATOM      4  C   UNL     1       4.547   3.732   2.179  0.00  0.00    -0.028 A 
ATOM      5  C   UNL     1       5.054   4.603   3.124  0.00  0.00    +0.007 A 
ATOM      6  C   UNL     1       5.781   4.119   4.194  0.00  0.00    +0.023 A 
ATOM      7  C   UNL     1       5.999   2.752   4.327  0.00  0.00    +0.029 A 
ATOM      8  C   UNL     1       5.486   1.875   3.383  0.00  0.00    -0.007 A 
ATOM      9  C   UNL     1       4.757   2.365   2.309  0.00  0.00    +0.057 A 
ATOM     10  C   UNL     1       5.721   0.393   3.523  0.00  0.00    +0.047 C 
BRANCH   7  11
ATOM     11  N   UNL     1       6.734   2.264   5.410  0.00  0.00    -0.358 N 
ATOM     12  H   UNL     1       6.906   1.182   5.514  0.00  0.00    +0.142 HD
ATOM     13  H   UNL     1       7.140   2.960   6.158  0.00  0.00    +0.142 HD
ENDBRANCH   7  11
ENDBRANCH   1   9
BRANCH   1  14
ATOM     14  S   UNL     1       2.914   0.559   1.716  0.00  0.00    +0.112 S 
ATOM     15  O   UNL     1       3.116   0.054   3.029  0.00  0.00    -0.138 OA
ATOM     16  O   UNL     1       2.695  -0.290   0.598  0.00  0.00    -0.138 OA
BRANCH  14  17
ATOM     17  N   UNL     1       1.612   1.580   1.798  0.00  0.00    -0.164 NA
ATOM     18  C   UNL     1       1.167   2.125   3.087  0.00  0.00    +0.111 C 
ATOM     19  C   UNL     1      -0.323   1.818   3.265  0.00  0.00    +0.017 C 
ATOM     20  C   UNL     1      -1.097   2.352   2.057  0.00  0.00    +0.006 C 
ATOM     21  C   UNL     1      -0.608   1.652   0.787  0.00  0.00    +0.002 C 
ATOM     22  C   UNL     1       0.879   1.957   0.581  0.00  0.00    +0.114 C 
ATOM     23  C   UNL     1      -1.405   2.161  -0.416  0.00  0.00    +0.009 C 
ENDBRANCH  14  17
ENDBRANCH   1  14
TORSDOF 4
