REMARK  Name = ZINC20509634
REMARK  5 active torsions:
REMARK  status: ('A' for Active; 'I' for Inactive)
REMARK    1  A    between atoms: C_4  and  C_7
REMARK    2  A    between atoms: C_7  and  C_9
REMARK    3  A    between atoms: C_7  and  N_21
REMARK    4  A    between atoms: C_12  and  C_14
REMARK    5  A    between atoms: C_24  and  C_27
REMARK                            x       y       z     vdW  Elec       q    Type
REMARK                         _______ _______ _______ _____ _____    ______ ____
ROOT
ATOM      1  C   UNL     1       4.510   6.897  -0.004  0.00  0.00    +0.052 C 
ENDROOT
BRANCH   1   2
ATOM      2  N   UNL     1       5.596   6.927  -0.993  0.00  0.00    +0.390 N 
ATOM      3  C   UNL     1       6.311   8.209  -0.951  0.00  0.00    -0.077 C 
ATOM      4  C   UNL     1       7.520   8.151  -1.887  0.00  0.00    -0.006 C 
ATOM      5  C   UNL     1       7.043   7.858  -3.312  0.00  0.00    +0.071 C 
ATOM      6  C   UNL     1       6.260   6.542  -3.319  0.00  0.00    -0.006 C 
ATOM      7  C   UNL     1       5.087   6.647  -2.342  0.00  0.00    -0.077 C 
ATOM      8  H   UNL     1       6.313   6.134  -0.734  0.00  0.00    -0.080 HD
BRANCH   5   9
ATOM      9  C   UNL     1       8.233   7.741  -4.229  0.00  0.00    +0.213 C 
ATOM     10  O   UNL     1       8.437   6.707  -4.830  0.00  0.00    -0.276 OA
ATOM     11  N   UNL     1       9.072   8.785  -4.381  0.00  0.00    -0.329 N 
ATOM     12  H   UNL     1       9.941   8.700  -5.050  0.00  0.00    +0.145 HD
ATOM     13  H   UNL     1       8.888   9.723  -3.836  0.00  0.00    +0.145 HD
ENDBRANCH   5   9
ENDBRANCH   1   2
BRANCH   1  17
ATOM     14  C   UNL     1       6.095   7.722   3.876  0.00  0.00    +0.000 A 
ATOM     15  C   UNL     1       4.878   8.258   3.498  0.00  0.00    +0.000 A 
ATOM     16  C   UNL     1       4.365   7.991   2.242  0.00  0.00    +0.002 A 
ATOM     17  C   UNL     1       5.069   7.188   1.365  0.00  0.00    -0.052 A 
ATOM     18  C   UNL     1       6.284   6.648   1.745  0.00  0.00    +0.002 A 
ATOM     19  C   UNL     1       6.798   6.918   2.999  0.00  0.00    +0.000 A 
ENDBRANCH   1  17
BRANCH   1  20
ATOM     20  C   UNL     1       3.868   5.534  -0.005  0.00  0.00    +0.209 A 
ATOM     21  N   UNL     1       4.491   4.389  -0.016  0.00  0.00    -0.113 NA
ATOM     22  N   UNL     1       3.632   3.431  -0.008  0.00  0.00    -0.107 NA
ATOM     23  C   UNL     1       2.421   3.936   0.000  0.00  0.00    +0.250 A 
ATOM     24  O   UNL     1       2.548   5.278   0.006  0.00  0.00    -0.422 OA
BRANCH  23  25
ATOM     25  C   UNL     1       1.153   3.175   0.008  0.00  0.00    +0.057 A 
ATOM     26  C   UNL     1       1.173   1.780   0.000  0.00  0.00    +0.015 A 
ATOM     27  C   UNL     1      -0.013   1.076   0.008  0.00  0.00    +0.001 A 
ATOM     28  C   UNL     1      -1.221   1.750   0.017  0.00  0.00    +0.001 A 
ATOM     29  C   UNL     1      -1.250   3.132   0.030  0.00  0.00    +0.021 A 
ATOM     30  C   UNL     1      -0.069   3.850   0.022  0.00  0.00    +0.053 A 
ATOM     31 CL   UNL     1      -0.106   5.585   0.031  0.00  0.00    -0.083 Cl
ENDBRANCH  23  25
ENDBRANCH   1  20
TORSDOF 5
