REMARK  Name = ZINC09910289
REMARK  8 active torsions:
REMARK  status: ('A' for Active; 'I' for Inactive)
REMARK    1  A    between atoms: C_1  and  C_2
REMARK    2  A    between atoms: C_8  and  C_16
REMARK    3  A    between atoms: C_12  and  C_13
REMARK    4  A    between atoms: C_13  and  C_15
REMARK    5  A    between atoms: C_16  and  S_17
REMARK    6  A    between atoms: S_17  and  C_18
REMARK    7  A    between atoms: C_21  and  C_23
REMARK    8  A    between atoms: C_30  and  C_33
REMARK                            x       y       z     vdW  Elec       q    Type
REMARK                         _______ _______ _______ _____ _____    ______ ____
ROOT
ATOM      1  C   UNL     1      -0.013   1.086   0.008  0.00  0.00    +0.153 C 
ENDROOT
BRANCH   1   9
ATOM      2  C   UNL     1      -2.461   2.773   5.959  0.00  0.00    +0.046 C 
ATOM      3  C   UNL     1      -2.818   3.017   4.516  0.00  0.00    -0.018 A 
ATOM      4  C   UNL     1      -2.033   2.477   3.498  0.00  0.00    +0.076 A 
ATOM      5  C   UNL     1      -0.815   1.640   3.602  0.00  0.00    +0.260 A 
ATOM      6  O   UNL     1      -0.361   1.329   4.688  0.00  0.00    -0.267 OA
ATOM      7  N   UNL     1      -0.225   1.228   2.463  0.00  0.00    -0.310 N 
ATOM      8  H   UNL     1       0.571   0.676   2.513  0.00  0.00    +0.170 HD
ATOM      9  C   UNL     1      -0.718   1.572   1.248  0.00  0.00    +0.121 A 
ATOM     10  N   UNL     1      -1.789   2.307   1.120  0.00  0.00    -0.226 NA
ATOM     11  C   UNL     1      -2.451   2.763   2.176  0.00  0.00    +0.116 A 
ATOM     12  S   UNL     1      -3.901   3.759   2.407  0.00  0.00    -0.065 S 
ATOM     13  C   UNL     1      -3.923   3.776   4.192  0.00  0.00    +0.060 A 
BRANCH  13  14
ATOM     14  C   UNL     1      -4.843   4.408   5.057  0.00  0.00    +0.167 C 
ATOM     15  O   UNL     1      -4.708   4.316   6.261  0.00  0.00    -0.292 OA
ATOM     16  C   UNL     1      -5.993   5.198   4.487  0.00  0.00    +0.092 C 
ENDBRANCH  13  14
ENDBRANCH   1   9
BRANCH   1  17
ATOM     17  S   UNL     1      -0.888   1.685  -1.458  0.00  0.00    -0.058 S 
BRANCH  17  18
ATOM     18  C   UNL     1       0.122   0.990  -2.724  0.00  0.00    +0.278 A 
ATOM     19  N   UNL     1       1.193   0.254  -2.544  0.00  0.00    -0.101 NA
ATOM     20  N   UNL     1       1.680  -0.082  -3.687  0.00  0.00    -0.106 NA
ATOM     21  C   UNL     1       0.937   0.427  -4.643  0.00  0.00    +0.256 A 
ATOM     22  O   UNL     1      -0.068   1.112  -4.052  0.00  0.00    -0.410 OA
BRANCH  21  23
ATOM     23  C   UNL     1       1.155   0.275  -6.090  0.00  0.00    +0.076 A 
ATOM     24  C   UNL     1       2.151  -0.411  -6.752  0.00  0.00    +0.024 A 
ATOM     25  C   UNL     1       2.165  -0.424  -8.141  0.00  0.00    -0.036 A 
ATOM     26  C   UNL     1       1.168   0.260  -8.772  0.00  0.00    -0.006 A 
ATOM     27  S   UNL     1       0.193   0.924  -7.448  0.00  0.00    -0.088 S 
ATOM     28  C   UNL     1       0.955   0.404 -10.245  0.00  0.00    +0.043 C 
ATOM     29  C   UNL     1       2.241  -0.031 -10.964  0.00  0.00    +0.009 C 
ATOM     30  C   UNL     1       2.705  -1.366 -10.376  0.00  0.00    -0.009 C 
ATOM     31  C   UNL     1       3.228  -1.158  -8.954  0.00  0.00    +0.039 C 
ATOM     32  C   UNL     1       3.822  -1.942 -11.248  0.00  0.00    +0.008 C 
ENDBRANCH  21  23
ENDBRANCH  17  18
ENDBRANCH   1  17
TORSDOF 5
