REMARK  Name = ZINC15928866
REMARK  5 active torsions:
REMARK  status: ('A' for Active; 'I' for Inactive)
REMARK    1  A    between atoms: C_3  and  N_26
REMARK    2  A    between atoms: C_5  and  S_7
REMARK    3  A    between atoms: S_7  and  N_10
REMARK    4  A    between atoms: C_16  and  C_18
REMARK    5  A    between atoms: C_18  and  C_19
REMARK                            x       y       z     vdW  Elec       q    Type
REMARK                         _______ _______ _______ _____ _____    ______ ____
ROOT
ATOM      1  N   UNL     1      -0.096   6.099  -1.549  0.00  0.00    -0.174 NA
ATOM      2  C   UNL     1       1.159   6.347  -2.272  0.00  0.00    +0.128 C 
ATOM      3  C   UNL     1       1.159   5.492  -3.551  0.00  0.00    +0.125 C 
ATOM      4  N   UNL     1      -0.116   5.699  -4.253  0.00  0.00    -0.299 N 
ATOM      5  C   UNL     1      -1.371   5.457  -3.527  0.00  0.00    +0.125 C 
ATOM      6  C   UNL     1      -1.371   6.306  -2.250  0.00  0.00    +0.128 C 
ATOM      7  C   UNL     1      -0.133   6.105  -5.538  0.00  0.00    +0.220 C 
ATOM      8  O   UNL     1      -1.192   6.273  -6.106  0.00  0.00    -0.275 OA
ENDROOT
BRANCH   1   9
ATOM      9  S   UNL     1      -0.074   5.602   0.031  0.00  0.00    +0.061 S 
ATOM     10  O   UNL     1      -1.319   5.989   0.596  0.00  0.00    -0.153 OA
ATOM     11  O   UNL     1       1.171   6.022   0.572  0.00  0.00    -0.153 OA
BRANCH   9  16
ATOM     12  C   UNL     1       1.175   1.783   0.000  0.00  0.00    +0.004 A 
ATOM     13  C   UNL     1      -0.013   1.076   0.008  0.00  0.00    +0.033 A 
ATOM     14  C   UNL     1      -1.219   1.750   0.017  0.00  0.00    +0.128 A 
ATOM     15  C   UNL     1      -1.238   3.133   0.030  0.00  0.00    +0.061 A 
ATOM     16  C   UNL     1      -0.050   3.840   0.022  0.00  0.00    +0.108 A 
ATOM     17  C   UNL     1       1.157   3.165   0.008  0.00  0.00    +0.028 A 
BRANCH  14  18
ATOM     18  N   UNL     1      -2.490   0.993   0.019  0.00  0.00    +0.056 N 
ATOM     19  O   UNL     1      -2.474  -0.225   0.013  0.00  0.00    -0.126 OA
ATOM     20  O   UNL     1      -3.554   1.588   0.028  0.00  0.00    -0.126 OA
ENDBRANCH  14  18
ENDBRANCH   9  16
ENDBRANCH   1   9
BRANCH   7  21
ATOM     21  C   UNL     1       1.162   6.349  -6.269  0.00  0.00    +0.131 C 
BRANCH  21  22
ATOM     22  C   UNL     1       0.867   6.791  -7.679  0.00  0.00    -0.039 A 
ATOM     23  C   UNL     1       0.749   5.853  -8.687  0.00  0.00    +0.005 A 
ATOM     24  C   UNL     1       0.474   6.257  -9.980  0.00  0.00    +0.015 A 
ATOM     25  C   UNL     1       0.327   7.602 -10.267  0.00  0.00    +0.018 A 
ATOM     26  C   UNL     1       0.450   8.541  -9.258  0.00  0.00    +0.015 A 
ATOM     27  C   UNL     1       0.719   8.136  -7.965  0.00  0.00    +0.005 A 
ATOM     28 BR   UNL     1      -0.043   8.157 -12.036  0.00  0.00    -0.050 Br
ENDBRANCH  21  22
ENDBRANCH   7  21
TORSDOF 5
