REMARK  Name = ZINC54914879
REMARK  8 active torsions:
REMARK  status: ('A' for Active; 'I' for Inactive)
REMARK    1  A    between atoms: C_1  and  C_2
REMARK    2  A    between atoms: C_5  and  N_8
REMARK    3  A    between atoms: C_11  and  C_14
REMARK    4  A    between atoms: C_14  and  S_15
REMARK    5  A    between atoms: S_15  and  C_16
REMARK    6  A    between atoms: C_19  and  C_23
REMARK    7  A    between atoms: C_20  and  N_22
REMARK    8  A    between atoms: C_25  and  C_27
REMARK                            x       y       z     vdW  Elec       q    Type
REMARK                         _______ _______ _______ _____ _____    ______ ____
ROOT
ATOM      1  N   UNL     1       0.059  -4.171  -0.021  0.00  0.00    -0.219 N 
ATOM      2  C   UNL     1       0.180  -4.872   1.175  0.00  0.00    +0.172 A 
ATOM      3  N   UNL     1       0.310  -6.168   1.354  0.00  0.00    -0.228 NA
ATOM      4  C   UNL     1       0.414  -6.683   2.565  0.00  0.00    +0.061 A 
ATOM      5  C   UNL     1       0.381  -5.817   3.607  0.00  0.00    +0.072 A 
ATOM      6  S   UNL     1       0.203  -4.264   2.745  0.00  0.00    -0.060 S 
ATOM      7  C   UNL     1      -0.033  -4.841  -1.187  0.00  0.00    +0.223 C 
ATOM      8  O   UNL     1      -0.102  -6.052  -1.188  0.00  0.00    -0.275 OA
ATOM      9  C   UNL     1      -0.050  -4.085  -2.491  0.00  0.00    +0.110 C 
ENDROOT
BRANCH   1  14
ATOM     10  C   UNL     1      -0.045   1.502   0.011  0.00  0.00    +0.044 C 
ATOM     11  C   UNL     1      -0.018  -0.005   0.003  0.00  0.00    -0.050 A 
ATOM     12  C   UNL     1      -1.088  -0.718   0.511  0.00  0.00    +0.005 A 
ATOM     13  C   UNL     1      -1.065  -2.098   0.505  0.00  0.00    +0.024 A 
ATOM     14  C   UNL     1       0.033  -2.771  -0.014  0.00  0.00    +0.043 A 
ATOM     15  C   UNL     1       1.106  -2.053  -0.524  0.00  0.00    +0.024 A 
ATOM     16  C   UNL     1       1.076  -0.672  -0.519  0.00  0.00    +0.005 A 
ENDBRANCH   1  14
BRANCH   4  17
ATOM     17  C   UNL     1       0.562  -8.168   2.779  0.00  0.00    +0.133 C 
BRANCH  17  18
ATOM     18  S   UNL     1       2.323  -8.604   2.786  0.00  0.00    -0.080 S 
BRANCH  18  19
ATOM     19  C   UNL     1       2.329 -10.348   3.043  0.00  0.00    +0.190 A 
ATOM     20  N   UNL     1       1.170 -10.983   3.169  0.00  0.00    -0.229 NA
ATOM     21  C   UNL     1       1.125 -12.289   3.362  0.00  0.00    +0.136 A 
ATOM     22  C   UNL     1       2.323 -13.007   3.435  0.00  0.00    +0.109 A 
ATOM     23  C   UNL     1       3.535 -12.297   3.297  0.00  0.00    +0.138 A 
ATOM     24  N   UNL     1       3.490 -10.985   3.099  0.00  0.00    -0.206 NA
BRANCH  23  25
ATOM     25  N   UNL     1       4.747 -12.955   3.361  0.00  0.00    -0.342 N 
ATOM     26  H   UNL     1       4.770 -13.915   3.502  0.00  0.00    +0.144 HD
ATOM     27  H   UNL     1       5.574 -12.459   3.265  0.00  0.00    +0.144 HD
ENDBRANCH  23  25
BRANCH  22  28
ATOM     28  C   UNL     1       2.320 -14.424   3.645  0.00  0.00    +0.104 C 
ATOM     29  N   UNL     1       2.318 -15.547   3.811  0.00  0.00    -0.191 NA
ENDBRANCH  22  28
ENDBRANCH  18  19
ENDBRANCH  17  18
ENDBRANCH   4  17
TORSDOF 6
