REMARK  Name = ZINC36354911
REMARK  4 active torsions:
REMARK  status: ('A' for Active; 'I' for Inactive)
REMARK    1  A    between atoms: C_6  and  N_7
REMARK    2  A    between atoms: N_13  and  C_17
REMARK    3  A    between atoms: C_17  and  C_18
REMARK    4  A    between atoms: N_20  and  C_21
REMARK                            x       y       z     vdW  Elec       q    Type
REMARK                         _______ _______ _______ _____ _____    ______ ____
ROOT
ATOM      1  N   UNL     1      -1.200  -0.722   0.010  0.00  0.00    -0.245 N 
ATOM      2  C   UNL     1      -1.347  -2.187   0.010  0.00  0.00    +0.191 C 
ATOM      3  C   UNL     1      -2.845  -2.396   0.021  0.00  0.00    +0.157 A 
ATOM      4  N   UNL     1      -3.799  -3.282   0.027  0.00  0.00    -0.175 NA
ATOM      5  C   UNL     1      -4.997  -2.667   0.037  0.00  0.00    +0.366 A 
ATOM      6  O   UNL     1      -6.081  -3.220   0.045  0.00  0.00    -0.243 OA
ATOM      7  N   UNL     1      -4.791  -1.334   0.037  0.00  0.00    -0.215 N 
ATOM      8  N   UNL     1      -3.395  -1.147   0.027  0.00  0.00    -0.183 N 
ATOM      9  C   UNL     1      -2.441  -0.204   0.026  0.00  0.00    +0.342 C 
ATOM     10  O   UNL     1      -2.672   0.989   0.035  0.00  0.00    -0.247 OA
ENDROOT
BRANCH   1  16
ATOM     11  C   UNL     1      -0.017   1.384   0.010  0.00  0.00    +0.026 A 
ATOM     12  C   UNL     1       1.170   2.090   0.002  0.00  0.00    +0.040 A 
ATOM     13  C   UNL     1       2.379   1.414  -0.013  0.00  0.00    +0.124 A 
ATOM     14  C   UNL     1       2.400   0.030  -0.021  0.00  0.00    +0.040 A 
ATOM     15  C   UNL     1       1.215  -0.680  -0.013  0.00  0.00    +0.026 A 
ATOM     16  C   UNL     1       0.002  -0.004   0.002  0.00  0.00    +0.039 A 
ATOM     17  F   UNL     1       3.539   2.106  -0.022  0.00  0.00    -0.205 F 
ENDBRANCH   1  16
BRANCH   7  18
ATOM     18  C   UNL     1      -5.816  -0.288   0.046  0.00  0.00    +0.243 C 
BRANCH  18  19
ATOM     19  C   UNL     1      -6.268  -0.015  -1.365  0.00  0.00    +0.235 C 
ATOM     20  O   UNL     1      -5.781  -0.633  -2.288  0.00  0.00    -0.274 OA
ATOM     21  N   UNL     1      -7.213   0.917  -1.602  0.00  0.00    -0.311 N 
ATOM     22  H   UNL     1      -7.602   1.411  -0.864  0.00  0.00    +0.149 HD
BRANCH  21  23
ATOM     23  C   UNL     1      -7.652   1.182  -2.975  0.00  0.00    +0.073 C 
ATOM     24  C   UNL     1      -6.703   2.190  -3.627  0.00  0.00    +0.022 C 
ATOM     25  C   UNL     1      -7.161   2.467  -5.061  0.00  0.00    +0.002 C 
ATOM     26  C   UNL     1      -8.580   3.041  -5.040  0.00  0.00    +0.000 C 
ATOM     27  C   UNL     1      -9.528   2.033  -4.388  0.00  0.00    +0.002 C 
ATOM     28  C   UNL     1      -9.070   1.756  -2.954  0.00  0.00    +0.022 C 
ENDBRANCH  21  23
ENDBRANCH  18  19
ENDBRANCH   7  18
TORSDOF 4
