REMARK  Name = ZINC55599164
REMARK  3 active torsions:
REMARK  status: ('A' for Active; 'I' for Inactive)
REMARK    1  A    between atoms: C_1  and  N_2
REMARK    2  A    between atoms: C_7  and  C_9
REMARK    3  A    between atoms: C_15  and  C_17
REMARK                            x       y       z     vdW  Elec       q    Type
REMARK                         _______ _______ _______ _____ _____    ______ ____
ROOT
ATOM      1  C   UNL     1       2.566  -2.665  -0.078  0.00  0.00    +0.267 C 
ATOM      2  O   UNL     1       2.698  -3.873  -0.093  0.00  0.00    -0.268 OA
ATOM      3  N   UNL     1       3.653  -1.868  -0.051  0.00  0.00    -0.293 N 
ATOM      4  C   UNL     1       3.642  -0.397  -0.134  0.00  0.00    +0.108 C 
ATOM      5  C   UNL     1       5.043  -0.019  -0.678  0.00  0.00    +0.021 C 
ATOM      6  C   UNL     1       5.943  -1.069   0.026  0.00  0.00    +0.024 C 
ATOM      7  C   UNL     1       5.046  -2.323   0.070  0.00  0.00    +0.080 C 
ENDROOT
BRANCH   1  14
ATOM      8  C   UNL     1      -0.155   1.267  -0.055  0.00  0.00    +0.176 C 
ATOM      9  N   UNL     1      -0.080  -0.196  -0.076  0.00  0.00    -0.232 N 
ATOM     10  C   UNL     1      -1.221  -0.910  -0.101  0.00  0.00    +0.267 A 
ATOM     11  O   UNL     1      -2.300  -0.343  -0.107  0.00  0.00    -0.266 OA
ATOM     12  C   UNL     1      -1.159  -2.321  -0.121  0.00  0.00    +0.074 A 
ATOM     13  C   UNL     1       0.072  -2.907  -0.114  0.00  0.00    +0.040 A 
ATOM     14  C   UNL     1       1.213  -2.068  -0.087  0.00  0.00    +0.146 A 
ATOM     15  N   UNL     1       1.073  -0.762  -0.074  0.00  0.00    -0.164 NA
ENDBRANCH   1  14
BRANCH   7  16
ATOM     16  C   UNL     1       5.239  -3.058   1.398  0.00  0.00    +0.010 C 
ATOM     17  C   UNL     1       4.854  -2.133   2.554  0.00  0.00    +0.005 C 
ATOM     18  C   UNL     1       5.048  -2.868   3.882  0.00  0.00    +0.000 C 
ATOM     19  C   UNL     1       6.513  -3.283   4.026  0.00  0.00    +0.000 C 
ATOM     20  C   UNL     1       6.898  -4.208   2.870  0.00  0.00    +0.000 C 
ATOM     21  C   UNL     1       6.705  -3.473   1.543  0.00  0.00    +0.005 C 
ENDBRANCH   7  16
TORSDOF 2
