REMARK  Name = ZINC44449511
REMARK  4 active torsions:
REMARK  status: ('A' for Active; 'I' for Inactive)
REMARK    1  A    between atoms: C_3  and  C_10
REMARK    2  A    between atoms: C_5  and  N_7
REMARK    3  A    between atoms: N_12  and  C_13
REMARK    4  A    between atoms: C_19  and  N_21
REMARK                            x       y       z     vdW  Elec       q    Type
REMARK                         _______ _______ _______ _____ _____    ______ ____
ROOT
ATOM      1  C   UNL     1       1.444   4.387  -0.253  0.00  0.00    +0.244 C 
ATOM      2  O   UNL     1       1.721   3.213  -0.402  0.00  0.00    -0.270 OA
ATOM      3  N   UNL     1       2.409   5.273   0.063  0.00  0.00    -0.307 N 
ATOM      4  H   UNL     1       2.187   6.210   0.183  0.00  0.00    +0.149 HD
ENDROOT
BRANCH   1   7
ATOM      5  C   UNL     1      -1.581   6.609  -0.401  0.00  0.00    +0.003 A 
ATOM      6  C   UNL     1      -0.276   6.190  -0.246  0.00  0.00    +0.013 A 
ATOM      7  C   UNL     1       0.047   4.843  -0.417  0.00  0.00    +0.039 A 
ATOM      8  C   UNL     1      -0.955   3.928  -0.745  0.00  0.00    +0.045 A 
ATOM      9  C   UNL     1      -2.256   4.360  -0.897  0.00  0.00    +0.127 A 
ATOM     10  C   UNL     1      -2.569   5.697  -0.726  0.00  0.00    +0.033 A 
BRANCH   9  11
ATOM     11  N   UNL     1      -3.320   3.391  -1.244  0.00  0.00    +0.056 N 
ATOM     12  O   UNL     1      -3.048   2.223  -1.394  0.00  0.00    -0.126 OA
ATOM     13  O   UNL     1      -4.461   3.768  -1.378  0.00  0.00    -0.126 OA
ENDBRANCH   9  11
ENDBRANCH   1   7
BRANCH   3  14
ATOM     14  C   UNL     1       3.793   4.821   0.226  0.00  0.00    +0.094 C 
ATOM     15  C   UNL     1       4.246   5.074   1.666  0.00  0.00    +0.024 C 
ATOM     16  C   UNL     1       4.158   6.570   1.973  0.00  0.00    +0.002 C 
ATOM     17  C   UNL     1       5.063   7.342   1.010  0.00  0.00    +0.002 C 
ATOM     18  C   UNL     1       4.610   7.089  -0.429  0.00  0.00    +0.025 C 
ATOM     19  C   UNL     1       4.698   5.593  -0.736  0.00  0.00    +0.105 C 
BRANCH  19  20
ATOM     20  N   UNL     1       4.264   5.351  -2.114  0.00  0.00    -0.228 N 
ATOM     21  C   UNL     1       5.061   4.656  -2.909  0.00  0.00    +0.233 C 
ATOM     22  O   UNL     1       6.128   4.218  -2.534  0.00  0.00    -0.274 OA
ATOM     23  C   UNL     1       4.546   4.443  -4.325  0.00  0.00    +0.175 C 
ATOM     24  S   UNL     1       2.939   5.335  -4.212  0.00  0.00    -0.058 S 
ATOM     25  C   UNL     1       3.074   5.843  -2.504  0.00  0.00    +0.281 C 
ATOM     26  O   UNL     1       2.277   6.485  -1.847  0.00  0.00    -0.262 OA
ENDBRANCH  19  20
ENDBRANCH   3  14
TORSDOF 4
