REMARK  Name = ZINC40139606
REMARK  5 active torsions:
REMARK  status: ('A' for Active; 'I' for Inactive)
REMARK    1  A    between atoms: C_5  and  N_7
REMARK    2  A    between atoms: C_8  and  C_10
REMARK    3  A    between atoms: C_10  and  C_24
REMARK    4  A    between atoms: C_11  and  C_12
REMARK    5  A    between atoms: N_15  and  C_17
REMARK                            x       y       z     vdW  Elec       q    Type
REMARK                         _______ _______ _______ _____ _____    ______ ____
ROOT
ATOM      1  C   UNL     1       0.118  -4.237   0.196  0.00  0.00    +0.114 C 
ATOM      2  C   UNL     1      -1.060  -4.948   0.301  0.00  0.00    +0.035 C 
ENDROOT
BRANCH   2   3
ATOM      3  C   UNL     1      -1.025  -6.395   0.513  0.00  0.00    +0.014 A 
ATOM      4  C   UNL     1      -2.139  -7.241   0.738  0.00  0.00    +0.142 A 
ATOM      5  N   UNL     1      -1.699  -8.460   0.879  0.00  0.00    -0.174 NA
ATOM      6  N   UNL     1      -0.305  -8.460   0.755  0.00  0.00    -0.239 N 
ATOM      7  C   UNL     1       0.104  -7.200   0.525  0.00  0.00    +0.122 A 
BRANCH   6   8
ATOM      8  C   UNL     1       0.524  -9.586   0.848  0.00  0.00    +0.065 A 
ATOM      9  C   UNL     1       1.899  -9.450   0.711  0.00  0.00    +0.029 A 
ATOM     10  C   UNL     1       2.714 -10.561   0.803  0.00  0.00    +0.022 A 
ATOM     11  C   UNL     1       2.162 -11.809   1.032  0.00  0.00    +0.041 A 
ATOM     12  C   UNL     1       0.791 -11.947   1.168  0.00  0.00    +0.022 A 
ATOM     13  C   UNL     1      -0.028 -10.839   1.082  0.00  0.00    +0.029 A 
ATOM     14 CL   UNL     1       3.189 -13.204   1.147  0.00  0.00    -0.084 Cl
ENDBRANCH   6   8
ENDBRANCH   2   3
BRANCH   1  16
ATOM     15  N   UNL     1       1.237  -2.077  -0.005  0.00  0.00    -0.280 N 
ATOM     16  C   UNL     1       0.086  -2.771   0.098  0.00  0.00    +0.259 C 
ATOM     17  O   UNL     1      -0.980  -2.184   0.110  0.00  0.00    -0.269 OA
ATOM     18  H   UNL     1       2.080  -2.548  -0.096  0.00  0.00    +0.155 HD
BRANCH  15  23
ATOM     19  C   UNL     1       0.149   1.371   0.664  0.00  0.00    +0.002 A 
ATOM     20  C   UNL     1       1.171   2.088   0.069  0.00  0.00    +0.002 A 
ATOM     21  C   UNL     1       2.215   1.426  -0.551  0.00  0.00    +0.022 A 
ATOM     22  C   UNL     1       2.240   0.045  -0.577  0.00  0.00    +0.062 A 
ATOM     23  C   UNL     1       1.215  -0.679   0.020  0.00  0.00    +0.052 A 
ATOM     24  C   UNL     1       0.168  -0.010   0.642  0.00  0.00    +0.025 A 
ATOM     25 CL   UNL     1       3.550  -0.786  -1.356  0.00  0.00    -0.082 Cl
ENDBRANCH  15  23
ENDBRANCH   1  16
BRANCH   1  26
ATOM     26  C   UNL     1       1.372  -4.929   0.183  0.00  0.00    +0.104 C 
ATOM     27  N   UNL     1       2.367  -5.477   0.172  0.00  0.00    -0.191 NA
ENDBRANCH   1  26
TORSDOF 5
