REMARK  Name = ZINC49564203
REMARK  7 active torsions:
REMARK  status: ('A' for Active; 'I' for Inactive)
REMARK    1  A    between atoms: C_1  and  C_2
REMARK    2  A    between atoms: C_2  and  C_3
REMARK    3  A    between atoms: C_2  and  O_4
REMARK    4  A    between atoms: O_4  and  C_5
REMARK    5  A    between atoms: C_6  and  N_23
REMARK    6  A    between atoms: C_9  and  N_11
REMARK    7  A    between atoms: N_11  and  C_12
REMARK                            x       y       z     vdW  Elec       q    Type
REMARK                         _______ _______ _______ _____ _____    ______ ____
ROOT
ATOM      1  C   UNL     1      -0.050  -0.699   2.274  0.00  0.00    +0.238 A 
ATOM      2  C   UNL     1       0.568  -1.156   3.436  0.00  0.00    +0.087 A 
ATOM      3  C   UNL     1      -0.204  -1.379   4.571  0.00  0.00    +0.031 A 
ATOM      4  C   UNL     1      -1.567  -1.137   4.501  0.00  0.00    +0.045 A 
ATOM      5  C   UNL     1      -2.116  -0.682   3.310  0.00  0.00    +0.123 A 
ATOM      6  N   UNL     1      -1.353  -0.474   2.247  0.00  0.00    -0.197 NA
ENDROOT
BRANCH   2   7
ATOM      7  N   UNL     1       1.951  -1.388   3.461  0.00  0.00    -0.354 N 
ATOM      8  H   UNL     1       2.484  -1.231   2.666  0.00  0.00    +0.142 HD
ATOM      9  H   UNL     1       2.375  -1.706   4.274  0.00  0.00    +0.142 HD
ENDBRANCH   2   7
BRANCH   5  10
ATOM     10  N   UNL     1      -3.486  -0.437   3.233  0.00  0.00    -0.328 N 
ATOM     11  H   UNL     1      -3.876  -0.120   2.403  0.00  0.00    +0.148 HD
BRANCH  10  12
ATOM     12  C   UNL     1      -4.337  -0.659   4.404  0.00  0.00    +0.056 C 
ATOM     13  C   UNL     1      -4.426   0.623   5.277  0.00  0.00    +0.002 C 
ATOM     14  C   UNL     1      -5.901   0.690   5.742  0.00  0.00    -0.077 C 
ATOM     15  N   UNL     1      -6.535  -0.529   5.238  0.00  0.00    +0.383 N 
ATOM     16  C   UNL     1      -5.803  -0.864   3.987  0.00  0.00    -0.048 C 
ATOM     17  C   UNL     1      -6.141  -2.306   3.633  0.00  0.00    -0.014 C 
ATOM     18  C   UNL     1      -7.649  -2.368   3.341  0.00  0.00    -0.003 C 
ATOM     19  C   UNL     1      -8.448  -1.828   4.526  0.00  0.00    -0.019 C 
ATOM     20  C   UNL     1      -7.953  -0.427   4.925  0.00  0.00    -0.078 C 
ATOM     21  H   UNL     1      -6.394  -1.276   5.901  0.00  0.00    -0.081 HD
ENDBRANCH  10  12
ENDBRANCH   5  10
BRANCH   1  22
ATOM     22  O   UNL     1       0.693  -0.477   1.160  0.00  0.00    -0.472 OA
BRANCH  22  24
ATOM     23  C   UNL     1      -0.019   1.526   0.010  0.00  0.00    +0.051 C 
ATOM     24  C   UNL     1       0.002  -0.004   0.002  0.00  0.00    +0.169 C 
ATOM     25  C   UNL     1       0.718  -0.497  -1.257  0.00  0.00    +0.051 C 
ENDBRANCH  22  24
ENDBRANCH   1  22
TORSDOF 5
