REMARK  Name = ZINC00519524
REMARK  9 active torsions:
REMARK  status: ('A' for Active; 'I' for Inactive)
REMARK    1  A    between atoms: C_1  and  C_2
REMARK    2  A    between atoms: C_5  and  C_27
REMARK    3  A    between atoms: C_8  and  C_26
REMARK    4  A    between atoms: C_10  and  C_24
REMARK    5  A    between atoms: C_13  and  C_15
REMARK    6  A    between atoms: C_18  and  O_23
REMARK    7  A    between atoms: C_19  and  O_21
REMARK    8  A    between atoms: O_21  and  C_22
REMARK    9  A    between atoms: C_24  and  O_25
REMARK                            x       y       z     vdW  Elec       q    Type
REMARK                         _______ _______ _______ _____ _____    ______ ____
ROOT
ATOM      1  C   UNL     1       1.223   0.583  -0.175  0.00  0.00    +0.012 C 
ATOM      2  C   UNL     1      -0.291   0.373  -0.252  0.00  0.00    +0.019 C 
ATOM      3  C   UNL     1      -0.901   0.710   1.074  0.00  0.00    -0.024 C 
ATOM      4  C   UNL     1      -1.636   1.750   1.305  0.00  0.00    -0.070 C 
ATOM      5  C   UNL     1      -1.998   2.755   0.242  0.00  0.00    +0.051 C 
ATOM      6  C   UNL     1      -0.933   2.711  -0.864  0.00  0.00    +0.007 C 
ATOM      7  C   UNL     1      -0.861   1.249  -1.362  0.00  0.00    +0.026 C 
ATOM      8  C   UNL     1      -2.230   0.759  -1.812  0.00  0.00    +0.170 C 
ATOM      9  O   UNL     1      -3.207   0.958  -0.792  0.00  0.00    -0.371 OA
ATOM     10  C   UNL     1      -3.342   2.318  -0.369  0.00  0.00    +0.156 C 
ATOM     11  C   UNL     1      -1.346   3.626  -2.018  0.00  0.00    +0.009 C 
ATOM     12  C   UNL     1      -2.157   1.964   2.703  0.00  0.00    +0.039 C 
ENDROOT
BRANCH  10  13
ATOM     13  C   UNL     1      -4.432   2.423   0.666  0.00  0.00    -0.015 A 
ATOM     14  C   UNL     1      -4.849   1.294   1.345  0.00  0.00    +0.010 A 
ATOM     15  C   UNL     1      -5.844   1.386   2.300  0.00  0.00    +0.049 A 
ATOM     16  C   UNL     1      -6.435   2.610   2.570  0.00  0.00    +0.158 A 
ATOM     17  C   UNL     1      -6.019   3.746   1.881  0.00  0.00    +0.162 A 
ATOM     18  C   UNL     1      -5.017   3.648   0.930  0.00  0.00    +0.055 A 
BRANCH  17  19
ATOM     19  O   UNL     1      -6.596   4.950   2.142  0.00  0.00    -0.491 OA
ATOM     20  C   UNL     1      -6.119   6.072   1.398  0.00  0.00    +0.277 C 
ENDBRANCH  17  19
BRANCH  16  21
ATOM     21  O   UNL     1      -7.419   2.701   3.504  0.00  0.00    -0.503 OA
ATOM     22  H   UNL     1      -8.309   2.572   3.151  0.00  0.00    +0.292 HD
ENDBRANCH  16  21
ENDBRANCH  10  13
BRANCH   7  23
ATOM     23  C   UNL     1       0.082   1.192  -2.566  0.00  0.00    +0.165 C 
BRANCH  23  24
ATOM     24  O   UNL     1       0.191  -0.159  -3.021  0.00  0.00    -0.394 OA
ATOM     25  H   UNL     1       0.774  -0.270  -3.784  0.00  0.00    +0.209 HD
ENDBRANCH  23  24
ENDBRANCH   7  23
TORSDOF 5
