REMARK  Name = ZINC48263545
REMARK  6 active torsions:
REMARK  status: ('A' for Active; 'I' for Inactive)
REMARK    1  A    between atoms: N_9  and  C_12
REMARK    2  A    between atoms: C_12  and  C_13
REMARK    3  A    between atoms: C_13  and  C_14
REMARK    4  A    between atoms: C_14  and  C_15
REMARK    5  A    between atoms: N_17  and  C_18
REMARK    6  A    between atoms: C_18  and  C_19
REMARK                            x       y       z     vdW  Elec       q    Type
REMARK                         _______ _______ _______ _____ _____    ______ ____
ROOT
ATOM      1  C   UNL     1       3.220  -6.652  -2.929  0.00  0.00    +0.213 C 
ATOM      2  O   UNL     1       2.953  -5.872  -3.818  0.00  0.00    -0.276 OA
ATOM      3  N   UNL     1       3.294  -7.972  -3.190  0.00  0.00    -0.311 N 
ATOM      4  H   UNL     1       3.508  -8.596  -2.478  0.00  0.00    +0.149 HD
ENDROOT
BRANCH   1   5
ATOM      5  C   UNL     1       3.468  -6.145  -1.532  0.00  0.00    +0.097 C 
BRANCH   5   6
ATOM      6  C   UNL     1       3.323  -4.622  -1.508  0.00  0.00    +0.031 C 
BRANCH   6   7
ATOM      7  C   UNL     1       3.575  -4.107  -0.090  0.00  0.00    +0.127 C 
BRANCH   7  16
ATOM      8  C   UNL     1       0.930   1.421   0.444  0.00  0.00    +0.001 A 
ATOM      9  C   UNL     1       2.089   2.144   0.194  0.00  0.00    +0.002 A 
ATOM     10  C   UNL     1       3.280   1.501  -0.056  0.00  0.00    +0.028 A 
ATOM     11  C   UNL     1       3.327   0.106  -0.059  0.00  0.00    +0.078 A 
ATOM     12  C   UNL     1       2.146  -0.626   0.197  0.00  0.00    +0.065 A 
ATOM     13  C   UNL     1       0.950   0.043   0.447  0.00  0.00    +0.015 A 
ATOM     14  C   UNL     1       2.228  -2.094   0.187  0.00  0.00    +0.262 A 
ATOM     15  O   UNL     1       1.247  -2.784   0.398  0.00  0.00    -0.267 OA
ATOM     16  N   UNL     1       3.436  -2.649  -0.068  0.00  0.00    -0.299 N 
ATOM     17  C   UNL     1       4.521  -1.866  -0.302  0.00  0.00    +0.202 A 
ATOM     18  N   UNL     1       4.479  -0.568  -0.300  0.00  0.00    -0.237 NA
ENDBRANCH   7  16
ENDBRANCH   6   7
ENDBRANCH   5   6
ENDBRANCH   1   5
BRANCH   3  19
ATOM     19  C   UNL     1       3.053  -8.465  -4.548  0.00  0.00    +0.141 C 
BRANCH  19  20
ATOM     20  C   UNL     1       3.196  -9.965  -4.571  0.00  0.00    -0.014 A 
ATOM     21  C   UNL     1       4.431 -10.549  -4.825  0.00  0.00    +0.010 A 
ATOM     22  C   UNL     1       4.519 -11.929  -4.837  0.00  0.00    +0.042 A 
ATOM     23  C   UNL     1       3.374 -12.682  -4.595  0.00  0.00    +0.099 A 
ATOM     24  N   UNL     1       2.215 -12.088  -4.357  0.00  0.00    -0.349 N 
ATOM     25  C   UNL     1       2.103 -10.774  -4.334  0.00  0.00    +0.089 A 
ATOM     26  N   UNL     1       3.448 -14.070  -4.605  0.00  0.00    -0.317 N 
ATOM     27  C   UNL     1       4.747 -14.694  -4.721  0.00  0.00    +0.106 C 
ATOM     28  C   UNL     1       5.094 -14.898  -6.216  0.00  0.00    +0.019 C 
ATOM     29  C   UNL     1       4.257 -15.962  -6.794  0.00  0.00    +0.002 C 
ATOM     30  C   UNL     1       2.762 -15.657  -6.790  0.00  0.00    +0.002 C 
ATOM     31  C   UNL     1       2.175 -16.048  -5.457  0.00  0.00    +0.019 C 
ATOM     32  C   UNL     1       2.198 -14.846  -4.490  0.00  0.00    +0.106 C 
ATOM     33  H   UNL     1       1.430 -12.633  -4.192  0.00  0.00    +0.167 HD
ENDBRANCH  19  20
ENDBRANCH   3  19
TORSDOF 6
