REMARK  Name = ZINC09871821
REMARK  8 active torsions:
REMARK  status: ('A' for Active; 'I' for Inactive)
REMARK    1  A    between atoms: C_1  and  C_2
REMARK    2  A    between atoms: C_5  and  C_9
REMARK    3  A    between atoms: C_6  and  C_8
REMARK    4  A    between atoms: N_11  and  N_12
REMARK    5  A    between atoms: N_12  and  S_13
REMARK    6  A    between atoms: S_13  and  C_16
REMARK    7  A    between atoms: C_17  and  C_23
REMARK    8  A    between atoms: C_21  and  C_22
REMARK                            x       y       z     vdW  Elec       q    Type
REMARK                         _______ _______ _______ _____ _____    ______ ____
ROOT
ATOM      1  N   UNL     1      -1.155   2.634   1.861  0.00  0.00    -0.108 NA
ATOM      2  H   UNL     1      -0.876   3.209   2.590  0.00  0.00    +0.172 HD
ENDROOT
BRANCH   1   5
ATOM      3  C   UNL     1      -2.614   1.131   2.993  0.00  0.00    +0.259 C 
ATOM      4  O   UNL     1      -1.782   1.008   3.872  0.00  0.00    -0.269 OA
ATOM      5  N   UNL     1      -2.368   1.937   1.942  0.00  0.00    -0.228 N 
ATOM      6  H   UNL     1      -3.031   2.035   1.240  0.00  0.00    +0.171 HD
BRANCH   3  11
ATOM      7  C   UNL     1      -7.595  -1.730   3.324  0.00  0.00    +0.044 C 
ATOM      8  C   UNL     1      -6.291  -0.981   3.238  0.00  0.00    -0.050 A 
ATOM      9  C   UNL     1      -6.093  -0.056   2.227  0.00  0.00    +0.004 A 
ATOM     10  C   UNL     1      -4.902   0.633   2.143  0.00  0.00    +0.013 A 
ATOM     11  C   UNL     1      -3.894   0.397   3.079  0.00  0.00    +0.041 A 
ATOM     12  C   UNL     1      -4.097  -0.541   4.092  0.00  0.00    -0.038 A 
ATOM     13  C   UNL     1      -5.296  -1.220   4.168  0.00  0.00    +0.007 A 
ATOM     14  C   UNL     1      -3.013  -0.807   5.104  0.00  0.00    +0.044 C 
ENDBRANCH   3  11
ENDBRANCH   1   5
BRANCH   1  15
ATOM     15  S   UNL     1      -0.197   2.475   0.519  0.00  0.00    +0.077 S 
ATOM     16  O   UNL     1       0.022   1.082   0.339  0.00  0.00    -0.152 OA
ATOM     17  O   UNL     1       0.871   3.400   0.671  0.00  0.00    -0.152 OA
BRANCH  15  18
ATOM     18  C   UNL     1      -1.143   3.019  -0.864  0.00  0.00    +0.150 A 
ATOM     19  C   UNL     1      -1.197   4.284  -1.343  0.00  0.00    +0.060 A 
ATOM     20  N   UNL     1      -2.029   4.286  -2.405  0.00  0.00    -0.280 N 
ATOM     21  H   UNL     1      -2.266   5.080  -2.965  0.00  0.00    +0.189 HD
ATOM     22  N   UNL     1      -2.502   2.979  -2.585  0.00  0.00    -0.177 NA
ATOM     23  C   UNL     1      -1.965   2.220  -1.664  0.00  0.00    +0.086 A 
ATOM     24  C   UNL     1      -2.197   0.741  -1.493  0.00  0.00    +0.069 C 
ATOM     25  C   UNL     1      -0.460   5.476  -0.789  0.00  0.00    +0.067 C 
ENDBRANCH  15  18
ENDBRANCH   1  15
TORSDOF 4
