REMARK  Name = ZINC65182434
REMARK  9 active torsions:
REMARK  status: ('A' for Active; 'I' for Inactive)
REMARK    1  A    between atoms: C_1  and  C_2
REMARK    2  A    between atoms: C_2  and  C_3
REMARK    3  A    between atoms: C_6  and  C_33
REMARK    4  A    between atoms: C_11  and  C_13
REMARK    5  A    between atoms: C_16  and  C_19
REMARK    6  A    between atoms: C_19  and  C_20
REMARK    7  A    between atoms: C_20  and  N_21
REMARK    8  A    between atoms: N_21  and  C_22
REMARK    9  A    between atoms: C_23  and  C_25
REMARK                            x       y       z     vdW  Elec       q    Type
REMARK                         _______ _______ _______ _____ _____    ______ ____
ROOT
ATOM      1  C   UNL     1      -0.946  -3.122   1.343  0.00  0.00    +0.318 C 
ATOM      2  N   UNL     1      -1.295  -4.534   1.568  0.00  0.00    -0.291 N 
ATOM      3  C   UNL     1      -2.300  -4.552   2.506  0.00  0.00    +0.139 C 
ATOM      4  N   UNL     1      -2.612  -3.366   2.884  0.00  0.00    -0.072 NA
ATOM      5  O   UNL     1      -1.823  -2.394   2.217  0.00  0.00    -0.367 OA
ATOM      6  H   UNL     1      -0.893  -5.305   1.136  0.00  0.00    +0.151 HD
ENDROOT
BRANCH   1  15
ATOM      7  C   UNL     1      -0.767  -1.306  -0.358  0.00  0.00    -0.033 C 
ATOM      8  C   UNL     1      -1.877  -0.638  -0.749  0.00  0.00    -0.000 A 
ATOM      9  C   UNL     1      -2.114   0.759  -1.130  0.00  0.00    +0.013 A 
ATOM     10  C   UNL     1      -3.363   1.140  -1.482  0.00  0.00    -0.050 A 
ATOM     11  C   UNL     1      -4.434   0.236  -1.491  0.00  0.00    +0.005 A 
ATOM     12  C   UNL     1      -4.295  -1.063  -1.153  0.00  0.00    +0.026 A 
ATOM     13  C   UNL     1      -3.025  -1.573  -0.767  0.00  0.00    +0.043 A 
ATOM     14  N   UNL     1      -2.640  -2.772  -0.401  0.00  0.00    -0.373 N 
ATOM     15  C   UNL     1      -1.201  -2.734  -0.115  0.00  0.00    +0.169 C 
ATOM     16  C   UNL     1      -3.610   2.574  -1.874  0.00  0.00    +0.044 C 
ATOM     17  H   UNL     1      -3.210  -3.554  -0.335  0.00  0.00    +0.160 HD
BRANCH   7  19
ATOM     18  C   UNL     1       0.609   0.748  -0.550  0.00  0.00    +0.008 C 
ATOM     19  C   UNL     1       0.621  -0.742  -0.201  0.00  0.00    +0.030 C 
ENDBRANCH   7  19
ENDBRANCH   1  15
BRANCH   3  20
ATOM     20  C   UNL     1      -2.952  -5.806   3.027  0.00  0.00    +0.094 C 
BRANCH  20  21
ATOM     21  C   UNL     1      -4.023  -5.436   4.055  0.00  0.00    +0.115 C 
BRANCH  21  22
ATOM     22  N   UNL     1      -4.657  -6.656   4.561  0.00  0.00    -0.300 N 
ATOM     23  C   UNL     1      -4.109  -7.332   5.739  0.00  0.00    +0.132 C 
ATOM     24  C   UNL     1      -5.745  -7.155   3.942  0.00  0.00    +0.248 C 
ATOM     25  O   UNL     1      -6.144  -6.650   2.911  0.00  0.00    -0.270 OA
BRANCH  24  26
ATOM     26  C   UNL     1      -6.454  -8.316   4.518  0.00  0.00    +0.055 A 
ATOM     27  C   UNL     1      -6.718  -8.368   5.888  0.00  0.00    +0.017 A 
ATOM     28  C   UNL     1      -7.379  -9.453   6.420  0.00  0.00    +0.039 A 
ATOM     29  C   UNL     1      -7.783 -10.494   5.597  0.00  0.00    +0.125 A 
ATOM     30  C   UNL     1      -7.525 -10.450   4.237  0.00  0.00    +0.059 A 
ATOM     31  C   UNL     1      -6.868  -9.365   3.692  0.00  0.00    +0.056 A 
ATOM     32 CL   UNL     1      -6.550  -9.307   1.986  0.00  0.00    -0.083 Cl
ATOM     33  F   UNL     1      -8.431 -11.556   6.125  0.00  0.00    -0.205 F 
ENDBRANCH  24  26
ENDBRANCH  21  22
ENDBRANCH  20  21
ENDBRANCH   3  20
TORSDOF 6
