REMARK  Name = ZINC18332148
REMARK  8 active torsions:
REMARK  status: ('A' for Active; 'I' for Inactive)
REMARK    1  A    between atoms: C_1  and  C_2
REMARK    2  A    between atoms: C_3  and  C_31
REMARK    3  A    between atoms: N_9  and  C_26
REMARK    4  A    between atoms: C_10  and  S_12
REMARK    5  A    between atoms: S_12  and  C_13
REMARK    6  A    between atoms: C_13  and  C_14
REMARK    7  A    between atoms: N_19  and  S_22
REMARK    8  A    between atoms: S_22  and  C_25
REMARK                            x       y       z     vdW  Elec       q    Type
REMARK                         _______ _______ _______ _____ _____    ______ ____
ROOT
ATOM      1  C   UNL     1      -1.404  -7.546  -0.573  0.00  0.00    +0.045 C 
ATOM      2  C   UNL     1      -0.420  -6.423  -0.367  0.00  0.00    -0.026 A 
ATOM      3  C   UNL     1       0.897  -6.671  -0.346  0.00  0.00    -0.008 A 
ATOM      4  S   UNL     1       1.617  -5.062  -0.081  0.00  0.00    -0.073 S 
ATOM      5  C   UNL     1       0.127  -4.102  -0.007  0.00  0.00    +0.117 A 
ATOM      6  C   UNL     1      -0.889  -5.059  -0.190  0.00  0.00    +0.075 A 
ATOM      7  C   UNL     1      -2.228  -4.556  -0.175  0.00  0.00    +0.263 A 
ATOM      8  O   UNL     1      -3.173  -5.311  -0.326  0.00  0.00    -0.267 OA
ATOM      9  N   UNL     1      -2.431  -3.238   0.008  0.00  0.00    -0.284 N 
ATOM     10  C   UNL     1      -1.385  -2.378   0.179  0.00  0.00    +0.173 A 
ATOM     11  N   UNL     1      -0.142  -2.813   0.164  0.00  0.00    -0.216 NA
ATOM     12  C   UNL     1       1.601  -7.994  -0.507  0.00  0.00    +0.052 C 
ENDROOT
BRANCH   9  13
ATOM     13  C   UNL     1      -3.800  -2.718   0.024  0.00  0.00    +0.093 C 
ATOM     14  C   UNL     1      -4.598  -3.366   1.174  0.00  0.00    +0.025 C 
ATOM     15  C   UNL     1      -6.021  -3.556   0.588  0.00  0.00    +0.002 C 
ATOM     16  C   UNL     1      -5.735  -3.959  -0.880  0.00  0.00    +0.002 C 
ATOM     17  C   UNL     1      -4.523  -3.094  -1.281  0.00  0.00    +0.025 C 
ENDBRANCH   9  13
BRANCH  10  18
ATOM     18  S   UNL     1      -1.703  -0.661   0.414  0.00  0.00    -0.078 S 
BRANCH  18  19
ATOM     19  C   UNL     1      -0.007  -0.047   0.578  0.00  0.00    +0.173 C 
BRANCH  19  20
ATOM     20  C   UNL     1      -0.031   1.444   0.794  0.00  0.00    +0.226 C 
ATOM     21  O   UNL     1      -1.090   2.035   0.828  0.00  0.00    -0.275 OA
ATOM     22  N   UNL     1       1.124   2.122   0.943  0.00  0.00    -0.298 N 
ATOM     23  C   UNL     1       2.414   1.419   0.903  0.00  0.00    +0.125 C 
ATOM     24  C   UNL     1       3.292   2.076  -0.176  0.00  0.00    +0.128 C 
ATOM     25  N   UNL     1       3.284   3.530   0.035  0.00  0.00    -0.178 NA
ATOM     26  C   UNL     1       1.993   4.232   0.080  0.00  0.00    +0.128 C 
ATOM     27  C   UNL     1       1.116   3.576   1.154  0.00  0.00    +0.125 C 
BRANCH  25  28
ATOM     28  S   UNL     1       4.703   4.363   0.218  0.00  0.00    +0.029 S 
ATOM     29  O   UNL     1       5.674   3.580  -0.462  0.00  0.00    -0.158 OA
ATOM     30  O   UNL     1       4.407   5.684  -0.213  0.00  0.00    -0.158 OA
ATOM     31  C   UNL     1       5.027   4.346   2.003  0.00  0.00    +0.215 C 
ENDBRANCH  25  28
ENDBRANCH  19  20
ENDBRANCH  18  19
ENDBRANCH  10  18
TORSDOF 5
