REMARK  Name = ZINC39981154
REMARK  7 active torsions:
REMARK  status: ('A' for Active; 'I' for Inactive)
REMARK    1  A    between atoms: C_1  and  C_2
REMARK    2  A    between atoms: C_2  and  N_3
REMARK    3  A    between atoms: N_3  and  C_4
REMARK    4  A    between atoms: C_4  and  C_5
REMARK    5  A    between atoms: C_6  and  C_8
REMARK    6  A    between atoms: C_8  and  S_9
REMARK    7  A    between atoms: S_9  and  C_10
REMARK                            x       y       z     vdW  Elec       q    Type
REMARK                         _______ _______ _______ _____ _____    ______ ____
ROOT
ATOM      1  C   UNL     1      -3.879  -0.549  -3.866  0.00  0.00    +0.208 C 
ATOM      2  N   UNL     1      -4.341  -0.123  -2.715  0.00  0.00    -0.227 NA
ATOM      3  C   UNL     1      -5.784   0.061  -2.588  0.00  0.00    +0.252 C 
ATOM      4  C   UNL     1      -6.299   0.386  -3.983  0.00  0.00    +0.117 C 
ATOM      5  C   UNL     1      -7.085   1.488  -3.836  0.00  0.00    +0.026 A 
ATOM      6  C   UNL     1      -7.917   2.191  -4.741  0.00  0.00    +0.027 A 
ATOM      7  C   UNL     1      -8.571   3.287  -4.268  0.00  0.00    +0.019 A 
ATOM      8  C   UNL     1      -8.471   3.757  -2.954  0.00  0.00    +0.017 A 
ATOM      9  C   UNL     1      -7.709   3.158  -2.000  0.00  0.00    +0.027 A 
ATOM     10  C   UNL     1      -6.968   1.956  -2.420  0.00  0.00    +0.046 A 
ATOM     11  N   UNL     1      -6.188   1.174  -1.740  0.00  0.00    -0.358 N 
ATOM     12 BR   UNL     1      -9.686   4.236  -5.465  0.00  0.00    -0.050 Br
ATOM     13  N   UNL     1      -5.855  -0.275  -5.056  0.00  0.00    -0.147 NA
ATOM     14  N   UNL     1      -4.654  -0.755  -4.959  0.00  0.00    -0.122 NA
ATOM     15  H   UNL     1      -5.918   1.308  -0.818  0.00  0.00    +0.162 HD
ENDROOT
BRANCH   1  16
ATOM     16  S   UNL     1      -2.151  -0.866  -4.002  0.00  0.00    -0.075 S 
BRANCH  16  17
ATOM     17  C   UNL     1      -1.502  -0.473  -2.354  0.00  0.00    +0.173 C 
BRANCH  17  19
ATOM     18  N   UNL     1       0.688  -0.476  -1.203  0.00  0.00    -0.301 N 
ATOM     19  C   UNL     1      -0.013  -0.705  -2.332  0.00  0.00    +0.226 C 
ATOM     20  O   UNL     1       0.555  -1.096  -3.330  0.00  0.00    -0.275 OA
BRANCH  18  22
ATOM     21  C   UNL     1      -0.019   1.526   0.010  0.00  0.00    +0.024 C 
ATOM     22  C   UNL     1       0.002  -0.004   0.002  0.00  0.00    +0.104 C 
ENDBRANCH  18  22
BRANCH  18  23
ATOM     23  C   UNL     1       2.135  -0.701  -1.182  0.00  0.00    +0.104 C 
ATOM     24  C   UNL     1       2.421  -2.145  -0.763  0.00  0.00    +0.024 C 
ENDBRANCH  18  23
ENDBRANCH  17  19
ENDBRANCH  16  17
ENDBRANCH   1  16
TORSDOF 5
