REMARK  Name = ZINC66395121
REMARK  8 active torsions:
REMARK  status: ('A' for Active; 'I' for Inactive)
REMARK    1  A    between atoms: C_1  and  C_2
REMARK    2  A    between atoms: C_2  and  N_3
REMARK    3  A    between atoms: N_3  and  C_4
REMARK    4  A    between atoms: N_3  and  C_6
REMARK    5  A    between atoms: C_4  and  C_5
REMARK    6  A    between atoms: C_12  and  C_14
REMARK    7  A    between atoms: C_16  and  C_26
REMARK    8  A    between atoms: N_24  and  C_25
REMARK                            x       y       z     vdW  Elec       q    Type
REMARK                         _______ _______ _______ _____ _____    ______ ____
ROOT
ATOM      1  C   UNL     1       5.098  -4.667  -0.001  0.00  0.00    +0.055 A 
ATOM      2  C   UNL     1       4.573  -5.287  -1.137  0.00  0.00    +0.037 A 
ATOM      3  C   UNL     1       5.351  -5.376  -2.278  0.00  0.00    +0.047 A 
ATOM      4  N   UNL     1       6.575  -4.890  -2.318  0.00  0.00    -0.232 NA
ATOM      5  C   UNL     1       7.128  -4.292  -1.274  0.00  0.00    +0.161 A 
ATOM      6  C   UNL     1       6.402  -4.154  -0.078  0.00  0.00    +0.096 A 
ATOM      7  C   UNL     1       7.280  -3.450   0.872  0.00  0.00    +0.275 A 
ATOM      8  O   UNL     1       7.011  -3.149   2.018  0.00  0.00    -0.266 OA
ATOM      9  N   UNL     1       8.439  -3.202   0.228  0.00  0.00    -0.262 N 
ATOM     10  H   UNL     1       9.207  -2.747   0.609  0.00  0.00    +0.190 HD
ATOM     11  N   UNL     1       8.366  -3.713  -1.071  0.00  0.00    -0.269 N 
ATOM     12  C   UNL     1       9.434  -3.634  -2.071  0.00  0.00    +0.172 C 
ENDROOT
BRANCH   1  19
ATOM     13  C   UNL     1       1.155  -1.909   1.252  0.00  0.00    -0.066 C 
ATOM     14  C   UNL     1       2.070  -2.092   0.039  0.00  0.00    +0.004 C 
ATOM     15  C   UNL     1       2.483  -3.564  -0.066  0.00  0.00    +0.106 C 
ATOM     16  N   UNL     1       3.080  -3.980   1.210  0.00  0.00    -0.298 N 
ATOM     17  C   UNL     1       2.321  -3.764   2.450  0.00  0.00    +0.106 C 
ATOM     18  C   UNL     1       1.911  -2.290   2.526  0.00  0.00    +0.004 C 
ATOM     19  C   UNL     1       4.302  -4.548   1.244  0.00  0.00    +0.248 C 
ATOM     20  O   UNL     1       4.750  -4.964   2.293  0.00  0.00    -0.270 OA
BRANCH  13  21
ATOM     21  N   UNL     1       0.731  -0.505   1.336  0.00  0.00    +0.381 N 
ATOM     22  H   UNL     1       1.542   0.086   1.436  0.00  0.00    -0.081 HD
BRANCH  21  24
ATOM     23  C   UNL     1      -0.330   1.355   0.147  0.00  0.00    -0.017 C 
ATOM     24  C   UNL     1       0.005  -0.138   0.113  0.00  0.00    -0.082 C 
ENDBRANCH  21  24
BRANCH  21  25
ATOM     25  C   UNL     1      -0.149  -0.328   2.499  0.00  0.00    -0.082 C 
ATOM     26  C   UNL     1      -1.324  -1.303   2.402  0.00  0.00    -0.017 C 
ENDBRANCH  21  25
ENDBRANCH  13  21
ENDBRANCH   1  19
BRANCH   3  27
ATOM     27  C   UNL     1       4.785  -6.046  -3.503  0.00  0.00    +0.038 C 
ATOM     28  C   UNL     1       3.545  -6.923  -3.320  0.00  0.00    +0.010 C 
ATOM     29  C   UNL     1       4.905  -7.568  -3.596  0.00  0.00    +0.010 C 
ENDBRANCH   3  27
TORSDOF 5
