REMARK  Name = ZINC33073499
REMARK  7 active torsions:
REMARK  status: ('A' for Active; 'I' for Inactive)
REMARK    1  A    between atoms: C_1  and  C_2
REMARK    2  A    between atoms: C_2  and  C_3
REMARK    3  A    between atoms: C_6  and  C_9
REMARK    4  A    between atoms: C_9  and  N_10
REMARK    5  A    between atoms: C_11  and  C_13
REMARK    6  A    between atoms: C_19  and  C_21
REMARK    7  A    between atoms: C_22  and  C_32
REMARK                            x       y       z     vdW  Elec       q    Type
REMARK                         _______ _______ _______ _____ _____    ______ ____
ROOT
ATOM      1  C   UNL     1      -9.572  -1.520  -1.654  0.00  0.00    +0.078 C 
ATOM      2  C   UNL     1      -9.495  -0.575  -2.855  0.00  0.00    +0.032 C 
ATOM      3  C   UNL     1      -9.599   0.874  -2.367  0.00  0.00    +0.109 C 
ATOM      4  N   UNL     1     -10.821   1.016  -1.564  0.00  0.00    -0.297 N 
ATOM      5  C   UNL     1     -11.038   0.096  -0.439  0.00  0.00    +0.109 C 
ATOM      6  C   UNL     1     -10.918  -1.343  -0.949  0.00  0.00    +0.032 C 
ATOM      7  C   UNL     1     -11.726   1.972  -1.855  0.00  0.00    +0.254 C 
ATOM      8  O   UNL     1     -12.781   2.015  -1.250  0.00  0.00    -0.269 OA
ENDROOT
BRANCH   7   9
ATOM      9  C   UNL     1     -11.438   2.960  -2.899  0.00  0.00    +0.080 A 
ATOM     10  C   UNL     1     -12.297   3.527  -3.794  0.00  0.00    -0.017 A 
ATOM     11  C   UNL     1     -11.822   4.460  -4.719  0.00  0.00    +0.076 A 
ATOM     12  C   UNL     1     -12.560   5.194  -5.771  0.00  0.00    +0.260 A 
ATOM     13  O   UNL     1     -13.757   5.027  -5.928  0.00  0.00    -0.267 OA
ATOM     14  N   UNL     1     -11.875   6.053  -6.551  0.00  0.00    -0.313 N 
ATOM     15  H   UNL     1     -12.344   6.542  -7.245  0.00  0.00    +0.170 HD
ATOM     16  C   UNL     1     -10.544   6.248  -6.386  0.00  0.00    +0.200 A 
ATOM     17  N   UNL     1      -9.863   5.616  -5.468  0.00  0.00    -0.230 NA
ATOM     18  C   UNL     1     -10.440   4.749  -4.647  0.00  0.00    +0.116 A 
ATOM     19  S   UNL     1      -9.879   3.727  -3.308  0.00  0.00    -0.064 S 
ATOM     20  C   UNL     1     -13.755   3.147  -3.786  0.00  0.00    +0.046 C 
ENDBRANCH   7   9
BRANCH   1  22
ATOM     21  N   UNL     1      -8.323  -3.335  -2.779  0.00  0.00    -0.311 N 
ATOM     22  C   UNL     1      -9.436  -2.945  -2.126  0.00  0.00    +0.216 C 
ATOM     23  O   UNL     1     -10.328  -3.740  -1.920  0.00  0.00    -0.276 OA
ATOM     24  H   UNL     1      -7.609  -2.699  -2.944  0.00  0.00    +0.149 HD
BRANCH  21  25
ATOM     25  C   UNL     1      -8.191  -4.720  -3.238  0.00  0.00    +0.139 C 
BRANCH  25  29
ATOM     26  C   UNL     1      -4.433  -5.216  -5.207  0.00  0.00    -0.048 A 
ATOM     27  C   UNL     1      -4.533  -5.433  -3.846  0.00  0.00    +0.004 A 
ATOM     28  C   UNL     1      -5.750  -5.272  -3.208  0.00  0.00    +0.005 A 
ATOM     29  C   UNL     1      -6.865  -4.894  -3.933  0.00  0.00    -0.030 A 
ATOM     30  C   UNL     1      -6.764  -4.677  -5.294  0.00  0.00    +0.005 A 
ATOM     31  C   UNL     1      -5.546  -4.834  -5.931  0.00  0.00    +0.004 A 
BRANCH  26  33
ATOM     32  C   UNL     1      -2.344  -4.066  -5.887  0.00  0.00    +0.009 C 
ATOM     33  C   UNL     1      -3.107  -5.392  -5.902  0.00  0.00    +0.032 C 
ENDBRANCH  26  33
ENDBRANCH  25  29
ENDBRANCH  21  25
ENDBRANCH   1  22
TORSDOF 5
