REMARK  Name = ZINC33298617
REMARK  6 active torsions:
REMARK  status: ('A' for Active; 'I' for Inactive)
REMARK    1  A    between atoms: C_4  and  C_7
REMARK    2  A    between atoms: C_7  and  S_8
REMARK    3  A    between atoms: S_8  and  C_9
REMARK    4  A    between atoms: N_13  and  C_18
REMARK    5  A    between atoms: C_18  and  C_19
REMARK    6  A    between atoms: N_24  and  C_27
REMARK                            x       y       z     vdW  Elec       q    Type
REMARK                         _______ _______ _______ _____ _____    ______ ____
ROOT
ATOM      1  C   UNL     1       2.296   1.506  -0.012  0.00  0.00    +0.083 A 
ATOM      2  C   UNL     1       2.405   0.108  -0.020  0.00  0.00    +0.030 A 
ATOM      3  C   UNL     1       3.517  -0.841  -0.037  0.00  0.00    +0.030 A 
ATOM      4  C   UNL     1       2.980  -2.073  -0.038  0.00  0.00    +0.087 A 
ATOM      5  N   UNL     1       1.612  -1.984  -0.025  0.00  0.00    -0.338 N 
ATOM      6  C   UNL     1       1.231  -0.668  -0.013  0.00  0.00    +0.053 A 
ATOM      7  C   UNL     1       0.002  -0.004   0.002  0.00  0.00    +0.044 A 
ATOM      8  C   UNL     1      -0.016   1.361   0.009  0.00  0.00    +0.085 A 
ATOM      9  N   UNL     1       1.100   2.073   0.003  0.00  0.00    -0.355 N 
ATOM     10  H   UNL     1       1.011   3.170   0.010  0.00  0.00    +0.166 HD
ENDROOT
BRANCH   1  11
ATOM     11  S   UNL     1       3.747   2.505  -0.021  0.00  0.00    -0.103 S 
BRANCH  11  12
ATOM     12  C   UNL     1       2.995   4.152  -0.005  0.00  0.00    +0.111 C 
BRANCH  12  16
ATOM     13  C   UNL     1       6.067   7.120  -0.019  0.00  0.00    +0.000 A 
ATOM     14  C   UNL     1       5.559   6.646  -1.214  0.00  0.00    +0.000 A 
ATOM     15  C   UNL     1       4.565   5.685  -1.209  0.00  0.00    +0.004 A 
ATOM     16  C   UNL     1       4.079   5.199  -0.010  0.00  0.00    -0.037 A 
ATOM     17  C   UNL     1       4.584   5.677   1.185  0.00  0.00    +0.004 A 
ATOM     18  C   UNL     1       5.582   6.633   1.180  0.00  0.00    +0.000 A 
ENDBRANCH  12  16
ENDBRANCH  11  12
ENDBRANCH   1  11
BRANCH   5  19
ATOM     19  C   UNL     1       0.695  -3.126  -0.021  0.00  0.00    +0.217 C 
BRANCH  19  20
ATOM     20  C   UNL     1       0.270  -3.432  -1.434  0.00  0.00    +0.235 C 
ATOM     21  O   UNL     1       0.691  -2.763  -2.353  0.00  0.00    -0.274 OA
ATOM     22  N   UNL     1      -0.579  -4.451  -1.677  0.00  0.00    -0.297 N 
ATOM     23  C   UNL     1      -1.098  -5.279  -0.578  0.00  0.00    +0.126 C 
ATOM     24  C   UNL     1      -2.629  -5.339  -0.700  0.00  0.00    +0.124 C 
ATOM     25  N   UNL     1      -2.990  -5.799  -2.047  0.00  0.00    -0.327 N 
ATOM     26  C   UNL     1      -2.537  -4.850  -3.074  0.00  0.00    +0.124 C 
ATOM     27  C   UNL     1      -1.007  -4.767  -3.048  0.00  0.00    +0.126 C 
BRANCH  25  28
ATOM     28  C   UNL     1      -4.366  -6.027  -2.147  0.00  0.00    +0.030 A 
ATOM     29  C   UNL     1      -5.108  -5.379  -3.126  0.00  0.00    +0.026 A 
ATOM     30  C   UNL     1      -6.467  -5.609  -3.226  0.00  0.00    +0.040 A 
ATOM     31  C   UNL     1      -7.090  -6.477  -2.345  0.00  0.00    +0.124 A 
ATOM     32  C   UNL     1      -6.352  -7.120  -1.365  0.00  0.00    +0.040 A 
ATOM     33  C   UNL     1      -4.992  -6.897  -1.265  0.00  0.00    +0.026 A 
ATOM     34  F   UNL     1      -8.419  -6.697  -2.441  0.00  0.00    -0.205 F 
ENDBRANCH  25  28
ENDBRANCH  19  20
ENDBRANCH   5  19
TORSDOF 6
