REMARK  Name = ZINC11502608
REMARK  7 active torsions:
REMARK  status: ('A' for Active; 'I' for Inactive)
REMARK    1  A    between atoms: C_1  and  C_2
REMARK    2  A    between atoms: C_9  and  C_11
REMARK    3  A    between atoms: C_11  and  C_13
REMARK    4  A    between atoms: C_11  and  N_24
REMARK    5  A    between atoms: C_13  and  C_14
REMARK    6  A    between atoms: N_24  and  S_25
REMARK    7  A    between atoms: S_25  and  C_28
REMARK                            x       y       z     vdW  Elec       q    Type
REMARK                         _______ _______ _______ _____ _____    ______ ____
ROOT
ATOM      1  C   UNL     1       2.345  -3.559   1.412  0.00  0.00    +0.167 C 
ENDROOT
BRANCH   1   9
ATOM      2  C   UNL     1       2.984  -9.681   1.494  0.00  0.00    +0.039 C 
ATOM      3  C   UNL     1       2.341  -8.294   1.559  0.00  0.00    +0.132 C 
ATOM      4  C   UNL     1       3.313  -7.252   0.996  0.00  0.00    +0.139 C 
ATOM      5  N   UNL     1       2.607  -5.964   0.896  0.00  0.00    -0.296 N 
ATOM      6  C   UNL     1       1.298  -5.943   0.225  0.00  0.00    +0.136 C 
ATOM      7  C   UNL     1       0.426  -7.048   0.821  0.00  0.00    +0.179 C 
ATOM      8  O   UNL     1       1.140  -8.286   0.783  0.00  0.00    -0.374 OA
ATOM      9  C   UNL     1       3.142  -4.839   1.410  0.00  0.00    +0.235 C 
ATOM     10  O   UNL     1       4.263  -4.855   1.871  0.00  0.00    -0.274 OA
ENDBRANCH   1   9
BRANCH   1  11
ATOM     11  N   UNL     1       3.053  -2.544   2.196  0.00  0.00    -0.178 NA
ATOM     12  H   UNL     1       3.744  -2.005   1.780  0.00  0.00    +0.149 HD
BRANCH  11  13
ATOM     13  S   UNL     1       2.674  -2.318   3.792  0.00  0.00    +0.059 S 
ATOM     14  O   UNL     1       3.539  -1.300   4.275  0.00  0.00    -0.153 OA
ATOM     15  O   UNL     1       1.259  -2.212   3.862  0.00  0.00    -0.153 OA
BRANCH  13  16
ATOM     16  C   UNL     1       3.111  -3.797   4.646  0.00  0.00    +0.105 A 
ATOM     17  C   UNL     1       2.185  -4.813   4.787  0.00  0.00    +0.030 A 
ATOM     18  C   UNL     1       2.529  -5.975   5.452  0.00  0.00    +0.022 A 
ATOM     19  C   UNL     1       3.798  -6.116   5.985  0.00  0.00    +0.041 A 
ATOM     20  C   UNL     1       4.723  -5.097   5.848  0.00  0.00    +0.022 A 
ATOM     21  C   UNL     1       4.379  -3.937   5.178  0.00  0.00    +0.030 A 
ATOM     22 CL   UNL     1       4.229  -7.573   6.825  0.00  0.00    -0.084 Cl
ENDBRANCH  13  16
ENDBRANCH  11  13
ENDBRANCH   1  11
BRANCH   1  23
ATOM     23  C   UNL     1       2.172  -3.064  -0.026  0.00  0.00    +0.067 C 
BRANCH  23  24
ATOM     24  C   UNL     1       1.324  -1.819  -0.029  0.00  0.00    -0.020 A 
ATOM     25  C   UNL     1      -0.003  -1.757  -0.227  0.00  0.00    +0.087 A 
ATOM     26  N   UNL     1      -0.424  -0.457  -0.160  0.00  0.00    -0.360 N 
ATOM     27  H   UNL     1      -1.342  -0.162  -0.271  0.00  0.00    +0.165 HD
ATOM     28  C   UNL     1       0.648   0.371   0.089  0.00  0.00    +0.047 A 
ATOM     29  C   UNL     1       1.790  -0.446   0.181  0.00  0.00    +0.003 A 
ATOM     30  C   UNL     1       3.038   0.128   0.431  0.00  0.00    +0.010 A 
ATOM     31  C   UNL     1       3.144   1.481   0.584  0.00  0.00    +0.001 A 
ATOM     32  C   UNL     1       2.021   2.291   0.493  0.00  0.00    +0.002 A 
ATOM     33  C   UNL     1       0.779   1.746   0.248  0.00  0.00    +0.026 A 
ENDBRANCH  23  24
ENDBRANCH   1  23
TORSDOF 6
