REMARK  Name = ZINC14550704
REMARK  2 active torsions:
REMARK  status: ('A' for Active; 'I' for Inactive)
REMARK    1  A    between atoms: C_3  and  N_24
REMARK    2  A    between atoms: C_6  and  C_7
REMARK                            x       y       z     vdW  Elec       q    Type
REMARK                         _______ _______ _______ _____ _____    ______ ____
ROOT
ATOM      1  C   UNL     1       1.335   4.562  -0.240  0.00  0.00    +0.105 C 
ATOM      2  C   UNL     1       0.681   3.252  -0.640  0.00  0.00    +0.029 C 
ATOM      3  C   UNL     1       1.228   1.970   0.001  0.00  0.00    +0.033 C 
ATOM      4  C   UNL     1      -0.013   1.076   0.008  0.00  0.00    -0.030 C 
ATOM      5  C   UNL     1      -1.110   1.823   0.017  0.00  0.00    -0.023 C 
ATOM      6  C   UNL     1      -0.711   3.253   0.060  0.00  0.00    +0.049 C 
ATOM      7  C   UNL     1      -1.540   4.297  -0.581  0.00  0.00    -0.018 A 
ATOM      8  C   UNL     1      -2.900   4.159  -0.752  0.00  0.00    +0.026 A 
ATOM      9  C   UNL     1      -3.635   5.169  -1.347  0.00  0.00    +0.041 A 
ATOM     10  C   UNL     1      -3.003   6.324  -1.773  0.00  0.00    +0.022 A 
ATOM     11  C   UNL     1      -1.641   6.469  -1.609  0.00  0.00    +0.024 A 
ATOM     12  C   UNL     1      -0.893   5.458  -1.018  0.00  0.00    +0.031 A 
ATOM     13  N   UNL     1       0.492   5.620  -0.881  0.00  0.00    -0.336 N 
ATOM     14 CL   UNL     1      -5.348   4.988  -1.559  0.00  0.00    -0.084 Cl
ATOM     15  H   UNL     1       0.911   6.434  -1.202  0.00  0.00    +0.147 HD
ENDROOT
BRANCH   1  21
ATOM     16  C   UNL     1       2.965   4.965  -2.096  0.00  0.00    +0.008 A 
ATOM     17  C   UNL     1       4.256   5.029  -2.586  0.00  0.00    +0.033 A 
ATOM     18  C   UNL     1       5.325   4.744  -1.756  0.00  0.00    +0.126 A 
ATOM     19  C   UNL     1       5.102   4.401  -0.436  0.00  0.00    +0.033 A 
ATOM     20  C   UNL     1       3.811   4.342   0.055  0.00  0.00    +0.008 A 
ATOM     21  C   UNL     1       2.743   4.627  -0.775  0.00  0.00    -0.027 A 
BRANCH  18  22
ATOM     22  N   UNL     1       6.707   4.806  -2.282  0.00  0.00    +0.056 N 
ATOM     23  O   UNL     1       7.648   4.555  -1.551  0.00  0.00    -0.126 OA
ATOM     24  O   UNL     1       6.903   5.109  -3.445  0.00  0.00    -0.126 OA
ENDBRANCH  18  22
ENDBRANCH   1  21
TORSDOF 2
