REMARK  Name = ZINC39484972
REMARK  5 active torsions:
REMARK  status: ('A' for Active; 'I' for Inactive)
REMARK    1  A    between atoms: C_1  and  C_2
REMARK    2  A    between atoms: C_2  and  C_3
REMARK    3  A    between atoms: C_11  and  C_13
REMARK    4  A    between atoms: C_15  and  C_23
REMARK    5  A    between atoms: C_21  and  C_22
REMARK                            x       y       z     vdW  Elec       q    Type
REMARK                         _______ _______ _______ _____ _____    ______ ____
ROOT
ATOM      1  C   UNL     1      -2.177  -0.783  -0.191  0.00  0.00    +0.157 C 
ATOM      2  C   UNL     1      -2.018  -2.280  -0.227  0.00  0.00    -0.004 C 
ATOM      3  C   UNL     1      -2.649  -2.723   0.866  0.00  0.00    +0.067 C 
ATOM      4  C   UNL     1      -2.739  -4.186   1.238  0.00  0.00    +0.076 C 
ATOM      5  C   UNL     1      -2.439  -5.035  -0.002  0.00  0.00    +0.114 C 
ATOM      6  N   UNL     1      -1.247  -4.503  -0.680  0.00  0.00    -0.296 N 
ATOM      7  C   UNL     1      -1.322  -3.140  -1.242  0.00  0.00    +0.142 C 
ATOM      8  C   UNL     1      -0.121  -5.237  -0.784  0.00  0.00    +0.227 C 
ATOM      9  O   UNL     1       0.821  -4.815  -1.421  0.00  0.00    -0.275 OA
ATOM     10  N   UNL     1      -3.168  -1.679   1.551  0.00  0.00    -0.158 NA
ATOM     11  N   UNL     1      -2.960  -0.568   1.042  0.00  0.00    -0.180 NA
ENDROOT
BRANCH   8  12
ATOM     12  C   UNL     1      -0.034  -6.582  -0.110  0.00  0.00    +0.141 C 
ATOM     13  C   UNL     1       0.798  -7.529  -0.977  0.00  0.00    +0.190 C 
ATOM     14  O   UNL     1       1.090  -8.714  -0.222  0.00  0.00    -0.457 OA
ATOM     15  C   UNL     1       1.811  -8.494   0.907  0.00  0.00    +0.332 C 
ATOM     16  O   UNL     1       2.713  -9.239   1.234  0.00  0.00    -0.246 OA
ATOM     17  C   UNL     1       1.460  -7.315   1.720  0.00  0.00    +0.091 C 
ATOM     18  C   UNL     1       0.605  -6.421   1.242  0.00  0.00    -0.051 C 
ATOM     19  C   UNL     1       0.263  -5.214   2.078  0.00  0.00    +0.040 C 
ATOM     20  C   UNL     1       0.008  -7.901  -2.233  0.00  0.00    +0.053 C 
ENDBRANCH   8  12
BRANCH   1  22
ATOM     21  C   UNL     1      -1.006   1.423  -0.120  0.00  0.00    +0.006 C 
ATOM     22  C   UNL     1      -0.814  -0.094  -0.095  0.00  0.00    +0.030 C 
ENDBRANCH   1  22
TORSDOF 2
