REMARK  Name = ZINC65227688
REMARK  7 active torsions:
REMARK  status: ('A' for Active; 'I' for Inactive)
REMARK    1  A    between atoms: C_1  and  C_2
REMARK    2  A    between atoms: C_2  and  C_3
REMARK    3  A    between atoms: C_5  and  C_8
REMARK    4  A    between atoms: C_13  and  N_14
REMARK    5  A    between atoms: C_18  and  C_21
REMARK    6  A    between atoms: N_23  and  C_24
REMARK    7  A    between atoms: C_24  and  C_25
REMARK                            x       y       z     vdW  Elec       q    Type
REMARK                         _______ _______ _______ _____ _____    ______ ____
ROOT
ATOM      1  N   UNL     1       2.838  -2.094  -5.410  0.00  0.00    -0.315 N 
ATOM      2  C   UNL     1       1.490  -1.602  -5.098  0.00  0.00    +0.106 C 
ATOM      3  C   UNL     1       1.045  -0.643  -6.207  0.00  0.00    +0.020 C 
ATOM      4  C   UNL     1       1.159  -1.348  -7.561  0.00  0.00    +0.016 C 
ATOM      5  C   UNL     1       2.618  -1.737  -7.814  0.00  0.00    +0.092 C 
ATOM      6  C   UNL     1       3.081  -2.702  -6.725  0.00  0.00    +0.119 C 
ENDROOT
BRANCH   1  12
ATOM      7  C   UNL     1       4.146  -3.052  -3.624  0.00  0.00    +0.060 A 
ATOM      8  C   UNL     1       5.186  -2.919  -2.703  0.00  0.00    +0.016 A 
ATOM      9  C   UNL     1       5.894  -1.728  -2.675  0.00  0.00    +0.018 A 
ATOM     10  C   UNL     1       5.553  -0.715  -3.550  0.00  0.00    +0.084 A 
ATOM     11  N   UNL     1       4.566  -0.861  -4.413  0.00  0.00    -0.349 N 
ATOM     12  C   UNL     1       3.864  -1.981  -4.484  0.00  0.00    +0.110 A 
ATOM     13  H   UNL     1       4.351  -0.131  -5.014  0.00  0.00    +0.167 HD
BRANCH   7  16
ATOM     14  C   UNL     1       2.724  -6.341  -3.296  0.00  0.00    +0.227 A 
ATOM     15  N   UNL     1       3.606  -5.429  -2.999  0.00  0.00    -0.191 NA
ATOM     16  C   UNL     1       3.358  -4.305  -3.696  0.00  0.00    +0.205 A 
ATOM     17  N   UNL     1       2.302  -4.503  -4.447  0.00  0.00    -0.056 NA
ATOM     18  O   UNL     1       1.877  -5.835  -4.201  0.00  0.00    -0.338 OA
BRANCH  14  20
ATOM     19  C   UNL     1       1.798  -7.733  -1.465  0.00  0.00    +0.014 C 
ATOM     20  C   UNL     1       2.670  -7.734  -2.722  0.00  0.00    +0.095 C 
ENDBRANCH  14  20
ENDBRANCH   7  16
ENDBRANCH   1  12
BRANCH   5  21
ATOM     21  C   UNL     1       2.735  -2.401  -9.162  0.00  0.00    +0.218 C 
ATOM     22  O   UNL     1       3.149  -3.538  -9.244  0.00  0.00    -0.275 OA
ATOM     23  N   UNL     1       2.378  -1.731 -10.276  0.00  0.00    -0.311 N 
ATOM     24  H   UNL     1       2.047  -0.822 -10.210  0.00  0.00    +0.149 HD
BRANCH  23  25
ATOM     25  C   UNL     1       2.492  -2.377 -11.586  0.00  0.00    +0.139 C 
BRANCH  25  26
ATOM     26  C   UNL     1       2.034  -1.422 -12.658  0.00  0.00    -0.030 A 
ATOM     27  C   UNL     1       0.705  -1.395 -13.038  0.00  0.00    +0.005 A 
ATOM     28  C   UNL     1       0.285  -0.519 -14.021  0.00  0.00    +0.000 A 
ATOM     29  C   UNL     1       1.194   0.331 -14.624  0.00  0.00    +0.000 A 
ATOM     30  C   UNL     1       2.522   0.304 -14.244  0.00  0.00    +0.000 A 
ATOM     31  C   UNL     1       2.942  -0.569 -13.258  0.00  0.00    +0.005 A 
ENDBRANCH  25  26
ENDBRANCH  23  25
ENDBRANCH   5  21
TORSDOF 6
