REMARK  Name = ZINC46983553
REMARK  7 active torsions:
REMARK  status: ('A' for Active; 'I' for Inactive)
REMARK    1  A    between atoms: C_1  and  C_2
REMARK    2  A    between atoms: C_3  and  C_14
REMARK    3  A    between atoms: N_6  and  C_7
REMARK    4  A    between atoms: C_14  and  C_16
REMARK    5  A    between atoms: C_14  and  N_17
REMARK    6  A    between atoms: N_20  and  N_21
REMARK    7  A    between atoms: C_22  and  C_24
REMARK                            x       y       z     vdW  Elec       q    Type
REMARK                         _______ _______ _______ _____ _____    ______ ____
ROOT
ATOM      1  N   UNL     1       0.478  -1.402  -3.398  0.00  0.00    -0.292 N 
ATOM      2  C   UNL     1       1.028  -1.106  -4.592  0.00  0.00    +0.316 C 
ATOM      3  O   UNL     1       1.123   0.053  -4.947  0.00  0.00    -0.251 OA
ATOM      4  N   UNL     1       1.473  -2.094  -5.393  0.00  0.00    -0.218 N 
ATOM      5  H   UNL     1       0.402  -2.326  -3.115  0.00  0.00    +0.151 HD
ATOM      6  H   UNL     1       1.869  -1.881  -6.252  0.00  0.00    +0.174 HD
ENDROOT
BRANCH   4   7
ATOM      7  N   UNL     1       1.363  -3.430  -4.984  0.00  0.00    -0.229 N 
ATOM      8  C   UNL     1       1.808  -4.418  -5.785  0.00  0.00    +0.263 C 
ATOM      9  O   UNL     1       2.304  -4.151  -6.862  0.00  0.00    -0.269 OA
ATOM     10  H   UNL     1       0.967  -3.643  -4.124  0.00  0.00    +0.173 HD
BRANCH   8  11
ATOM     11  C   UNL     1       1.692  -5.826  -5.354  0.00  0.00    +0.073 A 
ATOM     12  C   UNL     1       1.117  -6.138  -4.119  0.00  0.00    +0.016 A 
ATOM     13  C   UNL     1       1.012  -7.454  -3.723  0.00  0.00    +0.001 A 
ATOM     14  C   UNL     1       1.474  -8.468  -4.545  0.00  0.00    +0.003 A 
ATOM     15  C   UNL     1       2.045  -8.170  -5.768  0.00  0.00    +0.039 A 
ATOM     16  C   UNL     1       2.152  -6.855  -6.181  0.00  0.00    +0.136 A 
ATOM     17  F   UNL     1       2.705  -6.564  -7.380  0.00  0.00    -0.205 F 
ENDBRANCH   8  11
ENDBRANCH   4   7
BRANCH   1  18
ATOM     18  C   UNL     1      -0.006  -0.327  -2.527  0.00  0.00    +0.105 C 
ATOM     19  C   UNL     1      -1.434   0.049  -2.927  0.00  0.00    +0.033 C 
BRANCH  18  22
ATOM     20  C   UNL     1      -0.018   1.503   0.010  0.00  0.00    +0.066 C 
ATOM     21  C   UNL     1       0.002  -0.004   0.002  0.00  0.00    +0.047 A 
ATOM     22  C   UNL     1       0.008  -0.796  -1.095  0.00  0.00    +0.013 A 
ATOM     23  C   UNL     1       0.028  -2.127  -0.665  0.00  0.00    +0.140 A 
ATOM     24  N   UNL     1       0.035  -2.135   0.643  0.00  0.00    -0.174 NA
ATOM     25  N   UNL     1       0.024  -0.807   1.089  0.00  0.00    -0.237 N 
BRANCH  25  26
ATOM     26  C   UNL     1       0.032  -0.386   2.427  0.00  0.00    +0.066 A 
ATOM     27  C   UNL     1       0.704   0.774   2.786  0.00  0.00    +0.030 A 
ATOM     28  C   UNL     1       0.711   1.188   4.104  0.00  0.00    +0.040 A 
ATOM     29  C   UNL     1       0.048   0.446   5.067  0.00  0.00    +0.124 A 
ATOM     30  C   UNL     1      -0.624  -0.711   4.710  0.00  0.00    +0.040 A 
ATOM     31  C   UNL     1      -0.638  -1.125   3.393  0.00  0.00    +0.030 A 
ATOM     32  F   UNL     1       0.056   0.852   6.355  0.00  0.00    -0.205 F 
ENDBRANCH  25  26
ENDBRANCH  18  22
ENDBRANCH   1  18
TORSDOF 5
