REMARK  Name = ZINC14045621
REMARK  9 active torsions:
REMARK  status: ('A' for Active; 'I' for Inactive)
REMARK    1  A    between atoms: C_1  and  C_2
REMARK    2  A    between atoms: C_2  and  C_3
REMARK    3  A    between atoms: C_3  and  C_5
REMARK    4  A    between atoms: C_3  and  C_6
REMARK    5  A    between atoms: C_9  and  S_12
REMARK    6  A    between atoms: S_12  and  N_15
REMARK    7  A    between atoms: C_21  and  C_23
REMARK    8  A    between atoms: C_24  and  C_30
REMARK    9  A    between atoms: N_26  and  C_29
REMARK                            x       y       z     vdW  Elec       q    Type
REMARK                         _______ _______ _______ _____ _____    ______ ____
ROOT
ATOM      1  N   UNL     1      -1.042  -6.960  -0.803  0.00  0.00    -0.174 NA
ATOM      2  C   UNL     1      -1.078  -7.242   0.639  0.00  0.00    +0.128 C 
ATOM      3  C   UNL     1      -2.147  -6.353   1.286  0.00  0.00    +0.125 C 
ATOM      4  N   UNL     1      -3.390  -6.473   0.509  0.00  0.00    -0.295 N 
ATOM      5  C   UNL     1      -3.354  -6.191  -0.932  0.00  0.00    +0.125 C 
ATOM      6  C   UNL     1      -2.286  -7.074  -1.578  0.00  0.00    +0.128 C 
ATOM      7  C   UNL     1      -4.541  -6.835   1.109  0.00  0.00    +0.251 C 
ATOM      8  O   UNL     1      -4.558  -7.066   2.303  0.00  0.00    -0.270 OA
ENDROOT
BRANCH   7   9
ATOM      9  C   UNL     1      -5.779  -6.951   0.319  0.00  0.00    +0.096 A 
ATOM     10  C   UNL     1      -6.251  -8.111  -0.335  0.00  0.00    +0.074 A 
ATOM     11  N   UNL     1      -7.375  -7.813  -0.926  0.00  0.00    -0.175 NA
ATOM     12  N   UNL     1      -7.673  -6.467  -0.683  0.00  0.00    -0.255 N 
ATOM     13  C   UNL     1      -6.699  -5.947   0.082  0.00  0.00    +0.139 A 
ATOM     14 CL   UNL     1      -6.610  -4.313   0.663  0.00  0.00    -0.062 Cl
ATOM     15  C   UNL     1      -8.852  -5.749  -1.174  0.00  0.00    +0.174 C 
ATOM     16  C   UNL     1      -5.575  -9.458  -0.349  0.00  0.00    +0.068 C 
ENDBRANCH   7   9
BRANCH   1  17
ATOM     17  S   UNL     1       0.372  -6.515  -1.540  0.00  0.00    +0.061 S 
ATOM     18  O   UNL     1       0.237  -6.849  -2.915  0.00  0.00    -0.153 OA
ATOM     19  O   UNL     1       1.427  -7.020  -0.734  0.00  0.00    -0.153 OA
BRANCH  17  23
ATOM     20  C   UNL     1       0.632  -2.000  -1.327  0.00  0.00    -0.044 A 
ATOM     21  C   UNL     1       1.163  -2.772  -0.311  0.00  0.00    +0.006 A 
ATOM     22  C   UNL     1       1.084  -4.150  -0.376  0.00  0.00    +0.029 A 
ATOM     23  C   UNL     1       0.472  -4.757  -1.457  0.00  0.00    +0.105 A 
ATOM     24  C   UNL     1      -0.060  -3.986  -2.473  0.00  0.00    +0.029 A 
ATOM     25  C   UNL     1       0.016  -2.607  -2.406  0.00  0.00    +0.006 A 
BRANCH  20  26
ATOM     26  C   UNL     1       0.718  -0.497  -1.257  0.00  0.00    +0.016 C 
ATOM     27  C   UNL     1       2.187  -0.073  -1.207  0.00  0.00    +0.012 C 
BRANCH  26  29
ATOM     28  C   UNL     1      -0.019   1.526   0.010  0.00  0.00    +0.004 C 
ATOM     29  C   UNL     1       0.002  -0.004   0.002  0.00  0.00    +0.004 C 
ENDBRANCH  26  29
ENDBRANCH  20  26
ENDBRANCH  17  23
ENDBRANCH   1  17
TORSDOF 5
