REMARK  Name = ZINC02102419
REMARK  9 active torsions:
REMARK  status: ('A' for Active; 'I' for Inactive)
REMARK    1  A    between atoms: C_1  and  C_2
REMARK    2  A    between atoms: C_2  and  N_3
REMARK    3  A    between atoms: C_4  and  O_29
REMARK    4  A    between atoms: C_5  and  C_13
REMARK    5  A    between atoms: N_8  and  C_11
REMARK    6  A    between atoms: C_11  and  C_12
REMARK    7  A    between atoms: C_20  and  O_21
REMARK    8  A    between atoms: O_21  and  C_22
REMARK    9  A    between atoms: C_28  and  N_54
REMARK                            x       y       z     vdW  Elec       q    Type
REMARK                         _______ _______ _______ _____ _____    ______ ____
ROOT
ATOM      1  C   UNL     1      -0.026   0.112  -2.484  0.00  0.00    +0.007 C 
ATOM      2  C   UNL     1      -0.006  -0.690  -1.209  0.00  0.00    -0.008 A 
ATOM      3  C   UNL     1       0.014  -2.068  -1.216  0.00  0.00    -0.040 A 
ATOM      4  C   UNL     1       0.038  -2.767  -0.018  0.00  0.00    +0.053 A 
ATOM      5  C   UNL     1       0.042  -2.091   1.190  0.00  0.00    +0.170 A 
ATOM      6  C   UNL     1       0.023  -0.701   1.202  0.00  0.00    +0.208 A 
ATOM      7  C   UNL     1       0.002  -0.004   0.002  0.00  0.00    +0.167 A 
ATOM      8  O   UNL     1       0.030  -0.274   2.500  0.00  0.00    -0.449 OA
ATOM      9  C   UNL     1      -0.358  -1.419   3.282  0.00  0.00    +0.467 C 
ATOM     10  O   UNL     1       0.062  -2.539   2.480  0.00  0.00    -0.452 OA
ATOM     11  C   UNL     1      -0.002  -2.852  -2.503  0.00  0.00    +0.017 C 
ATOM     12  C   UNL     1       0.374  -1.947  -3.673  0.00  0.00    -0.073 C 
ATOM     13  C   UNL     1      -0.381   0.017  -4.875  0.00  0.00    -0.095 C 
ATOM     14  N   UNL     1      -0.469  -0.735  -3.604  0.00  0.00    +0.386 N 
ATOM     15  H   UNL     1      -1.445  -1.014  -3.448  0.00  0.00    -0.081 HD
ENDROOT
BRANCH   1  18
ATOM     16  N   UNL     1      -1.424   3.582  -2.219  0.00  0.00    -0.292 N 
ATOM     17  C   UNL     1      -0.532   2.549  -2.357  0.00  0.00    +0.202 A 
ATOM     18  C   UNL     1      -0.986   1.263  -2.334  0.00  0.00    +0.067 A 
ATOM     19  C   UNL     1      -2.363   1.027  -2.174  0.00  0.00    +0.260 A 
ATOM     20  O   UNL     1      -2.792  -0.113  -2.155  0.00  0.00    -0.267 OA
ATOM     21  N   UNL     1      -3.205   2.071  -2.036  0.00  0.00    -0.288 N 
ATOM     22  C   UNL     1      -2.737   3.333  -2.061  0.00  0.00    +0.166 A 
ATOM     23  S   UNL     1      -3.829   4.640  -1.891  0.00  0.00    -0.013 S 
BRANCH  16  25
ATOM     24  C   UNL     1      -0.956   5.485  -3.682  0.00  0.00    +0.027 C 
ATOM     25  C   UNL     1      -0.944   4.966  -2.243  0.00  0.00    +0.124 C 
ENDBRANCH  16  25
BRANCH  21  26
ATOM     26  C   UNL     1      -4.639   1.831  -1.863  0.00  0.00    +0.124 C 
ATOM     27  C   UNL     1      -5.318   1.785  -3.233  0.00  0.00    +0.027 C 
ENDBRANCH  21  26
BRANCH  17  28
ATOM     28  O   UNL     1       0.784   2.803  -2.516  0.00  0.00    -0.493 OA
ATOM     29  H   UNL     1       1.005   3.745  -2.519  0.00  0.00    +0.294 HD
ENDBRANCH  17  28
ENDBRANCH   1  18
BRANCH   7  30
ATOM     30  O   UNL     1      -0.016   1.356   0.009  0.00  0.00    -0.491 OA
ATOM     31  C   UNL     1       1.248   2.022   0.001  0.00  0.00    +0.277 C 
ENDBRANCH   7  30
TORSDOF 5
