REMARK  Name = ZINC67632367
REMARK  10 active torsions:
REMARK  status: ('A' for Active; 'I' for Inactive)
REMARK    1  A    between atoms: C_1  and  C_2
REMARK    2  A    between atoms: C_2  and  C_3
REMARK    3  A    between atoms: C_2  and  N_4
REMARK    4  A    between atoms: C_7  and  C_10
REMARK    5  A    between atoms: C_10  and  N_11
REMARK    6  A    between atoms: C_12  and  C_14
REMARK    7  A    between atoms: C_16  and  O_23
REMARK    8  A    between atoms: C_19  and  N_20
REMARK    9  A    between atoms: O_23  and  C_24
REMARK   10  A    between atoms: C_24  and  C_25
REMARK                            x       y       z     vdW  Elec       q    Type
REMARK                         _______ _______ _______ _____ _____    ______ ____
ROOT
ATOM      1  C   UNL     1      -6.948  -4.929  -0.940  0.00  0.00    +0.070 A 
ATOM      2  C   UNL     1      -7.816  -4.005  -1.521  0.00  0.00    +0.061 A 
ATOM      3  C   UNL     1      -8.705  -4.416  -2.499  0.00  0.00    +0.122 A 
ATOM      4  C   UNL     1      -8.731  -5.745  -2.900  0.00  0.00    +0.048 A 
ATOM      5  C   UNL     1      -7.871  -6.663  -2.325  0.00  0.00    +0.037 A 
ATOM      6  C   UNL     1      -6.977  -6.262  -1.353  0.00  0.00    +0.138 A 
ENDROOT
BRANCH   1   8
ATOM      7  N   UNL     1      -5.143  -3.483  -0.137  0.00  0.00    -0.311 N 
ATOM      8  C   UNL     1      -5.996  -4.498   0.106  0.00  0.00    +0.246 C 
ATOM      9  O   UNL     1      -5.982  -5.058   1.185  0.00  0.00    -0.270 OA
ATOM     10  H   UNL     1      -5.154  -3.036  -0.997  0.00  0.00    +0.149 HD
BRANCH   7  11
ATOM     11  C   UNL     1      -4.200  -3.055   0.900  0.00  0.00    +0.106 C 
BRANCH  11  15
ATOM     12  N   UNL     1      -2.622  -0.064   1.788  0.00  0.00    +0.381 N 
ATOM     13  C   UNL     1      -3.327   0.514   0.615  0.00  0.00    -0.078 C 
ATOM     14  C   UNL     1      -4.237  -0.647   0.142  0.00  0.00    -0.015 C 
ATOM     15  C   UNL     1      -3.353  -1.895   0.372  0.00  0.00    -0.012 C 
ATOM     16  C   UNL     1      -2.316  -1.465   1.425  0.00  0.00    -0.074 C 
ATOM     17  H   UNL     1      -3.218  -0.037   2.601  0.00  0.00    -0.081 HD
BRANCH  12  19
ATOM     18  C   UNL     1      -1.713   2.121   2.419  0.00  0.00    -0.014 C 
ATOM     19  C   UNL     1      -1.379   0.675   2.046  0.00  0.00    -0.075 C 
ATOM     20  C   UNL     1      -0.621   0.013   3.198  0.00  0.00    -0.014 C 
ENDBRANCH  12  19
ENDBRANCH  11  15
ENDBRANCH   7  11
ENDBRANCH   1   8
BRANCH   6  21
ATOM     21  N   UNL     1      -6.054  -7.247  -0.745  0.00  0.00    +0.057 N 
ATOM     22  O   UNL     1      -6.161  -8.421  -1.012  0.00  0.00    -0.126 OA
ATOM     23  O   UNL     1      -5.192  -6.876   0.018  0.00  0.00    -0.126 OA
ENDBRANCH   6  21
BRANCH   3  24
ATOM     24  O   UNL     1      -9.553  -3.519  -3.067  0.00  0.00    -0.483 OA
BRANCH  24  25
ATOM     25  C   UNL     1     -10.443  -4.013  -4.071  0.00  0.00    +0.342 C 
BRANCH  25  26
ATOM     26  C   UNL     1     -11.313  -2.866  -4.590  0.00  0.00    +0.424 C 
ATOM     27  F   UNL     1     -10.496  -1.873  -5.139  0.00  0.00    -0.167 F 
ATOM     28  F   UNL     1     -12.184  -3.349  -5.572  0.00  0.00    -0.167 F 
ATOM     29  F   UNL     1     -12.055  -2.328  -3.532  0.00  0.00    -0.167 F 
ENDBRANCH  25  26
ENDBRANCH  24  25
ENDBRANCH   3  24
TORSDOF 8
