REMARK  Name = ZINC00295219
REMARK  7 active torsions:
REMARK  status: ('A' for Active; 'I' for Inactive)
REMARK    1  A    between atoms: C_1  and  C_2
REMARK    2  A    between atoms: C_4  and  C_17
REMARK    3  A    between atoms: C_5  and  C_16
REMARK    4  A    between atoms: N_6  and  C_7
REMARK    5  A    between atoms: C_10  and  N_13
REMARK    6  A    between atoms: C_18  and  C_19
REMARK    7  A    between atoms: C_18  and  C_21
REMARK                            x       y       z     vdW  Elec       q    Type
REMARK                         _______ _______ _______ _____ _____    ______ ____
ROOT
ATOM      1  C   UNL     1       0.248   6.968   0.337  0.00  0.00    +0.064 C 
ATOM      2  C   UNL     1      -0.576   5.707   0.277  0.00  0.00    +0.022 A 
ATOM      3  C   UNL     1      -0.085   4.463   0.152  0.00  0.00    +0.031 A 
ATOM      4  C   UNL     1      -1.243   3.558   0.138  0.00  0.00    -0.002 A 
ATOM      5  C   UNL     1      -2.359   4.369   0.253  0.00  0.00    +0.028 A 
ATOM      6  N   UNL     1      -1.940   5.648   0.340  0.00  0.00    -0.317 N 
ATOM      7  C   UNL     1      -3.792   3.904   0.280  0.00  0.00    +0.064 C 
ENDROOT
BRANCH   6   8
ATOM      8  C   UNL     1      -2.784   6.760   0.471  0.00  0.00    +0.047 A 
ATOM      9  C   UNL     1      -3.557   6.915   1.614  0.00  0.00    +0.028 A 
ATOM     10  C   UNL     1      -4.384   8.014   1.742  0.00  0.00    +0.035 A 
ATOM     11  C   UNL     1      -4.449   8.954   0.730  0.00  0.00    +0.126 A 
ATOM     12  C   UNL     1      -3.685   8.799  -0.412  0.00  0.00    +0.035 A 
ATOM     13  C   UNL     1      -2.852   7.705  -0.544  0.00  0.00    +0.028 A 
BRANCH  11  14
ATOM     14  N   UNL     1      -5.340  10.127   0.868  0.00  0.00    +0.056 N 
ATOM     15  O   UNL     1      -5.399  10.956  -0.023  0.00  0.00    -0.126 OA
ATOM     16  O   UNL     1      -6.014  10.265   1.873  0.00  0.00    -0.126 OA
ENDBRANCH  11  14
ENDBRANCH   6   8
BRANCH   4  17
ATOM     17  C   UNL     1      -1.222   2.102   0.019  0.00  0.00    +0.039 C 
ATOM     18  C   UNL     1      -0.052   1.407   0.254  0.00  0.00    +0.129 C 
BRANCH  18  19
ATOM     19  C   UNL     1      -0.069  -0.023   0.316  0.00  0.00    +0.110 C 
ATOM     20  N   UNL     1      -0.082  -1.158   0.365  0.00  0.00    -0.190 NA
ENDBRANCH  18  19
BRANCH  18  21
ATOM     21  C   UNL     1       1.179   2.118   0.429  0.00  0.00    +0.110 C 
ATOM     22  N   UNL     1       2.155   2.681   0.568  0.00  0.00    -0.190 NA
ENDBRANCH  18  21
ENDBRANCH   4  17
TORSDOF 5
