REMARK  Name = ZINC39916293
REMARK  7 active torsions:
REMARK  status: ('A' for Active; 'I' for Inactive)
REMARK    1  A    between atoms: C_1  and  C_2
REMARK    2  A    between atoms: C_2  and  O_3
REMARK    3  A    between atoms: O_3  and  C_4
REMARK    4  A    between atoms: C_4  and  C_6
REMARK    5  A    between atoms: C_7  and  N_30
REMARK    6  A    between atoms: C_21  and  C_23
REMARK    7  A    between atoms: C_26  and  O_29
REMARK                            x       y       z     vdW  Elec       q    Type
REMARK                         _______ _______ _______ _____ _____    ______ ____
ROOT
ATOM      1  C   UNL     1      -2.788  -2.394   0.010  0.00  0.00    +0.102 C 
ATOM      2  C   UNL     1      -2.916  -3.738  -0.088  0.00  0.00    +0.194 C 
ATOM      3  O   UNL     1      -4.128  -4.341  -0.098  0.00  0.00    -0.445 OA
ATOM      4  C   UNL     1      -5.182  -3.571   0.184  0.00  0.00    +0.129 C 
ATOM      5  C   UNL     1      -6.241  -3.987   0.976  0.00  0.00    +0.035 A 
ATOM      6  C   UNL     1      -6.282  -5.287   1.521  0.00  0.00    +0.013 A 
ATOM      7  C   UNL     1      -7.344  -5.663   2.285  0.00  0.00    +0.001 A 
ATOM      8  C   UNL     1      -8.395  -4.788   2.543  0.00  0.00    +0.002 A 
ATOM      9  C   UNL     1      -8.410  -3.518   2.049  0.00  0.00    +0.024 A 
ATOM     10  C   UNL     1      -7.346  -3.061   1.255  0.00  0.00    +0.044 A 
ATOM     11  N   UNL     1      -7.356  -1.810   0.777  0.00  0.00    -0.284 N 
ATOM     12  C   UNL     1      -6.411  -1.309   0.007  0.00  0.00    +0.229 C 
ATOM     13  O   UNL     1      -6.490  -0.159  -0.385  0.00  0.00    -0.275 OA
ATOM     14  C   UNL     1      -5.228  -2.165  -0.389  0.00  0.00    +0.154 C 
ATOM     15  C   UNL     1      -3.967  -1.470   0.141  0.00  0.00    +0.080 C 
ATOM     16  H   UNL     1      -8.104  -1.239   1.011  0.00  0.00    +0.155 HD
ENDROOT
BRANCH  15  17
ATOM     17  C   UNL     1      -4.161  -1.107   1.590  0.00  0.00    -0.038 A 
ATOM     18  C   UNL     1      -4.401  -2.098   2.524  0.00  0.00    +0.008 A 
ATOM     19  C   UNL     1      -4.579  -1.767   3.854  0.00  0.00    +0.045 A 
ATOM     20  C   UNL     1      -4.517  -0.440   4.252  0.00  0.00    +0.117 A 
ATOM     21  C   UNL     1      -4.276   0.553   3.313  0.00  0.00    +0.045 A 
ATOM     22  C   UNL     1      -4.093   0.217   1.985  0.00  0.00    +0.008 A 
BRANCH  20  23
ATOM     23  O   UNL     1      -4.693  -0.112   5.559  0.00  0.00    -0.507 OA
ATOM     24  H   UNL     1      -3.875  -0.099   6.074  0.00  0.00    +0.292 HD
ENDBRANCH  20  23
ENDBRANCH  15  17
BRANCH   2  25
ATOM     25  N   UNL     1      -1.789  -4.509  -0.181  0.00  0.00    -0.329 N 
ATOM     26  H   UNL     1      -0.913  -4.100  -0.098  0.00  0.00    +0.145 HD
ATOM     27  H   UNL     1      -1.865  -5.465  -0.329  0.00  0.00    +0.145 HD
ENDBRANCH   2  25
BRANCH   1  28
ATOM     28  C   UNL     1      -1.498  -1.839  -0.005  0.00  0.00    +0.341 C 
ATOM     29  O   UNL     1      -1.064  -1.334  -1.026  0.00  0.00    -0.245 OA
BRANCH  28  30
ATOM     30  O   UNL     1      -0.738  -1.865   1.111  0.00  0.00    -0.462 OA
BRANCH  30  32
ATOM     31  C   UNL     1       1.269  -1.406   2.375  0.00  0.00    +0.048 C 
ATOM     32  C   UNL     1       0.564  -1.283   1.023  0.00  0.00    +0.229 C 
ENDBRANCH  30  32
ENDBRANCH  28  30
ENDBRANCH   1  28
TORSDOF 6
