REMARK  Name = ZINC06245232
REMARK  7 active torsions:
REMARK  status: ('A' for Active; 'I' for Inactive)
REMARK    1  A    between atoms: C_1  and  O_2
REMARK    2  A    between atoms: O_2  and  C_3
REMARK    3  A    between atoms: C_8  and  C_9
REMARK    4  A    between atoms: N_10  and  N_11
REMARK    5  A    between atoms: C_12  and  C_14
REMARK    6  A    between atoms: C_14  and  S_15
REMARK    7  A    between atoms: S_15  and  C_16
REMARK                            x       y       z     vdW  Elec       q    Type
REMARK                         _______ _______ _______ _____ _____    ______ ____
ROOT
ATOM      1  N   UNL     1       2.279   5.621   0.009  0.00  0.00    -0.206 N 
ATOM      2  C   UNL     1       3.441   6.305   0.002  0.00  0.00    +0.242 C 
ATOM      3  O   UNL     1       4.496   5.707  -0.011  0.00  0.00    -0.273 OA
ATOM      4  H   UNL     1       1.435   6.099   0.020  0.00  0.00    +0.177 HD
ENDROOT
BRANCH   1   6
ATOM      5  C   UNL     1       1.172   3.562   0.009  0.00  0.00    +0.142 C 
ATOM      6  N   UNL     1       2.291   4.220   0.002  0.00  0.00    -0.188 NA
BRANCH   5  12
ATOM      7  C   UNL     1       2.402   1.394  -0.013  0.00  0.00    +0.129 A 
ATOM      8  C   UNL     1       2.403   0.008  -0.020  0.00  0.00    +0.047 A 
ATOM      9  C   UNL     1       1.208  -0.686  -0.013  0.00  0.00    +0.019 A 
ATOM     10  C   UNL     1       0.002  -0.004   0.002  0.00  0.00    +0.019 A 
ATOM     11  C   UNL     1      -0.017   1.376   0.010  0.00  0.00    +0.028 A 
ATOM     12  C   UNL     1       1.185   2.088   0.002  0.00  0.00    +0.037 A 
ATOM     13 BR   UNL     1      -1.625  -0.968   0.012  0.00  0.00    -0.050 Br
BRANCH   7  15
ATOM     14  C   UNL     1       4.777   1.302  -0.035  0.00  0.00    +0.277 C 
ATOM     15  O   UNL     1       3.576   2.076  -0.021  0.00  0.00    -0.494 OA
ENDBRANCH   7  15
ENDBRANCH   5  12
ENDBRANCH   1   6
BRANCH   2  16
ATOM     16  C   UNL     1       3.428   7.812   0.010  0.00  0.00    +0.173 C 
BRANCH  16  17
ATOM     17  S   UNL     1       5.133   8.431  -0.003  0.00  0.00    -0.088 S 
BRANCH  17  18
ATOM     18  C   UNL     1       4.950  10.183   0.008  0.00  0.00    +0.160 A 
ATOM     19  N   UNL     1       3.849  10.909   0.022  0.00  0.00    -0.133 NA
ATOM     20  N   UNL     1       3.934  12.282   0.029  0.00  0.00    -0.125 NA
ATOM     21  C   UNL     1       5.116  12.866   0.021  0.00  0.00    +0.180 A 
ATOM     22  S   UNL     1       6.207  11.452   0.009  0.00  0.00    -0.025 S 
ATOM     23  N   UNL     1       5.429  14.220   0.025  0.00  0.00    -0.336 N 
ATOM     24  H   UNL     1       4.720  14.882   0.035  0.00  0.00    +0.144 HD
ATOM     25  H   UNL     1       6.356  14.504   0.018  0.00  0.00    +0.144 HD
ENDBRANCH  17  18
ENDBRANCH  16  17
ENDBRANCH   2  16
TORSDOF 6
