REMARK  Name = ZINC39588076
REMARK  4 active torsions:
REMARK  status: ('A' for Active; 'I' for Inactive)
REMARK    1  A    between atoms: C_1  and  O_2
REMARK    2  A    between atoms: O_2  and  C_3
REMARK    3  A    between atoms: C_6  and  N_10
REMARK    4  A    between atoms: C_12  and  C_17
REMARK                            x       y       z     vdW  Elec       q    Type
REMARK                         _______ _______ _______ _____ _____    ______ ____
ROOT
ATOM      1  N   UNL     1      -4.891  -2.581   0.036  0.00  0.00    -0.271 N 
ATOM      2  C   UNL     1      -5.063  -4.035  -0.064  0.00  0.00    +0.123 C 
ATOM      3  C   UNL     1      -6.543  -4.250  -0.449  0.00  0.00    +0.080 C 
ATOM      4  C   UNL     1      -7.203  -2.965   0.105  0.00  0.00    +0.107 C 
ATOM      5  C   UNL     1      -6.076  -1.956   0.143  0.00  0.00    +0.220 C 
ATOM      6  O   UNL     1      -6.222  -0.756   0.253  0.00  0.00    -0.275 OA
ENDROOT
BRANCH   1  10
ATOM      7  C   UNL     1      -1.201  -0.638   0.010  0.00  0.00    +0.138 A 
ATOM      8  C   UNL     1      -2.374   0.102   0.004  0.00  0.00    +0.049 A 
ATOM      9  C   UNL     1      -3.597  -0.541   0.012  0.00  0.00    +0.027 A 
ATOM     10  C   UNL     1      -3.651  -1.929   0.027  0.00  0.00    +0.038 A 
ATOM     11  C   UNL     1      -2.477  -2.669   0.033  0.00  0.00    +0.047 A 
ATOM     12  C   UNL     1      -1.255  -2.025   0.019  0.00  0.00    +0.084 A 
ATOM     13 CL   UNL     1       0.214  -2.950   0.020  0.00  0.00    -0.080 Cl
BRANCH   7  15
ATOM     14  C   UNL     1      -0.017   1.425  -0.007  0.00  0.00    +0.277 C 
ATOM     15  O   UNL     1       0.002  -0.004   0.002  0.00  0.00    -0.494 OA
ENDBRANCH   7  15
ENDBRANCH   1  10
BRANCH   3  16
ATOM     16  C   UNL     1      -7.111  -5.495   0.235  0.00  0.00    +0.316 C 
ATOM     17  N   UNL     1      -6.331  -6.686  -0.133  0.00  0.00    -0.149 NA
ATOM     18  N   UNL     1      -7.088  -7.470  -0.714  0.00  0.00    -0.075 NA
ATOM     19  C   UNL     1      -8.339  -7.004  -0.821  0.00  0.00    +0.272 C 
ATOM     20  S   UNL     1      -9.634  -7.839  -1.569  0.00  0.00    +0.009 S 
ATOM     21  O   UNL     1      -8.435  -5.778  -0.252  0.00  0.00    -0.444 OA
ENDBRANCH   3  16
TORSDOF 3
