REMARK  Name = ZINC12483876
REMARK  8 active torsions:
REMARK  status: ('A' for Active; 'I' for Inactive)
REMARK    1  A    between atoms: C_1  and  O_2
REMARK    2  A    between atoms: O_2  and  C_3
REMARK    3  A    between atoms: C_8  and  N_9
REMARK    4  A    between atoms: N_12  and  C_15
REMARK    5  A    between atoms: C_17  and  O_36
REMARK    6  A    between atoms: C_19  and  N_28
REMARK    7  A    between atoms: N_28  and  C_29
REMARK    8  A    between atoms: C_29  and  C_30
REMARK                            x       y       z     vdW  Elec       q    Type
REMARK                         _______ _______ _______ _____ _____    ______ ____
ROOT
ATOM      1  C   UNL     1      -1.844   1.895   3.956  0.00  0.00    +0.140 C 
ATOM      2  C   UNL     1      -0.340   2.029   3.598  0.00  0.00    +0.125 C 
ATOM      3  C   UNL     1      -0.016   1.091   2.429  0.00  0.00    -0.009 C 
ATOM      4  C   UNL     1      -0.507  -0.322   2.786  0.00  0.00    +0.136 C 
ATOM      5  C   UNL     1      -0.057  -0.625   4.234  0.00  0.00    +0.193 C 
ATOM      6  O   UNL     1      -1.169  -0.157   5.054  0.00  0.00    -0.347 OA
ATOM      7  C   UNL     1      -2.149   0.403   4.160  0.00  0.00    +0.270 C 
ATOM      8  O   UNL     1      -1.951  -0.259   2.891  0.00  0.00    -0.346 OA
ENDROOT
BRANCH   1  12
ATOM      9  N   UNL     1      -4.625   4.172   1.736  0.00  0.00    -0.325 N 
ATOM     10  C   UNL     1      -4.954   2.768   2.018  0.00  0.00    +0.120 C 
ATOM     11  C   UNL     1      -4.113   2.278   3.199  0.00  0.00    +0.104 C 
ATOM     12  N   UNL     1      -2.687   2.426   2.876  0.00  0.00    -0.290 NA
ATOM     13  C   UNL     1      -2.357   3.830   2.593  0.00  0.00    +0.104 C 
ATOM     14  C   UNL     1      -3.199   4.321   1.413  0.00  0.00    +0.120 C 
BRANCH   9  20
ATOM     15  C   UNL     1      -6.258   5.772   0.942  0.00  0.00    +0.141 A 
ATOM     16  C   UNL     1      -7.050   6.268  -0.079  0.00  0.00    +0.047 A 
ATOM     17  C   UNL     1      -7.016   5.679  -1.330  0.00  0.00    +0.004 A 
ATOM     18  C   UNL     1      -6.192   4.595  -1.565  0.00  0.00    +0.002 A 
ATOM     19  C   UNL     1      -5.394   4.096  -0.552  0.00  0.00    +0.027 A 
ATOM     20  C   UNL     1      -5.428   4.678   0.707  0.00  0.00    +0.072 A 
BRANCH  15  22
ATOM     21  C   UNL     1      -7.166   7.467   2.342  0.00  0.00    +0.277 C 
ATOM     22  O   UNL     1      -6.291   6.350   2.173  0.00  0.00    -0.493 OA
ENDBRANCH  15  22
ENDBRANCH   9  20
ENDBRANCH   1  12
BRANCH   3  23
ATOM     23  N   UNL     1      -0.700   1.560   1.217  0.00  0.00    +0.385 N 
ATOM     24  H   UNL     1      -1.732   1.179   1.208  0.00  0.00    -0.085 HD
ATOM     25  H   UNL     1      -0.715   2.659   1.206  0.00  0.00    -0.085 HD
BRANCH  23  26
ATOM     26  C   UNL     1      -0.013   1.086   0.008  0.00  0.00    -0.079 C 
BRANCH  26  27
ATOM     27  C   UNL     1      -0.753   1.593  -1.232  0.00  0.00    -0.028 C 
ATOM     28  C   UNL     1      -2.147   0.964  -1.286  0.00  0.00    +0.002 C 
ATOM     29  C   UNL     1      -2.886   1.471  -2.526  0.00  0.00    +0.000 C 
ATOM     30  C   UNL     1      -2.103   1.083  -3.781  0.00  0.00    +0.000 C 
ATOM     31  C   UNL     1      -0.709   1.712  -3.727  0.00  0.00    +0.000 C 
ATOM     32  C   UNL     1       0.031   1.205  -2.487  0.00  0.00    +0.002 C 
ENDBRANCH  26  27
ENDBRANCH  23  26
ENDBRANCH   3  23
BRANCH   2  33
ATOM     33  O   UNL     1       0.462   1.678   4.727  0.00  0.00    -0.392 OA
ATOM     34  H   UNL     1       1.559   1.715   4.656  0.00  0.00    +0.210 HD
ENDBRANCH   2  33
TORSDOF 7
