REMARK  Name = ZINC05459192
REMARK  4 active torsions:
REMARK  status: ('A' for Active; 'I' for Inactive)
REMARK    1  A    between atoms: C_1  and  C_2
REMARK    2  A    between atoms: N_10  and  C_12
REMARK    3  A    between atoms: N_19  and  C_26
REMARK    4  A    between atoms: N_22  and  C_25
REMARK                            x       y       z     vdW  Elec       q    Type
REMARK                         _______ _______ _______ _____ _____    ______ ____
ROOT
ATOM      1  C   UNL     1       4.703   5.514  -1.295  0.00  0.00    +0.011 C 
ATOM      2  C   UNL     1       4.704   3.994  -1.121  0.00  0.00    +0.024 C 
ATOM      3  C   UNL     1       6.072   3.542  -0.598  0.00  0.00    +0.130 C 
ATOM      4  N   UNL     1       5.987   2.135  -0.197  0.00  0.00    -0.306 N 
ATOM      5  C   UNL     1       6.988   1.219  -0.012  0.00  0.00    +0.153 A 
ATOM      6  C   UNL     1       6.361   0.021   0.365  0.00  0.00    +0.170 A 
ATOM      7  N   UNL     1       5.056   0.240   0.396  0.00  0.00    -0.196 NA
ATOM      8  C   UNL     1       4.809   1.488   0.067  0.00  0.00    +0.205 A 
ATOM      9  N   UNL     1       3.583   2.124  -0.020  0.00  0.00    -0.271 N 
ATOM     10  C   UNL     1       3.612   3.595  -0.129  0.00  0.00    +0.118 C 
ATOM     11  N   UNL     1       7.123  -1.109   0.627  0.00  0.00    -0.280 N 
ATOM     12  C   UNL     1       8.465  -0.994   0.500  0.00  0.00    +0.333 A 
ATOM     13  O   UNL     1       9.153  -1.971   0.725  0.00  0.00    -0.246 OA
ATOM     14  N   UNL     1       9.074   0.146   0.141  0.00  0.00    -0.262 N 
ATOM     15  C   UNL     1       8.390   1.285  -0.128  0.00  0.00    +0.282 A 
ATOM     16  O   UNL     1       8.959   2.313  -0.453  0.00  0.00    -0.265 OA
ATOM     17  C   UNL     1      10.535   0.160   0.035  0.00  0.00    +0.157 C 
ATOM     18  C   UNL     1       6.499  -2.375   1.023  0.00  0.00    +0.155 C 
ENDROOT
BRANCH   9  19
ATOM     19  C   UNL     1       2.381   1.410  -0.013  0.00  0.00    +0.037 A 
ATOM     20  C   UNL     1       1.169   2.087   0.026  0.00  0.00    +0.025 A 
ATOM     21  C   UNL     1      -0.016   1.379   0.033  0.00  0.00    +0.022 A 
ATOM     22  C   UNL     1       0.002  -0.004   0.002  0.00  0.00    +0.041 A 
ATOM     23  C   UNL     1       1.208  -0.682  -0.036  0.00  0.00    +0.022 A 
ATOM     24  C   UNL     1       2.397   0.021  -0.044  0.00  0.00    +0.025 A 
ATOM     25 CL   UNL     1      -1.490  -0.891   0.012  0.00  0.00    -0.084 Cl
ENDBRANCH   9  19
TORSDOF 1
