REMARK  Name = ZINC34872857
REMARK  5 active torsions:
REMARK  status: ('A' for Active; 'I' for Inactive)
REMARK    1  A    between atoms: C_1  and  C_2
REMARK    2  A    between atoms: C_5  and  S_8
REMARK    3  A    between atoms: S_8  and  C_9
REMARK    4  A    between atoms: C_12  and  C_18
REMARK    5  A    between atoms: C_14  and  N_15
REMARK                            x       y       z     vdW  Elec       q    Type
REMARK                         _______ _______ _______ _____ _____    ______ ____
ROOT
ATOM      1  C   UNL     1       0.207  -4.944   1.579  0.00  0.00    +0.043 A 
ATOM      2  C   UNL     1       0.192  -3.928   2.553  0.00  0.00    +0.018 A 
ATOM      3  C   UNL     1       0.318  -4.227   3.868  0.00  0.00    +0.009 A 
ATOM      4  C   UNL     1       0.472  -5.628   4.271  0.00  0.00    -0.021 A 
ATOM      5  C   UNL     1       0.484  -6.662   3.233  0.00  0.00    +0.041 A 
ATOM      6  C   UNL     1       0.348  -6.298   1.935  0.00  0.00    +0.140 A 
ENDROOT
BRANCH   4   7
ATOM      7  C   UNL     1       0.605  -5.970   5.617  0.00  0.00    +0.041 C 
ATOM      8  C   UNL     1       0.465  -4.977   6.617  0.00  0.00    +0.129 C 
ATOM      9  C   UNL     1       0.476  -5.187   8.096  0.00  0.00    +0.268 C 
ATOM     10  O   UNL     1       0.606  -6.238   8.688  0.00  0.00    -0.268 OA
ATOM     11  N   UNL     1       0.311  -3.959   8.635  0.00  0.00    -0.259 N 
ATOM     12  C   UNL     1       0.205  -3.062   7.610  0.00  0.00    +0.172 C 
ATOM     13  S   UNL     1      -0.008  -1.427   7.806  0.00  0.00    -0.014 SA
ATOM     14  N   UNL     1       0.305  -3.679   6.428  0.00  0.00    -0.220 NA
ATOM     15  H   UNL     1       0.273  -3.751   9.582  0.00  0.00    +0.157 HD
ENDBRANCH   4   7
BRANCH   6  16
ATOM     16  N   UNL     1       0.352  -7.336   0.879  0.00  0.00    +0.058 N 
ATOM     17  O   UNL     1       0.483  -8.605   1.204  0.00  0.00    -0.126 OA
ATOM     18  O   UNL     1       0.225  -6.990  -0.385  0.00  0.00    -0.126 OA
ENDBRANCH   6  16
BRANCH   1  19
ATOM     19  S   UNL     1       0.048  -4.537  -0.022  0.00  0.00    -0.087 S 
BRANCH  19  24
ATOM     20  C   UNL     1       0.059   1.500  -0.005  0.00  0.00    +0.044 C 
ATOM     21  C   UNL     1       0.056  -0.006  -0.009  0.00  0.00    -0.050 A 
ATOM     22  C   UNL     1       1.255  -0.698  -0.026  0.00  0.00    +0.004 A 
ATOM     23  C   UNL     1       1.258  -2.078  -0.030  0.00  0.00    +0.015 A 
ATOM     24  C   UNL     1       0.051  -2.775  -0.017  0.00  0.00    +0.013 A 
ATOM     25  C   UNL     1      -1.153  -2.074   0.001  0.00  0.00    +0.015 A 
ATOM     26  C   UNL     1      -1.145  -0.694   0.009  0.00  0.00    +0.004 A 
ENDBRANCH  19  24
ENDBRANCH   1  19
TORSDOF 4
