REMARK  Name = ZINC38519870
REMARK  5 active torsions:
REMARK  status: ('A' for Active; 'I' for Inactive)
REMARK    1  A    between atoms: C_1  and  C_2
REMARK    2  A    between atoms: C_4  and  C_8
REMARK    3  A    between atoms: C_5  and  C_7
REMARK    4  A    between atoms: N_14  and  C_16
REMARK    5  A    between atoms: C_21  and  C_23
REMARK                            x       y       z     vdW  Elec       q    Type
REMARK                         _______ _______ _______ _____ _____    ______ ____
ROOT
ATOM      1  C   UNL     1      -1.364  -3.418  -0.010  0.00  0.00    +0.253 C 
ATOM      2  O   UNL     1      -0.804  -4.497  -0.018  0.00  0.00    -0.270 OA
ATOM      3  N   UNL     1      -2.711  -3.358  -0.004  0.00  0.00    -0.265 N 
ATOM      4  C   UNL     1      -3.464  -4.539  -0.007  0.00  0.00    +0.153 A 
ATOM      5  C   UNL     1      -4.854  -4.622  -0.007  0.00  0.00    +0.045 A 
ATOM      6  C   UNL     1      -5.198  -5.947  -0.018  0.00  0.00    +0.129 A 
ATOM      7  N   UNL     1      -4.059  -6.666  -0.014  0.00  0.00    -0.251 N 
ATOM      8  N   UNL     1      -2.982  -5.764  -0.016  0.00  0.00    -0.154 NA
ATOM      9  C   UNL     1      -3.961  -8.127  -0.013  0.00  0.00    +0.174 C 
ATOM     10  N   UNL     1      -6.529  -6.363  -0.043  0.00  0.00    -0.270 N 
ATOM     11  C   UNL     1      -7.482  -5.431  -0.257  0.00  0.00    +0.219 C 
ATOM     12  O   UNL     1      -8.646  -5.734  -0.096  0.00  0.00    -0.275 OA
ATOM     13  C   UNL     1      -7.147  -4.032  -0.690  0.00  0.00    +0.112 C 
ATOM     14  C   UNL     1      -5.884  -3.521   0.011  0.00  0.00    +0.100 C 
ATOM     15  H   UNL     1      -3.158  -2.498   0.002  0.00  0.00    +0.157 HD
ATOM     16  H   UNL     1      -6.763  -7.295   0.090  0.00  0.00    +0.156 HD
ENDROOT
BRANCH   1  20
ATOM     17  C   UNL     1      -0.018   1.503   0.010  0.00  0.00    +0.086 C 
ATOM     18  C   UNL     1       0.002  -0.004   0.002  0.00  0.00    +0.103 A 
ATOM     19  C   UNL     1      -1.081  -0.797   0.003  0.00  0.00    +0.057 A 
ATOM     20  C   UNL     1      -0.571  -2.176  -0.007  0.00  0.00    +0.078 A 
ATOM     21  C   UNL     1       0.788  -2.066  -0.013  0.00  0.00    +0.114 A 
ATOM     22  O   UNL     1       1.106  -0.767  -0.013  0.00  0.00    -0.464 OA
ATOM     23  C   UNL     1       1.766  -3.212  -0.023  0.00  0.00    +0.087 C 
ENDBRANCH   1  20
BRANCH  14  24
ATOM     24  C   UNL     1      -5.351  -2.315  -0.720  0.00  0.00    +0.113 A 
ATOM     25  C   UNL     1      -5.168  -1.092  -0.191  0.00  0.00    +0.045 A 
ATOM     26  C   UNL     1      -4.655  -0.273  -1.223  0.00  0.00    +0.041 A 
ATOM     27  C   UNL     1      -4.555  -1.044  -2.320  0.00  0.00    +0.195 A 
ATOM     28  O   UNL     1      -4.973  -2.282  -2.008  0.00  0.00    -0.467 OA
ENDBRANCH  14  24
TORSDOF 2
