REMARK  Name = ZINC50175636
REMARK  7 active torsions:
REMARK  status: ('A' for Active; 'I' for Inactive)
REMARK    1  A    between atoms: C_1  and  C_2
REMARK    2  A    between atoms: C_7  and  C_9
REMARK    3  A    between atoms: C_7  and  C_10
REMARK    4  A    between atoms: C_11  and  C_13
REMARK    5  A    between atoms: N_15  and  C_16
REMARK    6  A    between atoms: C_20  and  C_22
REMARK    7  A    between atoms: N_24  and  C_25
REMARK                            x       y       z     vdW  Elec       q    Type
REMARK                         _______ _______ _______ _____ _____    ______ ____
ROOT
ATOM      1  C   UNL     1      -3.110  -2.240  -1.566  0.00  0.00    +0.303 C 
ATOM      2  O   UNL     1      -3.314  -1.044  -1.623  0.00  0.00    -0.265 OA
ATOM      3  N   UNL     1      -3.728  -3.071  -2.428  0.00  0.00    -0.278 N 
ATOM      4  H   UNL     1      -3.641  -4.032  -2.322  0.00  0.00    +0.155 HD
ENDROOT
BRANCH   1  14
ATOM      5  C   UNL     1       0.054   1.496  -0.151  0.00  0.00    +0.039 C 
ATOM      6  C   UNL     1       0.014  -0.032  -0.077  0.00  0.00    +0.133 C 
ATOM      7  C   UNL     1      -1.444  -0.503  -0.025  0.00  0.00    +0.139 C 
ATOM      8  N   UNL     1      -1.455  -1.951   0.234  0.00  0.00    -0.289 N 
ATOM      9  C   UNL     1      -0.656  -2.459   1.361  0.00  0.00    +0.142 C 
ATOM     10  C   UNL     1       0.763  -1.892   1.241  0.00  0.00    +0.080 C 
ATOM     11  O   UNL     1       0.694  -0.471   1.101  0.00  0.00    -0.368 OA
ATOM     12  C   UNL     1       1.562  -2.243   2.498  0.00  0.00    +0.043 C 
ATOM     13  C   UNL     1       1.451  -2.493   0.013  0.00  0.00    +0.043 C 
ATOM     14  C   UNL     1      -2.174  -2.789  -0.539  0.00  0.00    +0.302 C 
ATOM     15  O   UNL     1      -2.062  -3.989  -0.401  0.00  0.00    -0.265 OA
ENDBRANCH   1  14
BRANCH   3  16
ATOM     16  C   UNL     1      -4.494  -2.549  -3.475  0.00  0.00    +0.035 A 
ATOM     17  C   UNL     1      -4.119  -1.356  -4.083  0.00  0.00    +0.026 A 
ATOM     18  C   UNL     1      -4.872  -0.835  -5.117  0.00  0.00    +0.041 A 
ATOM     19  C   UNL     1      -6.005  -1.497  -5.555  0.00  0.00    +0.136 A 
ATOM     20  C   UNL     1      -6.389  -2.697  -4.950  0.00  0.00    +0.074 A 
ATOM     21  C   UNL     1      -5.623  -3.225  -3.909  0.00  0.00    +0.039 A 
ATOM     22  F   UNL     1      -6.739  -0.984  -6.566  0.00  0.00    -0.205 F 
BRANCH  20  23
ATOM     23  C   UNL     1      -7.598  -3.408  -5.415  0.00  0.00    +0.247 C 
ATOM     24  O   UNL     1      -8.261  -2.949  -6.325  0.00  0.00    -0.270 OA
ATOM     25  N   UNL     1      -7.966  -4.565  -4.830  0.00  0.00    -0.314 N 
ATOM     26  C   UNL     1      -9.165  -5.269  -5.291  0.00  0.00    +0.128 C 
ATOM     27  H   UNL     1      -7.438  -4.931  -4.104  0.00  0.00    +0.149 HD
ENDBRANCH  20  23
ENDBRANCH   3  16
TORSDOF 3
