REMARK  Name = ZINC39567353
REMARK  11 active torsions:
REMARK  status: ('A' for Active; 'I' for Inactive)
REMARK    1  A    between atoms: C_1  and  C_2
REMARK    2  A    between atoms: C_12  and  C_14
REMARK    3  A    between atoms: C_14  and  C_16
REMARK    4  A    between atoms: C_14  and  S_17
REMARK    5  A    between atoms: S_17  and  C_18
REMARK    6  A    between atoms: C_21  and  C_30
REMARK    7  A    between atoms: N_22  and  C_23
REMARK    8  A    between atoms: C_30  and  C_32
REMARK    9  A    between atoms: C_30  and  N_33
REMARK   10  A    between atoms: N_33  and  C_34
REMARK   11  A    between atoms: N_33  and  C_35
REMARK                            x       y       z     vdW  Elec       q    Type
REMARK                         _______ _______ _______ _____ _____    ______ ____
ROOT
ATOM      1  C   UNL     1       1.015  -1.810   6.118  0.00  0.00    +0.197 A 
ATOM      2  N   UNL     1       2.318  -1.939   6.028  0.00  0.00    -0.122 NA
ATOM      3  N   UNL     1       2.785  -2.437   7.117  0.00  0.00    -0.135 NA
ATOM      4  C   UNL     1       1.816  -2.655   7.962  0.00  0.00    +0.125 A 
ATOM      5  N   UNL     1       0.653  -2.258   7.358  0.00  0.00    -0.275 N 
ENDROOT
BRANCH   5   6
ATOM      6  C   UNL     1      -0.641  -2.303   7.899  0.00  0.00    +0.050 A 
ATOM      7  C   UNL     1      -0.965  -1.514   8.994  0.00  0.00    +0.028 A 
ATOM      8  C   UNL     1      -2.240  -1.560   9.524  0.00  0.00    +0.022 A 
ATOM      9  C   UNL     1      -3.193  -2.393   8.965  0.00  0.00    +0.041 A 
ATOM     10  C   UNL     1      -2.872  -3.181   7.874  0.00  0.00    +0.022 A 
ATOM     11  C   UNL     1      -1.600  -3.134   7.336  0.00  0.00    +0.028 A 
ATOM     12 CL   UNL     1      -4.794  -2.450   9.634  0.00  0.00    -0.084 Cl
ENDBRANCH   5   6
BRANCH   4  13
ATOM     13  C   UNL     1       1.953  -3.232   9.347  0.00  0.00    -0.003 C 
ATOM     14  C   UNL     1       2.205  -4.737   9.251  0.00  0.00    -0.005 C 
BRANCH  13  15
ATOM     15  N   UNL     1       3.079  -2.589  10.037  0.00  0.00    +0.382 N 
ATOM     16  C   UNL     1       2.837  -1.143  10.130  0.00  0.00    -0.096 C 
ATOM     17  C   UNL     1       3.212  -3.151  11.387  0.00  0.00    -0.096 C 
ATOM     18  H   UNL     1       3.929  -2.755   9.518  0.00  0.00    -0.082 HD
ENDBRANCH  13  15
ENDBRANCH   4  13
BRANCH   1  19
ATOM     19  S   UNL     1      -0.063  -1.173   4.878  0.00  0.00    -0.073 S 
BRANCH  19  20
ATOM     20  C   UNL     1       1.045  -0.768   3.499  0.00  0.00    +0.137 C 
ATOM     21  C   UNL     1       1.992   0.358   3.920  0.00  0.00    +0.029 C 
BRANCH  20  32
ATOM     22  C   UNL     1       1.861  -2.647   1.158  0.00  0.00    +0.029 C 
ATOM     23  C   UNL     1       1.952  -1.182   0.727  0.00  0.00    +0.083 C 
ATOM     24  C   UNL     1       2.069  -1.083  -0.803  0.00  0.00    +0.059 C 
ATOM     25  C   UNL     1       0.847  -0.301  -1.229  0.00  0.00    -0.024 A 
ATOM     26  C   UNL     1       0.416   0.096  -2.480  0.00  0.00    +0.005 A 
ATOM     27  C   UNL     1      -0.757   0.816  -2.615  0.00  0.00    +0.000 A 
ATOM     28  C   UNL     1      -1.499   1.137  -1.493  0.00  0.00    +0.002 A 
ATOM     29  C   UNL     1      -1.073   0.743  -0.243  0.00  0.00    +0.024 A 
ATOM     30  C   UNL     1       0.110   0.015  -0.099  0.00  0.00    +0.040 A 
ATOM     31  N   UNL     1       0.714  -0.475   1.066  0.00  0.00    -0.267 N 
ATOM     32  C   UNL     1       0.229  -0.321   2.314  0.00  0.00    +0.233 C 
ATOM     33  O   UNL     1      -0.864   0.176   2.482  0.00  0.00    -0.274 OA
ENDBRANCH  20  32
ENDBRANCH  19  20
ENDBRANCH   1  19
TORSDOF 6
