REMARK  Name = ZINC39549600
REMARK  9 active torsions:
REMARK  status: ('A' for Active; 'I' for Inactive)
REMARK    1  A    between atoms: C_7  and  C_23
REMARK    2  A    between atoms: C_9  and  O_14
REMARK    3  A    between atoms: O_14  and  C_15
REMARK    4  A    between atoms: C_15  and  C_17
REMARK    5  A    between atoms: C_17  and  C_18
REMARK    6  A    between atoms: C_18  and  C_19
REMARK    7  A    between atoms: C_19  and  C_20
REMARK    8  A    between atoms: C_20  and  C_21
REMARK    9  A    between atoms: C_21  and  N_22
REMARK                            x       y       z     vdW  Elec       q    Type
REMARK                         _______ _______ _______ _____ _____    ______ ____
ROOT
ATOM      1  C   UNL     1       0.148   1.413   0.237  0.00  0.00    +0.001 A 
ATOM      2  C   UNL     1       1.368   2.069   0.225  0.00  0.00    +0.002 A 
ATOM      3  C   UNL     1       2.538   1.349   0.133  0.00  0.00    +0.024 A 
ATOM      4  C   UNL     1       2.513  -0.044   0.051  0.00  0.00    +0.043 A 
ATOM      5  C   UNL     1       1.288  -0.707   0.062  0.00  0.00    +0.022 A 
ATOM      6  C   UNL     1       0.103   0.040   0.157  0.00  0.00    +0.012 A 
ATOM      7  C   UNL     1       1.166  -2.171  -0.024  0.00  0.00    +0.080 C 
ATOM      8  N   UNL     1       1.877  -2.925  -0.785  0.00  0.00    -0.232 NA
ATOM      9  C   UNL     1       2.914  -2.380  -1.661  0.00  0.00    +0.381 C 
ATOM     10  C   UNL     1       3.985  -1.748  -0.814  0.00  0.00    +0.281 C 
ATOM     11  O   UNL     1       5.107  -2.206  -0.841  0.00  0.00    -0.269 OA
ATOM     12  N   UNL     1       3.732  -0.699  -0.034  0.00  0.00    -0.280 N 
ATOM     13  H   UNL     1       4.458  -0.367   0.516  0.00  0.00    +0.155 HD
ENDROOT
BRANCH   7  14
ATOM     14  C   UNL     1       0.148  -2.825   0.830  0.00  0.00    +0.019 A 
ATOM     15  C   UNL     1      -0.944  -3.471   0.249  0.00  0.00    +0.011 A 
ATOM     16  C   UNL     1      -1.889  -4.078   1.050  0.00  0.00    +0.001 A 
ATOM     17  C   UNL     1      -1.756  -4.048   2.427  0.00  0.00    +0.001 A 
ATOM     18  C   UNL     1      -0.677  -3.410   3.010  0.00  0.00    +0.020 A 
ATOM     19  C   UNL     1       0.280  -2.803   2.220  0.00  0.00    +0.050 A 
ATOM     20 CL   UNL     1       1.638  -2.008   2.952  0.00  0.00    -0.083 Cl
ENDBRANCH   7  14
BRANCH   9  21
ATOM     21  O   UNL     1       2.342  -1.397  -2.525  0.00  0.00    -0.430 OA
BRANCH  21  22
ATOM     22  C   UNL     1       1.509  -1.837  -3.482  0.00  0.00    +0.309 C 
ATOM     23  O   UNL     1       1.274  -3.017  -3.582  0.00  0.00    -0.251 OA
BRANCH  22  24
ATOM     24  C   UNL     1       0.868  -0.858  -4.431  0.00  0.00    +0.121 C 
BRANCH  24  25
ATOM     25  C   UNL     1      -0.028  -1.613  -5.414  0.00  0.00    +0.011 C 
BRANCH  25  26
ATOM     26  C   UNL     1      -0.680  -0.619  -6.378  0.00  0.00    -0.001 C 
BRANCH  26  27
ATOM     27  C   UNL     1      -1.575  -1.375  -7.362  0.00  0.00    -0.020 C 
BRANCH  27  28
ATOM     28  C   UNL     1      -2.227  -0.381  -8.325  0.00  0.00    -0.086 C 
BRANCH  28  29
ATOM     29  N   UNL     1      -3.087  -1.106  -9.270  0.00  0.00    +0.378 N 
ATOM     30  H   UNL     1      -2.531  -1.766  -9.792  0.00  0.00    -0.090 HD
ATOM     31  H   UNL     1      -3.804  -1.600  -8.760  0.00  0.00    -0.090 HD
ATOM     32  H   UNL     1      -3.517  -0.451  -9.905  0.00  0.00    -0.090 HD
ENDBRANCH  28  29
ENDBRANCH  27  28
ENDBRANCH  26  27
ENDBRANCH  25  26
ENDBRANCH  24  25
ENDBRANCH  22  24
ENDBRANCH  21  22
ENDBRANCH   9  21
TORSDOF 9
