REMARK  Name = ZINC62946129
REMARK  1 active torsions:
REMARK  status: ('A' for Active; 'I' for Inactive)
REMARK    1  A    between atoms: CA_16  and  C_18
REMARK                            x       y       z     vdW  Elec       q    Type
REMARK                         _______ _______ _______ _____ _____    ______ ____
ROOT
ATOM      1  C   UNL     1      -0.017   1.373   0.010  0.00  0.00    +0.000 A 
ATOM      2  C   UNL     1       1.172   2.079   0.002  0.00  0.00    +0.000 A 
ATOM      3  C   UNL     1       2.368   1.392   0.011  0.00  0.00    +0.005 A 
ATOM      4  C   UNL     1       2.385   0.004   0.013  0.00  0.00    -0.027 A 
ATOM      5  C   UNL     1       1.208  -0.705  -0.020  0.00  0.00    -0.043 A 
ATOM      6  C   UNL     1       0.002  -0.004   0.002  0.00  0.00    +0.004 A 
ATOM      7  C   UNL     1       1.094  -2.206  -0.141  0.00  0.00    +0.037 C 
ATOM      8  C   UNL     1       2.265  -2.942   0.503  0.00  0.00    +0.024 C 
ATOM      9  C   UNL     1       3.397  -3.075  -0.531  0.00  0.00    +0.107 C 
ATOM     10  N   UNL     1       3.813  -1.740  -0.925  0.00  0.00    -0.312 N 
ATOM     11  C   UNL     1       3.719  -0.684   0.087  0.00  0.00    +0.141 C 
ATOM     12  C   UNL     1       4.280  -1.476  -2.207  0.00  0.00    +0.100 A 
ATOM     13  C   UNL     1       4.348  -2.509  -3.143  0.00  0.00    +0.042 A 
ATOM     14  C   UNL     1       4.814  -2.238  -4.416  0.00  0.00    +0.006 A 
ATOM     15  C   UNL     1       5.199  -0.939  -4.720  0.00  0.00    +0.033 A 
ATOM     16  CA  UNL     1       5.106   0.045  -3.740  0.00  0.00    +0.130 A 
ATOM     17  N   UNL     1       4.648  -0.249  -2.527  0.00  0.00    -0.338 N 
ATOM     18  H   UNL     1       4.588   0.453  -1.860  0.00  0.00    +0.167 HD
ENDROOT
BRANCH  16  19
ATOM     19  C   UNL     1       5.514   1.431  -4.053  0.00  0.00    +0.402 C 
ATOM     20  O   UNL     1       5.434   2.300  -3.196  0.00  0.00    -0.239 OA
ATOM     21  OXT UNL     1       5.931   1.709  -5.168  0.00  0.00    -0.239 OA
ENDBRANCH  16  19
TORSDOF 1
