REMARK  Name = ZINC04724044
REMARK  6 active torsions:
REMARK  status: ('A' for Active; 'I' for Inactive)
REMARK    1  A    between atoms: C_1  and  C_2
REMARK    2  A    between atoms: C_7  and  N_8
REMARK    3  A    between atoms: C_9  and  C_11
REMARK    4  A    between atoms: C_12  and  C_28
REMARK    5  A    between atoms: C_19  and  C_21
REMARK    6  A    between atoms: C_24  and  O_27
REMARK                            x       y       z     vdW  Elec       q    Type
REMARK                         _______ _______ _______ _____ _____    ______ ____
ROOT
ATOM      1  C   UNL     1       0.078  -0.181   4.907  0.00  0.00    +0.060 C 
ATOM      2  C   UNL     1       0.160  -0.972   5.987  0.00  0.00    +0.018 C 
ATOM      3  N   UNL     1       0.191  -0.468   7.264  0.00  0.00    -0.287 N 
ATOM      4  C   UNL     1       0.400   0.898   7.406  0.00  0.00    +0.218 A 
ATOM      5  N   UNL     1       0.689   1.599   8.468  0.00  0.00    -0.201 NA
ATOM      6  C   UNL     1       0.806   2.888   8.134  0.00  0.00    +0.247 A 
ATOM      7  N   UNL     1       0.589   3.022   6.849  0.00  0.00    -0.156 NA
ATOM      8  N   UNL     1       0.320   1.747   6.352  0.00  0.00    -0.221 N 
ATOM      9  C   UNL     1       0.008   1.321   4.992  0.00  0.00    +0.177 C 
ATOM     10  C   UNL     1       0.219  -2.465   5.792  0.00  0.00    +0.061 C 
ATOM     11  H   UNL     1       0.072  -1.042   8.036  0.00  0.00    +0.155 HD
ENDROOT
BRANCH   9  12
ATOM     12  C   UNL     1      -1.382   1.779   4.633  0.00  0.00    -0.018 A 
ATOM     13  C   UNL     1      -2.464   1.355   5.383  0.00  0.00    +0.009 A 
ATOM     14  C   UNL     1      -3.739   1.774   5.056  0.00  0.00    +0.046 A 
ATOM     15  C   UNL     1      -3.934   2.621   3.975  0.00  0.00    +0.117 A 
ATOM     16  C   UNL     1      -2.847   3.045   3.224  0.00  0.00    +0.046 A 
ATOM     17  C   UNL     1      -1.573   2.628   3.559  0.00  0.00    +0.009 A 
BRANCH  15  18
ATOM     18  O   UNL     1      -5.188   3.034   3.651  0.00  0.00    -0.507 OA
ATOM     19  H   UNL     1      -5.457   3.853   4.088  0.00  0.00    +0.292 HD
ENDBRANCH  15  18
ENDBRANCH   9  12
BRANCH   1  21
ATOM     20  N   UNL     1      -1.096  -1.232   3.107  0.00  0.00    -0.281 N 
ATOM     21  C   UNL     1       0.064  -0.785   3.628  0.00  0.00    +0.248 C 
ATOM     22  O   UNL     1       1.099  -0.901   2.998  0.00  0.00    -0.270 OA
ATOM     23  H   UNL     1      -1.932  -1.068   3.572  0.00  0.00    +0.155 HD
BRANCH  20  30
ATOM     24  C   UNL     1      -3.476  -1.224   1.548  0.00  0.00    +0.045 C 
ATOM     25  C   UNL     1      -2.235  -1.956   1.105  0.00  0.00    -0.029 A 
ATOM     26  C   UNL     1      -2.229  -2.644  -0.092  0.00  0.00    +0.005 A 
ATOM     27  C   UNL     1      -1.091  -3.316  -0.499  0.00  0.00    +0.000 A 
ATOM     28  C   UNL     1       0.044  -3.301   0.291  0.00  0.00    +0.002 A 
ATOM     29  C   UNL     1       0.044  -2.615   1.489  0.00  0.00    +0.023 A 
ATOM     30  C   UNL     1      -1.095  -1.933   1.898  0.00  0.00    +0.037 A 
ENDBRANCH  20  30
ENDBRANCH   1  21
TORSDOF 4
