REMARK  Name = ZINC19928340
REMARK  6 active torsions:
REMARK  status: ('A' for Active; 'I' for Inactive)
REMARK    1  A    between atoms: C_1  and  O_2
REMARK    2  A    between atoms: O_2  and  C_3
REMARK    3  A    between atoms: C_6  and  C_9
REMARK    4  A    between atoms: C_15  and  O_27
REMARK    5  A    between atoms: C_20  and  C_22
REMARK    6  A    between atoms: O_27  and  C_28
REMARK                            x       y       z     vdW  Elec       q    Type
REMARK                         _______ _______ _______ _____ _____    ______ ____
ROOT
ATOM      1  C   UNL     1       4.194   2.981   2.271  0.00  0.00    +0.172 C 
ATOM      2  C   UNL     1       4.327   1.773   1.377  0.00  0.00    +0.026 C 
ATOM      3  C   UNL     1       4.919   0.647   1.781  0.00  0.00    +0.050 C 
ATOM      4  C   UNL     1       5.017  -0.481   0.825  0.00  0.00    +0.042 A 
ATOM      5  C   UNL     1       5.299  -1.773   1.253  0.00  0.00    +0.059 A 
ATOM      6  C   UNL     1       5.383  -2.797   0.322  0.00  0.00    +0.121 A 
ATOM      7  C   UNL     1       5.187  -2.532  -1.027  0.00  0.00    +0.049 A 
ATOM      8  C   UNL     1       4.906  -1.248  -1.456  0.00  0.00    +0.050 A 
ATOM      9  C   UNL     1       4.819  -0.219  -0.537  0.00  0.00    +0.131 A 
ATOM     10  O   UNL     1       4.539   1.054  -0.920  0.00  0.00    -0.479 OA
ATOM     11  C   UNL     1       3.761   1.845  -0.023  0.00  0.00    +0.241 C 
ATOM     12  N   UNL     1       5.459   0.508   3.065  0.00  0.00    -0.283 N 
ATOM     13  C   UNL     1       5.621   1.661   3.816  0.00  0.00    +0.219 A 
ATOM     14  N   UNL     1       5.039   2.831   3.449  0.00  0.00    -0.221 N 
ATOM     15  N   UNL     1       5.417   3.775   4.403  0.00  0.00    -0.156 NA
ATOM     16  C   UNL     1       6.176   3.154   5.272  0.00  0.00    +0.247 A 
ATOM     17  N   UNL     1       6.296   1.871   4.912  0.00  0.00    -0.201 NA
ATOM     18  H   UNL     1       5.736  -0.489   3.439  0.00  0.00    +0.155 HD
ENDROOT
BRANCH   1  22
ATOM     19  C   UNL     1       0.120   3.394   3.495  0.00  0.00    +0.120 A 
ATOM     20  C   UNL     1       0.738   4.410   2.781  0.00  0.00    +0.046 A 
ATOM     21  C   UNL     1       2.054   4.274   2.386  0.00  0.00    +0.009 A 
ATOM     22  C   UNL     1       2.757   3.126   2.702  0.00  0.00    -0.019 A 
ATOM     23  C   UNL     1       2.142   2.109   3.409  0.00  0.00    +0.009 A 
ATOM     24  C   UNL     1       0.827   2.243   3.811  0.00  0.00    +0.046 A 
BRANCH  19  26
ATOM     25  C   UNL     1      -1.746   2.439   4.616  0.00  0.00    +0.277 C 
ATOM     26  O   UNL     1      -1.175   3.525   3.884  0.00  0.00    -0.495 OA
ENDBRANCH  19  26
ENDBRANCH   1  22
BRANCH  11  27
ATOM     27  C   UNL     1       2.343   1.336  -0.013  0.00  0.00    +0.034 A 
ATOM     28  C   UNL     1       1.183   2.038   0.002  0.00  0.00    +0.015 A 
ATOM     29  C   UNL     1      -0.016   1.351   0.009  0.00  0.00    +0.008 A 
ATOM     30  C   UNL     1       0.002  -0.004   0.002  0.00  0.00    +0.045 A 
ATOM     31  S   UNL     1       1.754  -0.349  -0.017  0.00  0.00    -0.098 S 
ENDBRANCH  11  27
BRANCH   6  32
ATOM     32  O   UNL     1       5.658  -4.064   0.732  0.00  0.00    -0.495 OA
ATOM     33  C   UNL     1       5.730  -5.071  -0.280  0.00  0.00    +0.277 C 
ENDBRANCH   6  32
TORSDOF 4
