REMARK  Name = ZINC32664994
REMARK  5 active torsions:
REMARK  status: ('A' for Active; 'I' for Inactive)
REMARK    1  A    between atoms: C_1  and  C_2
REMARK    2  A    between atoms: C_7  and  C_11
REMARK    3  A    between atoms: C_11  and  N_12
REMARK    4  A    between atoms: N_15  and  S_18
REMARK    5  A    between atoms: S_18  and  C_21
REMARK                            x       y       z     vdW  Elec       q    Type
REMARK                         _______ _______ _______ _____ _____    ______ ____
ROOT
ATOM      1  N   UNL     1      -2.981   2.994  -2.793  0.00  0.00    -0.294 NA
ATOM      2  C   UNL     1      -2.076   3.886  -2.056  0.00  0.00    +0.102 C 
ATOM      3  C   UNL     1      -0.706   3.213  -1.915  0.00  0.00    +0.125 C 
ATOM      4  N   UNL     1      -0.897   1.885  -1.312  0.00  0.00    -0.174 NA
ATOM      5  C   UNL     1      -1.887   0.982  -1.919  0.00  0.00    +0.125 C 
ATOM      6  C   UNL     1      -3.215   1.745  -2.057  0.00  0.00    +0.102 C 
ENDROOT
BRANCH   4   7
ATOM      7  S   UNL     1      -0.017   1.417   0.010  0.00  0.00    +0.061 S 
ATOM      8  O   UNL     1       0.002  -0.004   0.002  0.00  0.00    -0.153 OA
ATOM      9  O   UNL     1       1.172   2.195   0.003  0.00  0.00    -0.153 OA
BRANCH   7  10
ATOM     10  C   UNL     1      -0.927   1.900   1.439  0.00  0.00    +0.109 A 
ATOM     11  C   UNL     1      -0.715   3.145   2.002  0.00  0.00    +0.032 A 
ATOM     12  C   UNL     1      -1.429   3.534   3.122  0.00  0.00    +0.051 A 
ATOM     13  C   UNL     1      -2.350   2.666   3.683  0.00  0.00    +0.162 A 
ATOM     14  C   UNL     1      -2.559   1.414   3.122  0.00  0.00    +0.164 A 
ATOM     15  C   UNL     1      -1.846   1.030   1.998  0.00  0.00    +0.078 A 
ATOM     16  O   UNL     1      -3.469   0.567   3.683  0.00  0.00    -0.488 OA
ATOM     17  C   UNL     1      -3.130   0.048   4.970  0.00  0.00    +0.232 C 
ATOM     18  C   UNL     1      -3.529   1.024   6.067  0.00  0.00    +0.082 C 
ATOM     19  C   UNL     1      -2.750   2.328   5.993  0.00  0.00    +0.232 C 
ATOM     20  O   UNL     1      -3.058   3.035   4.790  0.00  0.00    -0.488 OA
ENDBRANCH   7  10
ENDBRANCH   4   7
BRANCH   1  21
ATOM     21  C   UNL     1      -4.250   3.669  -3.100  0.00  0.00    +0.139 C 
BRANCH  21  28
ATOM     22  C   UNL     1      -9.532  -1.337  -4.386  0.00  0.00    +0.045 C 
ATOM     23  C   UNL     1      -8.392  -0.378  -4.610  0.00  0.00    -0.034 A 
ATOM     24  C   UNL     1      -7.858  -0.215  -5.899  0.00  0.00    +0.008 A 
ATOM     25  C   UNL     1      -6.829   0.652  -6.098  0.00  0.00    +0.045 A 
ATOM     26  C   UNL     1      -6.314   1.375  -5.003  0.00  0.00    +0.115 A 
ATOM     27  N   UNL     1      -5.339   2.266  -4.902  0.00  0.00    -0.342 N 
ATOM     28  C   UNL     1      -5.238   2.663  -3.631  0.00  0.00    +0.048 A 
ATOM     29  C   UNL     1      -6.166   2.009  -2.900  0.00  0.00    +0.115 A 
ATOM     30  N   UNL     1      -6.856   1.195  -3.757  0.00  0.00    -0.308 N 
ATOM     31  C   UNL     1      -7.889   0.322  -3.572  0.00  0.00    +0.096 A 
ATOM     32  H   UNL     1      -4.766   2.559  -5.795  0.00  0.00    +0.167 HD
ENDBRANCH  21  28
ENDBRANCH   1  21
TORSDOF 4
