REMARK  Name = ZINC41586184
REMARK  9 active torsions:
REMARK  status: ('A' for Active; 'I' for Inactive)
REMARK    1  A    between atoms: C_1  and  C_2
REMARK    2  A    between atoms: C_2  and  O_3
REMARK    3  A    between atoms: O_3  and  C_4
REMARK    4  A    between atoms: C_4  and  C_6
REMARK    5  A    between atoms: N_9  and  C_12
REMARK    6  A    between atoms: C_12  and  C_13
REMARK    7  A    between atoms: C_14  and  O_32
REMARK    8  A    between atoms: C_16  and  C_31
REMARK    9  A    between atoms: C_21  and  C_22
REMARK                            x       y       z     vdW  Elec       q    Type
REMARK                         _______ _______ _______ _____ _____    ______ ____
ROOT
ATOM      1  C   UNL     1       1.669  -6.103  -6.027  0.00  0.00    +0.020 A 
ATOM      2  C   UNL     1       2.751  -6.894  -5.672  0.00  0.00    +0.122 A 
ATOM      3  C   UNL     1       2.756  -8.257  -5.956  0.00  0.00    +0.050 A 
ATOM      4  C   UNL     1       1.690  -8.829  -6.590  0.00  0.00    -0.033 A 
ATOM      5  C   UNL     1       0.594  -8.046  -6.953  0.00  0.00    +0.071 A 
ATOM      6  C   UNL     1       0.575  -6.671  -6.667  0.00  0.00    +0.145 A 
ATOM      7  O   UNL     1      -0.583  -6.130  -7.104  0.00  0.00    -0.451 OA
ATOM      8  C   UNL     1      -1.386  -7.055  -7.680  0.00  0.00    +0.176 C 
ATOM      9  C   UNL     1      -2.611  -6.831  -8.216  0.00  0.00    +0.058 C 
ATOM     10  C   UNL     1      -0.681  -8.347  -7.631  0.00  0.00    +0.232 C 
ATOM     11  O   UNL     1      -1.069  -9.425  -8.045  0.00  0.00    -0.283 OA
ATOM     12  C   UNL     1       1.698 -10.305  -6.898  0.00  0.00    +0.045 C 
ENDROOT
BRANCH   9  13
ATOM     13  C   UNL     1      -3.440  -7.964  -8.653  0.00  0.00    -0.019 A 
ATOM     14  C   UNL     1      -3.489  -9.136  -7.889  0.00  0.00    +0.008 A 
ATOM     15  C   UNL     1      -4.269 -10.194  -8.305  0.00  0.00    +0.003 A 
ATOM     16  C   UNL     1      -5.003 -10.101  -9.474  0.00  0.00    +0.038 A 
ATOM     17  C   UNL     1      -4.961  -8.944 -10.237  0.00  0.00    +0.124 A 
ATOM     18  C   UNL     1      -4.189  -7.873  -9.831  0.00  0.00    +0.046 A 
ATOM     19  F   UNL     1      -5.680  -8.863 -11.378  0.00  0.00    -0.205 F 
ENDBRANCH   9  13
BRANCH   2  20
ATOM     20  O   UNL     1       3.815  -6.334  -5.042  0.00  0.00    -0.506 OA
ATOM     21  H   UNL     1       3.747  -6.336  -4.078  0.00  0.00    +0.292 HD
ENDBRANCH   2  20
BRANCH   1  22
ATOM     22  C   UNL     1       1.678  -4.629  -5.714  0.00  0.00    -0.036 C 
BRANCH  22  26
ATOM     23  C   UNL     1       1.147  -3.388  -1.673  0.00  0.00    +0.094 C 
ATOM     24  C   UNL     1       0.316  -2.729  -2.778  0.00  0.00    -0.004 C 
ATOM     25  C   UNL     1       0.996  -2.966  -4.128  0.00  0.00    -0.078 C 
ATOM     26  N   UNL     1       1.097  -4.408  -4.383  0.00  0.00    +0.383 N 
ATOM     27  C   UNL     1       1.951  -5.035  -3.367  0.00  0.00    -0.078 C 
ATOM     28  C   UNL     1       1.308  -4.878  -1.988  0.00  0.00    -0.004 C 
ATOM     29  H   UNL     1       0.176  -4.820  -4.348  0.00  0.00    -0.081 HD
BRANCH  23  30
ATOM     30  C   UNL     1       0.443  -3.225  -0.350  0.00  0.00    +0.310 C 
ATOM     31  O   UNL     1       0.105  -4.201   0.278  0.00  0.00    -0.251 OA
BRANCH  30  32
ATOM     32  O   UNL     1       0.192  -1.998   0.131  0.00  0.00    -0.465 OA
BRANCH  32  34
ATOM     33  C   UNL     1      -0.675  -0.450   1.772  0.00  0.00    +0.048 C 
ATOM     34  C   UNL     1      -0.478  -1.919   1.391  0.00  0.00    +0.229 C 
ENDBRANCH  32  34
ENDBRANCH  30  32
ENDBRANCH  23  30
ENDBRANCH  22  26
ENDBRANCH   1  22
TORSDOF 7
