REMARK  Name = ZINC39030398
REMARK  6 active torsions:
REMARK  status: ('A' for Active; 'I' for Inactive)
REMARK    1  A    between atoms: C_1  and  C_2
REMARK    2  A    between atoms: C_2  and  O_3
REMARK    3  A    between atoms: O_3  and  C_4
REMARK    4  A    between atoms: C_4  and  C_6
REMARK    5  A    between atoms: C_8  and  N_16
REMARK    6  A    between atoms: C_17  and  C_19
REMARK                            x       y       z     vdW  Elec       q    Type
REMARK                         _______ _______ _______ _____ _____    ______ ____
ROOT
ATOM      1  C   UNL     1       3.430  -3.727  -2.642  0.00  0.00    +0.234 C 
ATOM      2  C   UNL     1       3.061  -2.311  -2.261  0.00  0.00    +0.053 C 
ATOM      3  C   UNL     1       1.678  -2.278  -2.230  0.00  0.00    +0.018 A 
ATOM      4  C   UNL     1       0.753  -1.246  -1.942  0.00  0.00    +0.011 A 
ATOM      5  C   UNL     1      -0.578  -1.504  -1.988  0.00  0.00    +0.001 A 
ATOM      6  C   UNL     1      -1.067  -2.772  -2.315  0.00  0.00    +0.002 A 
ATOM      7  C   UNL     1      -0.241  -3.806  -2.603  0.00  0.00    +0.026 A 
ATOM      8  C   UNL     1       1.165  -3.615  -2.575  0.00  0.00    +0.045 A 
ATOM      9  N   UNL     1       2.163  -4.445  -2.810  0.00  0.00    -0.367 N 
ATOM     10  H   UNL     1       2.074  -5.380  -3.055  0.00  0.00    +0.161 HD
ENDROOT
BRANCH   2  11
ATOM     11  N   UNL     1       3.914  -1.280  -2.003  0.00  0.00    -0.286 N 
ATOM     12  C   UNL     1       5.242  -1.503  -1.941  0.00  0.00    +0.223 C 
ATOM     13  O   UNL     1       5.686  -2.596  -2.218  0.00  0.00    -0.275 OA
ATOM     14  H   UNL     1       3.565  -0.386  -1.863  0.00  0.00    +0.155 HD
BRANCH  12  15
ATOM     15  C   UNL     1       6.174  -0.393  -1.528  0.00  0.00    +0.049 C 
ATOM     16  C   UNL     1       5.812   0.078  -0.118  0.00  0.00    +0.019 C 
ATOM     17  C   UNL     1       6.758   1.205   0.302  0.00  0.00    -0.008 C 
ATOM     18  C   UNL     1       8.200   0.691   0.290  0.00  0.00    +0.007 C 
ATOM     19  C   UNL     1       8.561   0.220  -1.120  0.00  0.00    -0.008 C 
ATOM     20  C   UNL     1       7.615  -0.907  -1.540  0.00  0.00    +0.019 C 
ATOM     21  C   UNL     1       8.428   1.389  -2.099  0.00  0.00    +0.026 C 
ATOM     22  C   UNL     1       6.987   1.902  -2.086  0.00  0.00    +0.047 C 
ATOM     23  C   UNL     1       6.625   2.374  -0.676  0.00  0.00    +0.026 C 
ATOM     24  C   UNL     1       6.040   0.776  -2.506  0.00  0.00    +0.039 C 
ATOM     25 CL   UNL     1       6.830   3.280  -3.239  0.00  0.00    -0.118 Cl
ENDBRANCH  12  15
ENDBRANCH   2  11
BRANCH   1  26
ATOM     26  C   UNL     1       4.205  -3.732  -3.934  0.00  0.00    +0.336 C 
ATOM     27  O   UNL     1       3.632  -3.554  -4.983  0.00  0.00    -0.248 OA
BRANCH  26  28
ATOM     28  O   UNL     1       5.532  -3.935  -3.920  0.00  0.00    -0.463 OA
BRANCH  28  30
ATOM     29  C   UNL     1       7.697  -4.173  -4.967  0.00  0.00    +0.048 C 
ATOM     30  C   UNL     1       6.203  -3.927  -5.182  0.00  0.00    +0.229 C 
ENDBRANCH  28  30
ENDBRANCH  26  28
ENDBRANCH   1  26
TORSDOF 5
