REMARK  Name = ZINC67218530
REMARK  9 active torsions:
REMARK  status: ('A' for Active; 'I' for Inactive)
REMARK    1  A    between atoms: C_1  and  C_2
REMARK    2  A    between atoms: C_2  and  C_3
REMARK    3  A    between atoms: C_2  and  C_4
REMARK    4  A    between atoms: C_7  and  C_13
REMARK    5  A    between atoms: C_9  and  N_10
REMARK    6  A    between atoms: C_13  and  N_14
REMARK    7  A    between atoms: N_14  and  C_15
REMARK    8  A    between atoms: C_15  and  C_16
REMARK    9  A    between atoms: C_16  and  N_21
REMARK                            x       y       z     vdW  Elec       q    Type
REMARK                         _______ _______ _______ _____ _____    ______ ____
ROOT
ATOM      1  N   UNL     1       3.838  -0.067  -5.086  0.00  0.00    +0.383 N 
ATOM      2  H   UNL     1       3.081   0.594  -5.179  0.00  0.00    -0.085 HD
ATOM      3  H   UNL     1       4.429   0.206  -4.315  0.00  0.00    -0.085 HD
ENDROOT
BRANCH   1   4
ATOM      4  C   UNL     1       3.291  -1.407  -4.835  0.00  0.00    -0.047 C 
BRANCH   4   8
ATOM      5  C   UNL     1       0.997  -1.358  -1.232  0.00  0.00    -0.015 A 
ATOM      6  C   UNL     1       0.388  -1.083  -2.442  0.00  0.00    +0.006 A 
ATOM      7  C   UNL     1       1.131  -1.098  -3.608  0.00  0.00    +0.002 A 
ATOM      8  C   UNL     1       2.482  -1.389  -3.563  0.00  0.00    -0.062 A 
ATOM      9  C   UNL     1       3.090  -1.663  -2.353  0.00  0.00    +0.034 A 
ATOM     10  C   UNL     1       2.348  -1.643  -1.186  0.00  0.00    +0.130 A 
BRANCH   5  12
ATOM     11  C   UNL     1      -0.267   0.090   0.336  0.00  0.00    +0.012 C 
ATOM     12  C   UNL     1       0.187  -1.341   0.040  0.00  0.00    +0.015 C 
ATOM     13  C   UNL     1      -1.038  -2.242  -0.124  0.00  0.00    +0.012 C 
ENDBRANCH   5  12
BRANCH  10  14
ATOM     14  N   UNL     1       3.001  -1.932   0.111  0.00  0.00    +0.057 N 
ATOM     15  O   UNL     1       2.720  -1.277   1.087  0.00  0.00    -0.126 OA
ATOM     16  O   UNL     1       3.815  -2.822   0.193  0.00  0.00    -0.126 OA
ENDBRANCH  10  14
ENDBRANCH   4   8
ENDBRANCH   1   4
BRANCH   1  17
ATOM     17  C   UNL     1       4.627  -0.084  -6.325  0.00  0.00    -0.059 C 
BRANCH  17  18
ATOM     18  C   UNL     1       5.298   1.277  -6.521  0.00  0.00    +0.017 C 
ATOM     19  C   UNL     1       4.212   2.344  -6.656  0.00  0.00    +0.032 C 
ATOM     20  C   UNL     1       4.725   3.529  -7.520  0.00  0.00    +0.071 C 
ATOM     21  S   UNL     1       5.665   2.590  -8.803  0.00  0.00    -0.159 S 
ATOM     22  C   UNL     1       6.232   1.194  -7.744  0.00  0.00    +0.089 C 
BRANCH  18  23
ATOM     23  N   UNL     1       6.105   1.578  -5.332  0.00  0.00    -0.293 NA
ATOM     24  C   UNL     1       6.711   2.914  -5.430  0.00  0.00    +0.113 C 
ATOM     25  C   UNL     1       7.492   3.210  -4.147  0.00  0.00    +0.175 C 
ATOM     26  O   UNL     1       8.469   2.186  -3.943  0.00  0.00    -0.377 OA
ATOM     27  C   UNL     1       7.914   0.872  -3.841  0.00  0.00    +0.175 C 
ATOM     28  C   UNL     1       7.137   0.552  -5.121  0.00  0.00    +0.113 C 
ENDBRANCH  18  23
ENDBRANCH  17  18
ENDBRANCH   1  17
TORSDOF 7
