REMARK  Name = ZINC05006886
REMARK  8 active torsions:
REMARK  status: ('A' for Active; 'I' for Inactive)
REMARK    1  A    between atoms: C_1  and  C_2
REMARK    2  A    between atoms: C_8  and  C_24
REMARK    3  A    between atoms: C_10  and  N_12
REMARK    4  A    between atoms: N_12  and  N_13
REMARK    5  A    between atoms: C_14  and  C_15
REMARK    6  A    between atoms: C_18  and  N_21
REMARK    7  A    between atoms: N_21  and  C_22
REMARK    8  A    between atoms: N_21  and  C_23
REMARK                            x       y       z     vdW  Elec       q    Type
REMARK                         _______ _______ _______ _____ _____    ______ ____
ROOT
ATOM      1  N   UNL     1      -4.837   0.929   0.038  0.00  0.00    -0.221 N 
ATOM      2  H   UNL     1      -4.825  -0.041   0.022  0.00  0.00    +0.176 HD
ENDROOT
BRANCH   1  12
ATOM      3  C   UNL     1     -10.856   5.827   0.175  0.00  0.00    +0.044 C 
ATOM      4  C   UNL     1      -9.573   5.038   0.151  0.00  0.00    -0.050 A 
ATOM      5  C   UNL     1      -8.352   5.710   0.150  0.00  0.00    +0.005 A 
ATOM      6  C   UNL     1      -7.175   5.027   0.128  0.00  0.00    +0.028 A 
ATOM      7  C   UNL     1      -7.184   3.622   0.106  0.00  0.00    +0.073 A 
ATOM      8  C   UNL     1      -8.426   2.941   0.107  0.00  0.00    +0.004 A 
ATOM      9  C   UNL     1      -9.620   3.677   0.130  0.00  0.00    +0.013 A 
ATOM     10  C   UNL     1      -8.436   1.531   0.085  0.00  0.00    -0.038 A 
ATOM     11  C   UNL     1      -7.242   0.877   0.057  0.00  0.00    +0.049 A 
ATOM     12  C   UNL     1      -6.045   1.608   0.062  0.00  0.00    +0.139 A 
ATOM     13  N   UNL     1      -6.042   2.926   0.083  0.00  0.00    -0.231 NA
ATOM     14  C   UNL     1      -9.736   0.767   0.086  0.00  0.00    +0.044 C 
ENDBRANCH   1  12
BRANCH   1  15
ATOM     15  N   UNL     1      -3.631   1.643   0.037  0.00  0.00    -0.189 NA
ATOM     16  C   UNL     1      -2.500   1.007   0.015  0.00  0.00    +0.138 C 
BRANCH  16  17
ATOM     17  C   UNL     1      -1.232   1.759   0.014  0.00  0.00    -0.005 A 
ATOM     18  C   UNL     1      -0.013   1.076  -0.010  0.00  0.00    +0.011 A 
ATOM     19  C   UNL     1       1.170   1.782  -0.016  0.00  0.00    +0.024 A 
ATOM     20  C   UNL     1       1.153   3.172   0.006  0.00  0.00    +0.029 A 
ATOM     21  C   UNL     1      -0.059   3.855   0.035  0.00  0.00    +0.024 A 
ATOM     22  C   UNL     1      -1.246   3.156   0.041  0.00  0.00    +0.011 A 
BRANCH  20  23
ATOM     23  N   UNL     1       2.353   3.884   0.000  0.00  0.00    -0.336 N 
ATOM     24  C   UNL     1       3.628   3.170   0.096  0.00  0.00    +0.129 C 
ATOM     25  C   UNL     1       2.338   5.345  -0.103  0.00  0.00    +0.129 C 
ENDBRANCH  20  23
ENDBRANCH  16  17
ENDBRANCH   1  15
TORSDOF 4
