REMARK  Name = ZINC16283917
REMARK  5 active torsions:
REMARK  status: ('A' for Active; 'I' for Inactive)
REMARK    1  A    between atoms: C_1  and  C_2
REMARK    2  A    between atoms: C_4  and  C_21
REMARK    3  A    between atoms: C_6  and  S_8
REMARK    4  A    between atoms: S_8  and  C_9
REMARK    5  A    between atoms: N_19  and  O_20
REMARK                            x       y       z     vdW  Elec       q    Type
REMARK                         _______ _______ _______ _____ _____    ______ ____
ROOT
ATOM      1  C   UNL     1       0.041  -1.542   3.919  0.00  0.00    +0.105 C 
ATOM      2  C   UNL     1       0.145  -2.144   5.354  0.00  0.00    +0.009 C 
ATOM      3  C   UNL     1      -0.911  -3.292   5.368  0.00  0.00    +0.005 C 
ATOM      4  C   UNL     1      -2.274  -2.565   5.316  0.00  0.00    +0.010 C 
ATOM      5  C   UNL     1      -1.909  -1.049   5.285  0.00  0.00    +0.038 C 
ATOM      6  C   UNL     1      -0.597  -1.032   6.178  0.00  0.00    +0.014 C 
ATOM      7  C   UNL     1      -1.291  -0.807   3.897  0.00  0.00    +0.074 C 
ATOM      8  N   UNL     1      -1.799  -0.152   2.923  0.00  0.00    -0.095 NA
ENDROOT
BRANCH   8   9
ATOM      9  O   UNL     1      -3.059   0.477   3.073  0.00  0.00    -0.409 OA
ATOM     10  H   UNL     1      -3.360   0.948   2.284  0.00  0.00    +0.328 HD
ENDBRANCH   8   9
BRANCH   1  11
ATOM     11  S   UNL     1       0.053  -2.864   2.678  0.00  0.00    -0.076 S 
BRANCH  11  17
ATOM     12  C   UNL     1      -0.018   1.503   0.010  0.00  0.00    +0.066 C 
ATOM     13  C   UNL     1       0.002  -0.004   0.002  0.00  0.00    +0.043 A 
ATOM     14  C   UNL     1       0.006  -0.699  -1.198  0.00  0.00    +0.046 A 
ATOM     15  C   UNL     1       0.025  -2.084  -1.161  0.00  0.00    +0.043 A 
ATOM     16  N   UNL     1       0.039  -2.699   0.010  0.00  0.00    -0.227 NA
ATOM     17  C   UNL     1       0.035  -2.005   1.140  0.00  0.00    +0.189 A 
ATOM     18  N   UNL     1       0.022  -0.679   1.139  0.00  0.00    -0.227 NA
ATOM     19  C   UNL     1       0.029  -2.881  -2.440  0.00  0.00    +0.066 C 
ENDBRANCH  11  17
ENDBRANCH   1  11
TORSDOF 3
