REMARK  Name = ZINC63331840
REMARK  10 active torsions:
REMARK  status: ('A' for Active; 'I' for Inactive)
REMARK    1  A    between atoms: C_1  and  C_2
REMARK    2  A    between atoms: C_3  and  C_25
REMARK    3  A    between atoms: C_5  and  C_7
REMARK    4  A    between atoms: C_7  and  N_8
REMARK    5  A    between atoms: N_8  and  C_9
REMARK    6  A    between atoms: N_12  and  C_13
REMARK    7  A    between atoms: N_16  and  C_19
REMARK    8  A    between atoms: C_19  and  C_20
REMARK    9  A    between atoms: C_25  and  O_27
REMARK   10  A    between atoms: O_27  and  C_28
REMARK                            x       y       z     vdW  Elec       q    Type
REMARK                         _______ _______ _______ _____ _____    ______ ____
ROOT
ATOM      1  N   UNL     1       1.764  -3.853  -1.040  0.00  0.00    -0.281 N 
ATOM      2  C   UNL     1       2.864  -3.122  -1.674  0.00  0.00    +0.134 C 
ATOM      3  C   UNL     1       1.066  -4.765  -1.745  0.00  0.00    +0.303 C 
ATOM      4  O   UNL     1       0.153  -5.372  -1.219  0.00  0.00    -0.253 OA
ATOM      5  N   UNL     1       1.379  -5.003  -3.034  0.00  0.00    -0.297 N 
ATOM      6  H   UNL     1       2.107  -4.519  -3.454  0.00  0.00    +0.151 HD
ENDROOT
BRANCH   5   7
ATOM      7  C   UNL     1       0.620  -5.994  -3.801  0.00  0.00    +0.071 C 
ATOM      8  C   UNL     1       1.209  -7.387  -3.563  0.00  0.00    +0.004 C 
ATOM      9  C   UNL     1       0.463  -8.406  -4.428  0.00  0.00    -0.077 C 
ATOM     10  N   UNL     1       0.606  -8.048  -5.844  0.00  0.00    +0.380 N 
ATOM     11  C   UNL     1      -0.021  -6.745  -6.094  0.00  0.00    -0.077 C 
ATOM     12  C   UNL     1       0.706  -5.662  -5.294  0.00  0.00    +0.004 C 
ATOM     13  H   UNL     1       1.585  -8.000  -6.081  0.00  0.00    -0.082 HD
BRANCH  10  14
ATOM     14  C   UNL     1      -0.046  -9.070  -6.673  0.00  0.00    -0.075 C 
BRANCH  14  15
ATOM     15  C   UNL     1       0.709 -10.394  -6.538  0.00  0.00    -0.028 C 
ATOM     16  C   UNL     1       2.116 -10.267  -7.158  0.00  0.00    +0.002 C 
ATOM     17  C   UNL     1       2.365 -11.643  -7.822  0.00  0.00    +0.000 C 
ATOM     18  C   UNL     1       0.971 -12.004  -8.394  0.00  0.00    +0.000 C 
ATOM     19  C   UNL     1      -0.019 -11.499  -7.324  0.00  0.00    +0.002 C 
ENDBRANCH  14  15
ENDBRANCH  10  14
ENDBRANCH   5   7
BRANCH   1  20
ATOM     20  C   UNL     1       1.424  -3.594   0.361  0.00  0.00    +0.183 C 
BRANCH  20  25
ATOM     21  C   UNL     1      -0.541   1.038   0.677  0.00  0.00    +0.087 C 
ATOM     22  C   UNL     1      -0.457  -0.463   0.572  0.00  0.00    +0.116 A 
ATOM     23  C   UNL     1      -1.517  -1.320   0.506  0.00  0.00    +0.100 A 
ATOM     24  C   UNL     1      -0.932  -2.666   0.414  0.00  0.00    +0.061 A 
ATOM     25  C   UNL     1       0.398  -2.492   0.433  0.00  0.00    +0.123 A 
ATOM     26  O   UNL     1       0.669  -1.181   0.523  0.00  0.00    -0.462 OA
BRANCH  23  27
ATOM     27  C   UNL     1      -2.947  -0.970   0.523  0.00  0.00    +0.342 C 
ATOM     28  O   UNL     1      -3.287   0.195   0.604  0.00  0.00    -0.245 OA
BRANCH  27  29
ATOM     29  O   UNL     1      -3.879  -1.940   0.449  0.00  0.00    -0.464 OA
ATOM     30  C   UNL     1      -5.247  -1.528   0.471  0.00  0.00    +0.280 C 
ENDBRANCH  27  29
ENDBRANCH  23  27
ENDBRANCH  20  25
ENDBRANCH   1  20
TORSDOF 7
