REMARK  Name = ZINC40287911
REMARK  6 active torsions:
REMARK  status: ('A' for Active; 'I' for Inactive)
REMARK    1  A    between atoms: C_1  and  O_2
REMARK    2  A    between atoms: O_2  and  C_3
REMARK    3  A    between atoms: C_6  and  N_11
REMARK    4  A    between atoms: C_7  and  O_9
REMARK    5  A    between atoms: O_9  and  C_10
REMARK    6  A    between atoms: C_20  and  C_22
REMARK                            x       y       z     vdW  Elec       q    Type
REMARK                         _______ _______ _______ _____ _____    ______ ____
ROOT
ATOM      1  N   UNL     1      -4.901  -2.575   0.035  0.00  0.00    -0.283 N 
ATOM      2  C   UNL     1      -5.842  -2.546  -0.954  0.00  0.00    +0.206 A 
ATOM      3  N   UNL     1      -6.866  -3.274  -0.583  0.00  0.00    -0.238 NA
ATOM      4  C   UNL     1      -6.628  -3.784   0.623  0.00  0.00    +0.089 A 
ATOM      5  C   UNL     1      -5.397  -3.361   1.027  0.00  0.00    +0.133 A 
ATOM      6  N   UNL     1      -4.855  -3.729   2.260  0.00  0.00    -0.270 N 
ATOM      7  C   UNL     1      -5.446  -4.739   2.935  0.00  0.00    +0.219 C 
ATOM      8  O   UNL     1      -5.064  -4.997   4.057  0.00  0.00    -0.275 OA
ATOM      9  C   UNL     1      -6.559  -5.553   2.340  0.00  0.00    +0.110 C 
ATOM     10  C   UNL     1      -7.484  -4.685   1.477  0.00  0.00    +0.080 C 
ATOM     11  H   UNL     1      -4.079  -3.273   2.621  0.00  0.00    +0.156 HD
ENDROOT
BRANCH  10  12
ATOM     12  C   UNL     1      -8.382  -3.850   2.353  0.00  0.00    -0.035 A 
ATOM     13  C   UNL     1      -7.832  -2.957   3.253  0.00  0.00    +0.007 A 
ATOM     14  C   UNL     1      -8.653  -2.189   4.058  0.00  0.00    +0.041 A 
ATOM     15  C   UNL     1     -10.028  -2.315   3.962  0.00  0.00    +0.158 A 
ATOM     16  C   UNL     1     -10.580  -3.210   3.059  0.00  0.00    +0.159 A 
ATOM     17  C   UNL     1      -9.755  -3.973   2.252  0.00  0.00    +0.045 A 
ATOM     18  F   UNL     1     -11.922  -3.334   2.965  0.00  0.00    -0.202 F 
ATOM     19  F   UNL     1     -10.832  -1.566   4.749  0.00  0.00    -0.202 F 
ENDBRANCH  10  12
BRANCH   1  23
ATOM     20  C   UNL     1      -1.201  -0.638   0.010  0.00  0.00    +0.124 A 
ATOM     21  C   UNL     1      -2.374   0.103   0.020  0.00  0.00    +0.048 A 
ATOM     22  C   UNL     1      -3.598  -0.538   0.028  0.00  0.00    +0.033 A 
ATOM     23  C   UNL     1      -3.656  -1.924   0.027  0.00  0.00    +0.091 A 
ATOM     24  C   UNL     1      -2.479  -2.669   0.017  0.00  0.00    +0.147 A 
ATOM     25  C   UNL     1      -1.254  -2.023   0.003  0.00  0.00    +0.093 A 
BRANCH  20  27
ATOM     26  C   UNL     1      -0.017   1.425   0.010  0.00  0.00    +0.277 C 
ATOM     27  O   UNL     1       0.002  -0.004   0.002  0.00  0.00    -0.495 OA
ENDBRANCH  20  27
BRANCH  24  28
ATOM     28  O   UNL     1      -2.534  -4.027   0.016  0.00  0.00    -0.493 OA
ATOM     29  C   UNL     1      -1.287  -4.726   0.006  0.00  0.00    +0.277 C 
ENDBRANCH  24  28
ENDBRANCH   1  23
TORSDOF 4
