REMARK  Name = ZINC19370746
REMARK  4 active torsions:
REMARK  status: ('A' for Active; 'I' for Inactive)
REMARK    1  A    between atoms: C_4  and  C_7
REMARK    2  A    between atoms: C_7  and  C_8
REMARK    3  A    between atoms: C_8  and  C_9
REMARK    4  A    between atoms: C_15  and  N_18
REMARK                            x       y       z     vdW  Elec       q    Type
REMARK                         _______ _______ _______ _____ _____    ______ ____
ROOT
ATOM      1  C   UNL     1       4.955   0.363  -2.217  0.00  0.00    +0.216 C 
ATOM      2  O   UNL     1       4.611   0.989  -3.197  0.00  0.00    -0.276 OA
ATOM      3  N   UNL     1       4.089   0.174  -1.201  0.00  0.00    -0.299 N 
ATOM      4  C   UNL     1       4.491  -0.582  -0.007  0.00  0.00    +0.108 C 
ATOM      5  C   UNL     1       4.215   0.273   1.234  0.00  0.00    +0.021 C 
ATOM      6  C   UNL     1       2.749   0.711   1.231  0.00  0.00    +0.028 C 
ATOM      7  C   UNL     1       2.471   1.560  -0.012  0.00  0.00    +0.111 C 
ATOM      8  C   UNL     1       2.727   0.719  -1.266  0.00  0.00    +0.133 C 
ENDROOT
BRANCH   7   9
ATOM      9  N   UNL     1       1.075   2.005   0.003  0.00  0.00    -0.270 N 
ATOM     10  C   UNL     1       0.631   3.327   0.013  0.00  0.00    +0.092 A 
ATOM     11  C   UNL     1       1.284   4.550   0.013  0.00  0.00    +0.049 A 
ATOM     12  C   UNL     1       0.550   5.721   0.026  0.00  0.00    +0.043 A 
ATOM     13  C   UNL     1      -0.835   5.674   0.038  0.00  0.00    +0.024 A 
ATOM     14  C   UNL     1      -1.491   4.459   0.038  0.00  0.00    +0.050 A 
ATOM     15  C   UNL     1      -0.762   3.280   0.026  0.00  0.00    +0.157 A 
ATOM     16  O   UNL     1      -1.121   1.972   0.018  0.00  0.00    -0.407 OA
ATOM     17  C   UNL     1      -0.014   1.212   0.009  0.00  0.00    +0.422 A 
ATOM     18  O   UNL     1       0.002  -0.004   0.002  0.00  0.00    -0.223 OA
ATOM     19 CL   UNL     1       1.365   7.254   0.026  0.00  0.00    -0.083 Cl
ENDBRANCH   7   9
BRANCH   1  20
ATOM     20  C   UNL     1       6.349  -0.202  -2.134  0.00  0.00    +0.100 C 
BRANCH  20  21
ATOM     21  C   UNL     1       7.120   0.153  -3.407  0.00  0.00    +0.044 C 
BRANCH  21  25
ATOM     22  C   UNL     1      11.072  -1.450  -3.174  0.00  0.00    +0.000 A 
ATOM     23  C   UNL     1      10.052  -2.203  -3.724  0.00  0.00    +0.000 A 
ATOM     24  C   UNL     1       8.773  -1.685  -3.800  0.00  0.00    +0.003 A 
ATOM     25  C   UNL     1       8.514  -0.412  -3.325  0.00  0.00    -0.047 A 
ATOM     26  C   UNL     1       9.535   0.343  -2.779  0.00  0.00    +0.003 A 
ATOM     27  C   UNL     1      10.813  -0.178  -2.700  0.00  0.00    +0.000 A 
ENDBRANCH  21  25
ENDBRANCH  20  21
ENDBRANCH   1  20
TORSDOF 4
