REMARK  Name = ZINC40808958
REMARK  9 active torsions:
REMARK  status: ('A' for Active; 'I' for Inactive)
REMARK    1  A    between atoms: C_1  and  C_2
REMARK    2  A    between atoms: C_3  and  S_9
REMARK    3  A    between atoms: C_4  and  C_8
REMARK    4  A    between atoms: S_9  and  N_12
REMARK    5  A    between atoms: N_12  and  C_13
REMARK    6  A    between atoms: C_15  and  C_21
REMARK    7  A    between atoms: C_15  and  C_22
REMARK    8  A    between atoms: C_17  and  C_19
REMARK    9  A    between atoms: C_17  and  C_20
REMARK                            x       y       z     vdW  Elec       q    Type
REMARK                         _______ _______ _______ _____ _____    ______ ____
ROOT
ATOM      1  N   UNL     1       1.772  -0.566  -3.258  0.00  0.00    -0.187 NA
ATOM      2  H   UNL     1       2.052   0.346  -3.433  0.00  0.00    +0.148 HD
ENDROOT
BRANCH   1   3
ATOM      3  C   UNL     1       2.725  -1.671  -3.421  0.00  0.00    +0.074 C 
ATOM      4  C   UNL     1       2.773  -2.080  -4.894  0.00  0.00    +0.007 C 
ATOM      5  C   UNL     1       3.770  -3.222  -5.082  0.00  0.00    -0.072 C 
ATOM      6  N   UNL     1       5.085  -2.895  -4.551  0.00  0.00    +0.386 N 
ATOM      7  C   UNL     1       5.150  -2.302  -3.225  0.00  0.00    -0.072 C 
ATOM      8  C   UNL     1       4.119  -1.199  -3.008  0.00  0.00    +0.007 C 
ATOM      9  C   UNL     1       5.022  -3.360  -2.125  0.00  0.00    -0.010 C 
ATOM     10  C   UNL     1       6.548  -1.659  -3.071  0.00  0.00    -0.010 C 
ATOM     11  C   UNL     1       3.925  -3.450  -6.604  0.00  0.00    -0.010 C 
ATOM     12  C   UNL     1       3.213  -4.514  -4.485  0.00  0.00    -0.010 C 
ATOM     13  H   UNL     1       5.653  -3.746  -4.552  0.00  0.00    -0.084 HD
ATOM     14  H   UNL     1       5.549  -2.263  -5.209  0.00  0.00    -0.084 HD
ENDBRANCH   1   3
BRANCH   1  15
ATOM     15  S   UNL     1       0.219  -0.876  -2.775  0.00  0.00    +0.062 S 
ATOM     16  O   UNL     1      -0.261  -1.929  -3.600  0.00  0.00    -0.153 OA
ATOM     17  O   UNL     1      -0.438   0.381  -2.685  0.00  0.00    -0.153 OA
BRANCH  15  20
ATOM     18  C   UNL     1       0.139   0.705   0.104  0.00  0.00    +0.067 C 
ATOM     19  C   UNL     1       0.261  -0.794   0.006  0.00  0.00    +0.060 A 
ATOM     20  C   UNL     1       0.301  -1.518  -1.136  0.00  0.00    +0.148 A 
ATOM     21  C   UNL     1       0.420  -2.868  -0.786  0.00  0.00    +0.086 A 
ATOM     22  N   UNL     1       0.450  -2.950   0.519  0.00  0.00    -0.177 NA
ATOM     23  N   UNL     1       0.356  -1.654   1.042  0.00  0.00    -0.280 N 
ATOM     24  H   UNL     1       0.358  -1.417   1.982  0.00  0.00    +0.189 HD
ATOM     25  C   UNL     1       0.499  -4.026  -1.747  0.00  0.00    +0.069 C 
ENDBRANCH  15  20
ENDBRANCH   1  15
TORSDOF 3
