REMARK  Name = ZINC23430651
REMARK  7 active torsions:
REMARK  status: ('A' for Active; 'I' for Inactive)
REMARK    1  A    between atoms: C_1  and  C_2
REMARK    2  A    between atoms: C_5  and  C_7
REMARK    3  A    between atoms: C_7  and  N_8
REMARK    4  A    between atoms: C_14  and  C_16
REMARK    5  A    between atoms: C_16  and  C_17
REMARK    6  A    between atoms: N_19  and  C_20
REMARK    7  A    between atoms: C_20  and  C_21
REMARK                            x       y       z     vdW  Elec       q    Type
REMARK                         _______ _______ _______ _____ _____    ______ ____
ROOT
ATOM      1  N   UNL     1       1.069   0.101  -0.912  0.00  0.00    +0.393 N 
ATOM      2  C   UNL     1       0.698   0.598   0.422  0.00  0.00    -0.058 C 
ATOM      3  C   UNL     1       1.034   2.088   0.502  0.00  0.00    +0.085 C 
ATOM      4  N   UNL     1       2.407   2.316   0.060  0.00  0.00    -0.318 N 
ATOM      5  C   UNL     1       3.094   1.427  -0.665  0.00  0.00    +0.200 C 
ATOM      6  O   UNL     1       4.220   1.710  -1.016  0.00  0.00    -0.278 OA
ATOM      7  C   UNL     1       2.530   0.093  -1.063  0.00  0.00    +0.029 C 
ATOM      8  H   UNL     1       2.922   3.252   0.323  0.00  0.00    +0.149 HD
ATOM      9  H   UNL     1       0.645   0.778  -1.669  0.00  0.00    -0.080 HD
ENDROOT
BRANCH   1  10
ATOM     10  C   UNL     1       0.507  -1.236  -1.151  0.00  0.00    -0.002 C 
BRANCH  10  15
ATOM     11  C   UNL     1      -4.483  -1.011  -0.452  0.00  0.00    +0.086 C 
ATOM     12  C   UNL     1      -3.138  -1.020  -1.132  0.00  0.00    +0.102 A 
ATOM     13  C   UNL     1      -2.923  -0.893  -2.454  0.00  0.00    +0.044 A 
ATOM     14  C   UNL     1      -1.524  -0.950  -2.649  0.00  0.00    +0.043 A 
ATOM     15  C   UNL     1      -0.968  -1.118  -1.435  0.00  0.00    +0.089 A 
ATOM     16  O   UNL     1      -1.950  -1.156  -0.520  0.00  0.00    -0.467 OA
ENDBRANCH  10  15
ENDBRANCH   1  10
BRANCH   7  17
ATOM     17  C   UNL     1       2.889  -0.196  -2.522  0.00  0.00    +0.089 C 
BRANCH  17  18
ATOM     18  C   UNL     1       2.290   0.867  -3.406  0.00  0.00    +0.212 C 
ATOM     19  O   UNL     1       1.560   1.711  -2.931  0.00  0.00    -0.276 OA
ATOM     20  N   UNL     1       2.565   0.880  -4.726  0.00  0.00    -0.311 N 
ATOM     21  H   UNL     1       3.227   0.115  -5.157  0.00  0.00    +0.149 HD
BRANCH  20  22
ATOM     22  C   UNL     1       1.982   1.913  -5.585  0.00  0.00    +0.146 C 
BRANCH  22  23
ATOM     23  C   UNL     1       2.444   1.705  -7.005  0.00  0.00    +0.008 A 
ATOM     24  C   UNL     1       1.876   0.963  -7.986  0.00  0.00    +0.014 A 
ATOM     25  C   UNL     1       2.479   0.921  -9.229  0.00  0.00    +0.028 A 
ATOM     26  C   UNL     1       3.629   1.613  -9.426  0.00  0.00    +0.078 A 
ATOM     27  S   UNL     1       3.885   2.364  -7.826  0.00  0.00    -0.080 S 
ATOM     28 CL   UNL     1       4.599   1.738 -10.860  0.00  0.00    -0.076 Cl
ENDBRANCH  22  23
ENDBRANCH  20  22
ENDBRANCH  17  18
ENDBRANCH   7  17
TORSDOF 6
