REMARK  Name = ZINC67542842
REMARK  9 active torsions:
REMARK  status: ('A' for Active; 'I' for Inactive)
REMARK    1  A    between atoms: C_1  and  C_2
REMARK    2  A    between atoms: C_2  and  C_3
REMARK    3  A    between atoms: N_5  and  C_6
REMARK    4  A    between atoms: C_9  and  N_13
REMARK    5  A    between atoms: C_11  and  C_12
REMARK    6  A    between atoms: N_16  and  C_17
REMARK    7  A    between atoms: C_17  and  C_19
REMARK    8  A    between atoms: C_17  and  C_20
REMARK    9  A    between atoms: C_27  and  C_29
REMARK                            x       y       z     vdW  Elec       q    Type
REMARK                         _______ _______ _______ _____ _____    ______ ____
ROOT
ATOM      1  N   UNL     1       3.245  -3.108  -6.175  0.00  0.00    -0.269 N 
ATOM      2  C   UNL     1       4.204  -2.394  -6.797  0.00  0.00    +0.304 C 
ATOM      3  O   UNL     1       4.363  -1.220  -6.522  0.00  0.00    -0.252 OA
ATOM      4  N   UNL     1       4.986  -2.981  -7.725  0.00  0.00    -0.288 N 
ATOM      5  H   UNL     1       3.075  -4.026  -6.439  0.00  0.00    +0.156 HD
ATOM      6  H   UNL     1       4.860  -3.917  -7.944  0.00  0.00    +0.151 HD
ENDROOT
BRANCH   1  10
ATOM      7  C   UNL     1       1.010  -1.373  -3.112  0.00  0.00    +0.036 A 
ATOM      8  C   UNL     1       1.344  -2.720  -3.050  0.00  0.00    +0.025 A 
ATOM      9  C   UNL     1       2.084  -3.294  -4.064  0.00  0.00    +0.025 A 
ATOM     10  C   UNL     1       2.494  -2.525  -5.146  0.00  0.00    +0.035 A 
ATOM     11  C   UNL     1       2.160  -1.179  -5.207  0.00  0.00    +0.028 A 
ATOM     12  C   UNL     1       1.414  -0.606  -4.196  0.00  0.00    -0.027 A 
ATOM     13  C   UNL     1       1.045   0.853  -4.267  0.00  0.00    +0.046 C 
BRANCH   7  16
ATOM     14  C   UNL     1      -0.543  -1.556  -1.317  0.00  0.00    +0.217 C 
ATOM     15  O   UNL     1      -0.691  -2.731  -1.579  0.00  0.00    -0.275 OA
ATOM     16  N   UNL     1       0.259  -0.790  -2.083  0.00  0.00    -0.285 N 
ATOM     17  H   UNL     1       0.316   0.165  -1.922  0.00  0.00    +0.155 HD
BRANCH  14  19
ATOM     18  C   UNL     1      -2.093  -2.028   0.560  0.00  0.00    +0.013 C 
ATOM     19  C   UNL     1      -1.255  -0.952  -0.134  0.00  0.00    +0.093 C 
ENDBRANCH  14  19
ENDBRANCH   7  16
ENDBRANCH   1  10
BRANCH   4  20
ATOM     20  C   UNL     1       6.028  -2.204  -8.401  0.00  0.00    +0.157 C 
ATOM     21  C   UNL     1       7.297  -2.199  -7.546  0.00  0.00    +0.038 C 
BRANCH  20  22
ATOM     22  C   UNL     1       6.328  -2.826  -9.741  0.00  0.00    +0.236 C 
ATOM     23  O   UNL     1       5.884  -3.921 -10.014  0.00  0.00    -0.274 OA
ATOM     24  N   UNL     1       7.089  -2.165 -10.635  0.00  0.00    -0.297 N 
ATOM     25  C   UNL     1       7.735  -0.896 -10.275  0.00  0.00    +0.108 C 
ATOM     26  C   UNL     1       9.234  -1.003 -10.573  0.00  0.00    +0.019 C 
ATOM     27  C   UNL     1       9.431  -1.417 -12.034  0.00  0.00    +0.003 C 
ATOM     28  C   UNL     1       8.792  -2.788 -12.268  0.00  0.00    +0.022 C 
ATOM     29  C   UNL     1       7.294  -2.704 -11.987  0.00  0.00    +0.073 C 
ATOM     30  C   UNL     1       6.677  -4.101 -12.082  0.00  0.00    +0.028 C 
ENDBRANCH  20  22
ENDBRANCH   4  20
TORSDOF 5
