REMARK  Name = ZINC50672672
REMARK  12 active torsions:
REMARK  status: ('A' for Active; 'I' for Inactive)
REMARK    1  A    between atoms: C_1  and  C_2
REMARK    2  A    between atoms: C_2  and  C_3
REMARK    3  A    between atoms: C_2  and  N_4
REMARK    4  A    between atoms: N_4  and  C_5
REMARK    5  A    between atoms: N_4  and  C_6
REMARK    6  A    between atoms: C_6  and  C_7
REMARK    7  A    between atoms: C_7  and  C_8
REMARK    8  A    between atoms: C_8  and  C_9
REMARK    9  A    between atoms: C_9  and  N_10
REMARK   10  A    between atoms: N_10  and  S_11
REMARK   11  A    between atoms: S_11  and  C_14
REMARK   12  A    between atoms: C_19  and  N_20
REMARK                            x       y       z     vdW  Elec       q    Type
REMARK                         _______ _______ _______ _____ _____    ______ ____
ROOT
ATOM      1  S   UNL     1      -5.481  -6.934   0.896  0.00  0.00    +0.062 S 
ATOM      2  O   UNL     1      -5.225  -8.331   0.913  0.00  0.00    -0.153 OA
ATOM      3  O   UNL     1      -5.793  -6.201   2.073  0.00  0.00    -0.153 OA
ENDROOT
BRANCH   1   4
ATOM      4  C   UNL     1      -6.819  -6.681  -0.223  0.00  0.00    +0.146 A 
ATOM      5  C   UNL     1      -7.913  -5.921   0.152  0.00  0.00    +0.048 A 
ATOM      6  C   UNL     1      -8.944  -5.748  -0.762  0.00  0.00    +0.038 A 
ATOM      7  C   UNL     1      -8.848  -6.335  -2.009  0.00  0.00    +0.128 A 
ATOM      8  N   UNL     1      -7.793  -7.055  -2.338  0.00  0.00    -0.238 NA
ATOM      9  C   UNL     1      -6.787  -7.237  -1.497  0.00  0.00    +0.143 A 
ATOM     10 BR   UNL     1     -10.464  -4.720  -0.304  0.00  0.00    -0.049 Br
BRANCH   9  11
ATOM     11  N   UNL     1      -5.691  -7.998  -1.889  0.00  0.00    -0.342 N 
ATOM     12  H   UNL     1      -4.914  -8.064  -1.311  0.00  0.00    +0.144 HD
ATOM     13  H   UNL     1      -5.702  -8.463  -2.740  0.00  0.00    +0.144 HD
ENDBRANCH   9  11
ENDBRANCH   1   4
BRANCH   1  14
ATOM     14  N   UNL     1      -4.145  -6.216   0.232  0.00  0.00    -0.190 NA
ATOM     15  H   UNL     1      -3.385  -6.757  -0.034  0.00  0.00    +0.148 HD
BRANCH  14  16
ATOM     16  C   UNL     1      -4.110  -4.763   0.045  0.00  0.00    +0.106 C 
BRANCH  16  17
ATOM     17  C   UNL     1      -2.670  -4.316  -0.214  0.00  0.00    +0.015 C 
BRANCH  17  18
ATOM     18  C   UNL     1      -2.634  -2.799  -0.409  0.00  0.00    -0.017 C 
BRANCH  18  19
ATOM     19  C   UNL     1      -1.194  -2.353  -0.668  0.00  0.00    -0.079 C 
BRANCH  19  20
ATOM     20  N   UNL     1      -1.159  -0.896  -0.855  0.00  0.00    +0.379 N 
ATOM     21  C   UNL     1      -1.901  -0.541  -2.072  0.00  0.00    -0.096 C 
ATOM     22  H   UNL     1      -1.583  -0.444  -0.059  0.00  0.00    -0.082 HD
BRANCH  20  24
ATOM     23  C   UNL     1       0.272   1.065  -1.179  0.00  0.00    -0.014 C 
ATOM     24  C   UNL     1       0.235  -0.452  -0.985  0.00  0.00    -0.075 C 
ATOM     25  C   UNL     1       1.008  -0.822   0.283  0.00  0.00    -0.014 C 
ENDBRANCH  20  24
ENDBRANCH  19  20
ENDBRANCH  18  19
ENDBRANCH  17  18
ENDBRANCH  16  17
ENDBRANCH  14  16
ENDBRANCH   1  14
TORSDOF 9
