REMARK  Name = ZINC63560387
REMARK  5 active torsions:
REMARK  status: ('A' for Active; 'I' for Inactive)
REMARK    1  A    between atoms: C_4  and  C_7
REMARK    2  A    between atoms: C_9  and  C_29
REMARK    3  A    between atoms: N_11  and  C_18
REMARK    4  A    between atoms: C_18  and  C_19
REMARK    5  A    between atoms: C_19  and  C_20
REMARK                            x       y       z     vdW  Elec       q    Type
REMARK                         _______ _______ _______ _____ _____    ______ ____
ROOT
ATOM      1  C   UNL     1       4.094  -0.750  -0.264  0.00  0.00    +0.097 C 
ATOM      2  C   UNL     1       4.036  -2.053  -0.068  0.00  0.00    +0.018 C 
ATOM      3  C   UNL     1       3.402  -3.424  -0.026  0.00  0.00    +0.139 C 
ATOM      4  N   UNL     1       4.296  -4.229  -0.896  0.00  0.00    -0.288 N 
ATOM      5  C   UNL     1       5.530  -3.655  -0.939  0.00  0.00    +0.247 C 
ATOM      6  O   UNL     1       6.472  -4.029  -1.605  0.00  0.00    -0.273 OA
ATOM      7  C   UNL     1       5.513  -2.476  -0.014  0.00  0.00    +0.244 C 
ATOM      8  N   UNL     1       6.212  -1.275  -0.425  0.00  0.00    -0.170 NA
ATOM      9  N   UNL     1       5.380  -0.356  -0.492  0.00  0.00    -0.153 NA
ENDROOT
BRANCH   1  13
ATOM     10  C   UNL     1       0.736   1.858  -0.207  0.00  0.00    +0.000 A 
ATOM     11  C   UNL     1       1.663   1.951  -1.229  0.00  0.00    +0.001 A 
ATOM     12  C   UNL     1       2.756   1.107  -1.252  0.00  0.00    +0.010 A 
ATOM     13  C   UNL     1       2.922   0.160  -0.244  0.00  0.00    +0.002 A 
ATOM     14  C   UNL     1       1.984   0.070   0.783  0.00  0.00    +0.010 A 
ATOM     15  C   UNL     1       0.896   0.919   0.796  0.00  0.00    +0.001 A 
ENDBRANCH   1  13
BRANCH   3  16
ATOM     16  C   UNL     1       2.004  -3.382  -0.586  0.00  0.00    -0.005 A 
ATOM     17  C   UNL     1       0.929  -3.809   0.179  0.00  0.00    +0.009 A 
ATOM     18  C   UNL     1      -0.340  -3.753  -0.377  0.00  0.00    +0.020 A 
ATOM     19  C   UNL     1      -0.490  -3.276  -1.665  0.00  0.00    +0.111 A 
ATOM     20  N   UNL     1       0.555  -2.878  -2.363  0.00  0.00    -0.263 NA
ATOM     21  C   UNL     1       1.776  -2.912  -1.865  0.00  0.00    +0.116 A 
ENDBRANCH   3  16
BRANCH   4  22
ATOM     22  C   UNL     1       3.909  -5.454  -1.600  0.00  0.00    +0.113 C 
BRANCH  22  23
ATOM     23  C   UNL     1       3.502  -5.111  -3.034  0.00  0.00    +0.052 C 
BRANCH  23  24
ATOM     24  C   UNL     1       3.225  -6.382  -3.795  0.00  0.00    -0.040 C 
ATOM     25  C   UNL     1       2.023  -6.971  -3.984  0.00  0.00    -0.001 A 
ATOM     26  C   UNL     1       0.664  -6.619  -3.553  0.00  0.00    +0.010 A 
ATOM     27  C   UNL     1      -0.364  -7.424  -3.904  0.00  0.00    +0.001 A 
ATOM     28  C   UNL     1      -0.166  -8.583  -4.668  0.00  0.00    +0.002 A 
ATOM     29  C   UNL     1       1.052  -8.971  -5.101  0.00  0.00    +0.026 A 
ATOM     30  C   UNL     1       2.205  -8.200  -4.790  0.00  0.00    +0.043 A 
ATOM     31  N   UNL     1       3.471  -8.364  -5.087  0.00  0.00    -0.380 N 
ATOM     32  C   UNL     1       4.235  -7.253  -4.508  0.00  0.00    +0.144 C 
ATOM     33  H   UNL     1       3.841  -9.095  -5.606  0.00  0.00    +0.160 HD
ENDBRANCH  23  24
ENDBRANCH  22  23
ENDBRANCH   4  22
TORSDOF 5
