REMARK  Name = ZINC67498049
REMARK  6 active torsions:
REMARK  status: ('A' for Active; 'I' for Inactive)
REMARK    1  A    between atoms: C_1  and  C_2
REMARK    2  A    between atoms: C_4  and  C_7
REMARK    3  A    between atoms: C_7  and  N_8
REMARK    4  A    between atoms: C_9  and  C_11
REMARK    5  A    between atoms: C_11  and  N_12
REMARK    6  A    between atoms: C_20  and  C_22
REMARK                            x       y       z     vdW  Elec       q    Type
REMARK                         _______ _______ _______ _____ _____    ______ ____
ROOT
ATOM      1  N   UNL     1      -3.488  -6.591  -3.054  0.00  0.00    -0.215 N 
ATOM      2  C   UNL     1      -3.020  -7.853  -2.961  0.00  0.00    +0.247 C 
ATOM      3  O   UNL     1      -1.863  -8.202  -2.864  0.00  0.00    -0.273 OA
ATOM      4  C   UNL     1      -4.243  -8.740  -3.004  0.00  0.00    +0.115 C 
ATOM      5  C   UNL     1      -4.186  -9.665  -4.215  0.00  0.00    +0.035 C 
ATOM      6  C   UNL     1      -2.987 -10.608  -4.082  0.00  0.00    +0.003 C 
ATOM      7  C   UNL     1      -3.126 -11.429  -2.798  0.00  0.00    +0.000 C 
ATOM      8  C   UNL     1      -3.161 -10.489  -1.591  0.00  0.00    +0.006 C 
ATOM      9  C   UNL     1      -4.360  -9.546  -1.715  0.00  0.00    +0.018 C 
ATOM     10  C   UNL     1      -4.385  -8.592  -0.518  0.00  0.00    +0.010 C 
ATOM     11  N   UNL     1      -5.363  -7.799  -3.127  0.00  0.00    -0.285 N 
ATOM     12  C   UNL     1      -4.823  -6.565  -3.143  0.00  0.00    +0.310 C 
ATOM     13  O   UNL     1      -5.475  -5.543  -3.232  0.00  0.00    -0.252 OA
ATOM     14  H   UNL     1      -6.306  -8.021  -3.182  0.00  0.00    +0.151 HD
ENDROOT
BRANCH   1  15
ATOM     15  C   UNL     1      -2.639  -5.396  -3.052  0.00  0.00    +0.213 C 
BRANCH  15  17
ATOM     16  N   UNL     1      -1.691  -3.832  -1.387  0.00  0.00    -0.308 N 
ATOM     17  C   UNL     1      -2.442  -4.923  -1.635  0.00  0.00    +0.231 C 
ATOM     18  O   UNL     1      -2.959  -5.524  -0.717  0.00  0.00    -0.274 OA
ATOM     19  H   UNL     1      -1.278  -3.351  -2.121  0.00  0.00    +0.149 HD
BRANCH  16  20
ATOM     20  C   UNL     1      -1.500  -3.372  -0.010  0.00  0.00    +0.163 C 
BRANCH  20  24
ATOM     21  C   UNL     1      -0.018   1.503   0.010  0.00  0.00    +0.089 C 
ATOM     22  C   UNL     1       0.002  -0.004   0.002  0.00  0.00    +0.135 A 
ATOM     23  C   UNL     1      -1.077  -0.810   0.003  0.00  0.00    +0.072 A 
ATOM     24  C   UNL     1      -0.627  -2.143  -0.007  0.00  0.00    +0.101 A 
ATOM     25  N   UNL     1       0.676  -2.130  -0.013  0.00  0.00    -0.081 NA
ATOM     26  O   UNL     1       1.098  -0.778  -0.013  0.00  0.00    -0.360 OA
ENDBRANCH  20  24
ENDBRANCH  16  20
ENDBRANCH  15  17
ENDBRANCH   1  15
TORSDOF 4
