REMARK  Name = ZINC06623665
REMARK  5 active torsions:
REMARK  status: ('A' for Active; 'I' for Inactive)
REMARK    1  A    between atoms: C_10  and  O_16
REMARK    2  A    between atoms: O_16  and  C_17
REMARK    3  A    between atoms: C_19  and  O_29
REMARK    4  A    between atoms: C_21  and  O_28
REMARK    5  A    between atoms: C_23  and  O_27
REMARK                            x       y       z     vdW  Elec       q    Type
REMARK                         _______ _______ _______ _____ _____    ______ ____
ROOT
ATOM      1  C   UNL     1      -4.902   3.968   0.064  0.00  0.00    +0.001 A 
ATOM      2  C   UNL     1      -4.858   5.354   0.071  0.00  0.00    +0.001 A 
ATOM      3  C   UNL     1      -3.650   6.019   0.065  0.00  0.00    +0.015 A 
ATOM      4  C   UNL     1      -2.463   5.289   0.051  0.00  0.00    +0.067 A 
ATOM      5  C   UNL     1      -2.510   3.879   0.044  0.00  0.00    -0.000 A 
ATOM      6  C   UNL     1      -3.738   3.227   0.051  0.00  0.00    +0.009 A 
ATOM      7  C   UNL     1      -1.232   3.142   0.030  0.00  0.00    +0.026 A 
ATOM      8  C   UNL     1      -1.215   1.747   0.017  0.00  0.00    +0.016 A 
ATOM      9  C   UNL     1      -0.013   1.076   0.008  0.00  0.00    +0.046 A 
ATOM     10  C   UNL     1       1.183   1.787   0.000  0.00  0.00    +0.128 A 
ATOM     11  C   UNL     1       1.175   3.171   0.007  0.00  0.00    +0.092 A 
ATOM     12  C   UNL     1      -0.029   3.862   0.022  0.00  0.00    +0.143 A 
ATOM     13  O   UNL     1      -0.024   5.214   0.029  0.00  0.00    -0.422 OA
ATOM     14  C   UNL     1      -1.149   5.947   0.044  0.00  0.00    +0.345 A 
ATOM     15  O   UNL     1      -1.080   7.161   0.049  0.00  0.00    -0.245 OA
ENDROOT
BRANCH  10  16
ATOM     16  O   UNL     1       2.366   1.119  -0.015  0.00  0.00    -0.461 OA
BRANCH  16  17
ATOM     17  C   UNL     1       2.304  -0.309  -0.022  0.00  0.00    +0.339 C 
ATOM     18  C   UNL     1       3.717  -0.880  -0.163  0.00  0.00    +0.214 C 
ATOM     19  C   UNL     1       3.649  -2.410  -0.110  0.00  0.00    +0.180 C 
ATOM     20  C   UNL     1       2.979  -2.834   1.201  0.00  0.00    +0.171 C 
ATOM     21  C   UNL     1       1.595  -2.187   1.290  0.00  0.00    +0.198 C 
ATOM     22  O   UNL     1       1.727  -0.767   1.203  0.00  0.00    -0.337 OA
BRANCH  20  23
ATOM     23  O   UNL     1       2.845  -4.256   1.229  0.00  0.00    -0.387 OA
ATOM     24  H   UNL     1       2.427  -4.596   2.033  0.00  0.00    +0.210 HD
ENDBRANCH  20  23
BRANCH  19  25
ATOM     25  O   UNL     1       2.885  -2.893  -1.216  0.00  0.00    -0.386 OA
ATOM     26  H   UNL     1       2.800  -3.856  -1.245  0.00  0.00    +0.210 HD
ENDBRANCH  19  25
BRANCH  18  27
ATOM     27  O   UNL     1       4.536  -0.401   0.905  0.00  0.00    -0.383 OA
ATOM     28  H   UNL     1       4.619   0.562   0.935  0.00  0.00    +0.210 HD
ENDBRANCH  18  27
ENDBRANCH  16  17
ENDBRANCH  10  16
TORSDOF 5
