REMARK  Name = ZINC19414530
REMARK  4 active torsions:
REMARK  status: ('A' for Active; 'I' for Inactive)
REMARK    1  A    between atoms: C_1  and  C_2
REMARK    2  A    between atoms: C_7  and  C_19
REMARK    3  A    between atoms: N_12  and  C_16
REMARK    4  A    between atoms: C_16  and  C_17
REMARK                            x       y       z     vdW  Elec       q    Type
REMARK                         _______ _______ _______ _____ _____    ______ ____
ROOT
ATOM      1  C   UNL     1       0.901   3.829   1.297  0.00  0.00    +0.010 C 
ATOM      2  C   UNL     1       1.765   2.567   1.254  0.00  0.00    +0.019 C 
ATOM      3  C   UNL     1       3.244   2.962   1.237  0.00  0.00    +0.006 C 
ATOM      4  C   UNL     1       3.533   3.799  -0.011  0.00  0.00    +0.001 C 
ATOM      5  C   UNL     1       3.220   2.976  -1.262  0.00  0.00    +0.006 C 
ATOM      6  C   UNL     1       1.741   2.581  -1.255  0.00  0.00    +0.019 C 
ATOM      7  C   UNL     1       1.435   1.768  -0.002  0.00  0.00    +0.118 C 
ATOM      8  C   UNL     1      -0.016   1.345   0.009  0.00  0.00    +0.247 C 
ATOM      9  O   UNL     1      -0.991   2.066   0.018  0.00  0.00    -0.273 OA
ATOM     10  N   UNL     1       0.002  -0.004   0.002  0.00  0.00    -0.223 N 
ATOM     11  C   UNL     1       1.253  -0.480  -0.013  0.00  0.00    +0.309 C 
ATOM     12  O   UNL     1       1.526  -1.665  -0.021  0.00  0.00    -0.252 OA
ATOM     13  N   UNL     1       2.176   0.501  -0.016  0.00  0.00    -0.284 N 
ATOM     14  C   UNL     1       1.432   1.740  -2.496  0.00  0.00    +0.010 C 
ATOM     15  H   UNL     1       3.276   0.507  -0.027  0.00  0.00    +0.151 HD
ENDROOT
BRANCH  10  16
ATOM     16  C   UNL     1      -1.198  -0.844   0.009  0.00  0.00    +0.129 C 
BRANCH  16  17
ATOM     17  C   UNL     1      -1.631  -1.128  -1.430  0.00  0.00    +0.099 C 
ATOM     18 BR   UNL     1      -3.241  -2.255  -1.420  0.00  0.00    -0.090 Br
ENDBRANCH  16  17
ENDBRANCH  10  16
TORSDOF 2
