REMARK  Name = ZINC35980980
REMARK  7 active torsions:
REMARK  status: ('A' for Active; 'I' for Inactive)
REMARK    1  A    between atoms: C_1  and  C_2
REMARK    2  A    between atoms: C_2  and  O_3
REMARK    3  A    between atoms: O_3  and  C_4
REMARK    4  A    between atoms: C_4  and  C_6
REMARK    5  A    between atoms: C_13  and  C_15
REMARK    6  A    between atoms: C_21  and  C_23
REMARK    7  A    between atoms: C_28  and  C_29
REMARK                            x       y       z     vdW  Elec       q    Type
REMARK                         _______ _______ _______ _____ _____    ______ ____
ROOT
ATOM      1  C   UNL     1      -6.450  -5.734   0.800  0.00  0.00    +0.191 C 
ATOM      2  C   UNL     1      -6.790  -6.277  -0.610  0.00  0.00    +0.194 C 
ATOM      3  O   UNL     1      -7.670  -7.386  -0.311  0.00  0.00    -0.354 OA
ATOM      4  C   UNL     1      -7.139  -7.988   0.880  0.00  0.00    +0.139 C 
ATOM      5  N   UNL     1      -6.379  -6.965   1.620  0.00  0.00    -0.255 N 
ATOM      6  C   UNL     1      -5.747  -7.117   2.800  0.00  0.00    +0.250 C 
ATOM      7  O   UNL     1      -5.702  -8.210   3.330  0.00  0.00    -0.270 OA
ATOM      8  C   UNL     1      -8.288  -8.500   1.750  0.00  0.00    +0.055 C 
ATOM      9  C   UNL     1      -7.721  -9.143   3.018  0.00  0.00    +0.004 C 
ATOM     10  C   UNL     1      -6.805 -10.307   2.633  0.00  0.00    +0.000 C 
ATOM     11  C   UNL     1      -5.653  -9.787   1.772  0.00  0.00    +0.004 C 
ATOM     12  C   UNL     1      -6.215  -9.145   0.501  0.00  0.00    +0.055 C 
ENDROOT
BRANCH   1  19
ATOM     13  C   UNL     1      -3.882  -1.770   1.388  0.00  0.00    +0.115 C 
ATOM     14  C   UNL     1      -5.074  -0.917   0.948  0.00  0.00    +0.018 C 
ATOM     15  C   UNL     1      -6.364  -1.730   1.084  0.00  0.00    +0.020 C 
ATOM     16  C   UNL     1      -6.286  -2.959   0.173  0.00  0.00    +0.108 C 
ATOM     17  N   UNL     1      -5.064  -3.709   0.493  0.00  0.00    -0.299 N 
ATOM     18  C   UNL     1      -3.776  -3.001   0.481  0.00  0.00    +0.122 C 
ATOM     19  C   UNL     1      -5.122  -5.022   0.792  0.00  0.00    +0.238 C 
ATOM     20  O   UNL     1      -4.106  -5.629   1.054  0.00  0.00    -0.273 OA
BRANCH  13  21
ATOM     21  C   UNL     1      -2.617  -0.959   1.284  0.00  0.00    +0.312 C 
ATOM     22  O   UNL     1      -1.721  -1.326   0.561  0.00  0.00    -0.250 OA
BRANCH  21  23
ATOM     23  O   UNL     1      -2.485   0.172   1.996  0.00  0.00    -0.465 OA
BRANCH  23  25
ATOM     24  C   UNL     1      -1.292   2.141   2.730  0.00  0.00    +0.048 C 
ATOM     25  C   UNL     1      -1.259   0.891   1.849  0.00  0.00    +0.229 C 
ENDBRANCH  23  25
ENDBRANCH  21  23
ENDBRANCH  13  21
ENDBRANCH   1  19
BRANCH   6  26
ATOM     26  C   UNL     1      -5.106  -5.954   3.451  0.00  0.00    +0.040 A 
ATOM     27  C   UNL     1      -5.821  -4.768   3.628  0.00  0.00    +0.013 A 
ATOM     28  C   UNL     1      -5.218  -3.687   4.237  0.00  0.00    +0.001 A 
ATOM     29  C   UNL     1      -3.907  -3.776   4.671  0.00  0.00    +0.000 A 
ATOM     30  C   UNL     1      -3.193  -4.948   4.498  0.00  0.00    +0.004 A 
ATOM     31  C   UNL     1      -3.786  -6.039   3.896  0.00  0.00    -0.038 A 
ATOM     32  C   UNL     1      -3.009  -7.317   3.714  0.00  0.00    +0.044 C 
ENDBRANCH   6  26
TORSDOF 5
