REMARK  Name = ZINC21260865
REMARK  7 active torsions:
REMARK  status: ('A' for Active; 'I' for Inactive)
REMARK    1  A    between atoms: C_1  and  C_2
REMARK    2  A    between atoms: C_2  and  C_3
REMARK    3  A    between atoms: C_2  and  C_4
REMARK    4  A    between atoms: N_6  and  C_7
REMARK    5  A    between atoms: C_10  and  C_13
REMARK    6  A    between atoms: C_13  and  C_15
REMARK    7  A    between atoms: C_15  and  N_16
REMARK                            x       y       z     vdW  Elec       q    Type
REMARK                         _______ _______ _______ _____ _____    ______ ____
ROOT
ATOM      1  C   UNL     1      -8.572  -1.644  -1.671  0.00  0.00    +0.197 C 
ENDROOT
BRANCH   1   2
ATOM      2  N   UNL     1      -9.877  -2.203  -1.330  0.00  0.00    -0.217 N 
ATOM      3  C   UNL     1     -10.293  -3.455  -1.623  0.00  0.00    +0.247 C 
ATOM      4  O   UNL     1      -9.625  -4.422  -1.895  0.00  0.00    -0.273 OA
ATOM      5  C   UNL     1     -11.809  -3.364  -1.579  0.00  0.00    +0.113 C 
ATOM      6  C   UNL     1     -12.300  -2.824  -2.921  0.00  0.00    +0.035 C 
ATOM      7  C   UNL     1     -13.795  -3.071  -3.116  0.00  0.00    +0.003 C 
ATOM      8  C   UNL     1     -14.667  -2.003  -2.429  0.00  0.00    +0.000 C 
ATOM      9  C   UNL     1     -14.690  -2.294  -0.918  0.00  0.00    +0.000 C 
ATOM     10  C   UNL     1     -14.849  -3.798  -0.685  0.00  0.00    +0.000 C 
ATOM     11  C   UNL     1     -13.570  -4.412  -0.126  0.00  0.00    +0.003 C 
ATOM     12  C   UNL     1     -12.495  -4.651  -1.186  0.00  0.00    +0.035 C 
ATOM     13  N   UNL     1     -11.929  -2.348  -0.512  0.00  0.00    -0.285 N 
ATOM     14  C   UNL     1     -10.832  -1.565  -0.643  0.00  0.00    +0.310 C 
ATOM     15  O   UNL     1     -10.734  -0.445  -0.197  0.00  0.00    -0.252 OA
ATOM     16  H   UNL     1     -12.553  -2.286   0.210  0.00  0.00    +0.151 HD
ENDBRANCH   1   2
BRANCH   1  17
ATOM     17  C   UNL     1      -7.589  -1.958  -0.574  0.00  0.00    +0.181 C 
ATOM     18  O   UNL     1      -7.946  -2.589   0.399  0.00  0.00    -0.290 OA
BRANCH  17  22
ATOM     19  C   UNL     1      -3.575  -0.640  -0.886  0.00  0.00    +0.033 A 
ATOM     20  C   UNL     1      -3.983  -1.363   0.232  0.00  0.00    +0.024 A 
ATOM     21  C   UNL     1      -5.281  -1.792   0.337  0.00  0.00    +0.013 A 
ATOM     22  C   UNL     1      -6.197  -1.501  -0.682  0.00  0.00    +0.019 A 
ATOM     23  C   UNL     1      -5.782  -0.773  -1.804  0.00  0.00    +0.013 A 
ATOM     24  C   UNL     1      -4.484  -0.344  -1.899  0.00  0.00    +0.024 A 
BRANCH  19  27
ATOM     25  C   UNL     1      -1.979   0.980  -1.565  0.00  0.00    +0.220 C 
ATOM     26  O   UNL     1      -2.869   1.632  -2.069  0.00  0.00    -0.275 OA
ATOM     27  N   UNL     1      -2.256  -0.206  -0.988  0.00  0.00    -0.285 N 
ATOM     28  H   UNL     1      -1.536  -0.758  -0.644  0.00  0.00    +0.155 HD
BRANCH  25  30
ATOM     29  C   UNL     1       0.331   0.505  -2.331  0.00  0.00    +0.017 C 
ATOM     30  C   UNL     1      -0.564   1.497  -1.585  0.00  0.00    +0.069 C 
ATOM     31  C   UNL     1      -0.525   2.852  -2.294  0.00  0.00    +0.017 C 
ENDBRANCH  25  30
ENDBRANCH  19  27
ENDBRANCH  17  22
ENDBRANCH   1  17
TORSDOF 5
