REMARK  Name = ZINC44974237
REMARK  1 active torsions:
REMARK  status: ('A' for Active; 'I' for Inactive)
REMARK    1  A    between atoms: C_10  and  N_12
REMARK                            x       y       z     vdW  Elec       q    Type
REMARK                         _______ _______ _______ _____ _____    ______ ____
ROOT
ATOM      1  N   UNL     1       4.649   0.018   0.860  0.00  0.00    -0.315 N 
ATOM      2  C   UNL     1       5.349   1.130   0.427  0.00  0.00    +0.182 A 
ATOM      3  N   UNL     1       6.202   1.871   1.082  0.00  0.00    -0.139 NA
ATOM      4  N   UNL     1       6.821   2.965   0.486  0.00  0.00    -0.170 N 
ATOM      5  C   UNL     1       7.725   3.814   1.059  0.00  0.00    +0.275 A 
ATOM      6  O   UNL     1       8.069   3.648   2.219  0.00  0.00    -0.266 OA
ATOM      7  C   UNL     1       8.254   4.870   0.317  0.00  0.00    +0.092 A 
ATOM      8  C   UNL     1       7.861   5.051  -0.992  0.00  0.00    +0.119 A 
ATOM      9  N   UNL     1       6.979   4.206  -1.518  0.00  0.00    -0.230 NA
ATOM     10  C   UNL     1       6.487   3.217  -0.815  0.00  0.00    +0.200 A 
ATOM     11  S   UNL     1       5.325   1.918  -1.175  0.00  0.00    -0.013 S 
ATOM     12  H   UNL     1       4.762  -0.302   1.769  0.00  0.00    +0.149 HD
ENDROOT
BRANCH   1  22
ATOM     13  C   UNL     1      -0.017   1.375   0.010  0.00  0.00    +0.000 A 
ATOM     14  C   UNL     1       1.174   2.078   0.002  0.00  0.00    +0.000 A 
ATOM     15  C   UNL     1       2.372   1.395  -0.016  0.00  0.00    +0.006 A 
ATOM     16  C   UNL     1       2.393   0.006  -0.025  0.00  0.00    -0.024 A 
ATOM     17  C   UNL     1       1.208  -0.694  -0.013  0.00  0.00    -0.042 A 
ATOM     18  C   UNL     1       0.002  -0.004   0.002  0.00  0.00    +0.004 A 
ATOM     19  C   UNL     1       1.155  -2.199  -0.005  0.00  0.00    +0.035 C 
ATOM     20  C   UNL     1       2.493  -2.786  -0.452  0.00  0.00    +0.007 C 
ATOM     21  C   UNL     1       3.607  -2.135   0.376  0.00  0.00    +0.027 C 
ATOM     22  C   UNL     1       3.736  -0.675  -0.053  0.00  0.00    +0.103 C 
ENDBRANCH   1  22
TORSDOF 1
