REMARK  Name = ZINC42103138
REMARK  5 active torsions:
REMARK  status: ('A' for Active; 'I' for Inactive)
REMARK    1  A    between atoms: C_1  and  C_2
REMARK    2  A    between atoms: C_7  and  C_10
REMARK    3  A    between atoms: C_11  and  C_13
REMARK    4  A    between atoms: N_16  and  C_19
REMARK    5  A    between atoms: C_24  and  N_25
REMARK                            x       y       z     vdW  Elec       q    Type
REMARK                         _______ _______ _______ _____ _____    ______ ____
ROOT
ATOM      1  C   UNL     1       4.195   0.967  -1.988  0.00  0.00    +0.078 C 
ATOM      2  C   UNL     1       5.110  -0.248  -1.821  0.00  0.00    +0.031 C 
ATOM      3  C   UNL     1       6.551   0.228  -1.611  0.00  0.00    +0.106 C 
ATOM      4  N   UNL     1       6.923   1.114  -2.722  0.00  0.00    -0.328 N 
ATOM      5  C   UNL     1       6.060   2.264  -3.027  0.00  0.00    +0.106 C 
ATOM      6  C   UNL     1       4.625   1.765  -3.221  0.00  0.00    +0.031 C 
ENDROOT
BRANCH   1  15
ATOM      7  C   UNL     1      -0.158   2.238  -0.762  0.00  0.00    +0.039 C 
ATOM      8  C   UNL     1      -0.223   0.789  -0.275  0.00  0.00    +0.133 C 
ATOM      9  C   UNL     1       0.589  -0.106  -1.218  0.00  0.00    +0.139 C 
ATOM     10  N   UNL     1       2.011   0.243  -1.079  0.00  0.00    -0.296 N 
ATOM     11  C   UNL     1       2.580   0.297   0.277  0.00  0.00    +0.139 C 
ATOM     12  C   UNL     1       1.672   1.173   1.148  0.00  0.00    +0.133 C 
ATOM     13  O   UNL     1       0.324   0.704   1.043  0.00  0.00    -0.371 OA
ATOM     14  C   UNL     1       2.129   1.093   2.606  0.00  0.00    +0.039 C 
ATOM     15  C   UNL     1       2.771   0.504  -2.161  0.00  0.00    +0.219 C 
ATOM     16  O   UNL     1       2.309   0.366  -3.274  0.00  0.00    -0.275 OA
ENDBRANCH   1  15
BRANCH   4  17
ATOM     17  C   UNL     1       8.076   0.869  -3.474  0.00  0.00    +0.060 A 
ATOM     18  C   UNL     1       8.009   0.071  -4.609  0.00  0.00    +0.028 A 
ATOM     19  C   UNL     1       9.149  -0.170  -5.350  0.00  0.00    +0.040 A 
ATOM     20  C   UNL     1      10.358   0.384  -4.962  0.00  0.00    +0.126 A 
ATOM     21  C   UNL     1      10.427   1.180  -3.831  0.00  0.00    +0.073 A 
ATOM     22  C   UNL     1       9.287   1.428  -3.091  0.00  0.00    +0.150 A 
ATOM     23  F   UNL     1      11.472   0.147  -5.689  0.00  0.00    -0.205 F 
BRANCH  22  24
ATOM     24  N   UNL     1       9.360   2.284  -1.885  0.00  0.00    +0.058 N 
ATOM     25  O   UNL     1      10.415   2.771  -1.552  0.00  0.00    -0.126 OA
ATOM     26  O   UNL     1       8.364   2.497  -1.234  0.00  0.00    -0.126 OA
ENDBRANCH  22  24
ENDBRANCH   4  17
TORSDOF 3
