REMARK  Name = ZINC58416066
REMARK  3 active torsions:
REMARK  status: ('A' for Active; 'I' for Inactive)
REMARK    1  A    between atoms: C_8  and  C_12
REMARK    2  A    between atoms: N_14  and  O_15
REMARK    3  A    between atoms: O_15  and  C_16
REMARK                            x       y       z     vdW  Elec       q    Type
REMARK                         _______ _______ _______ _____ _____    ______ ____
ROOT
ATOM      1  C   UNL     1      -0.017   1.372   0.010  0.00  0.00    +0.101 A 
ATOM      2  C   UNL     1       1.119   2.069   0.003  0.00  0.00    +0.067 A 
ATOM      3  S   UNL     1       2.347   0.772  -0.016  0.00  0.00    -0.058 S 
ATOM      4  C   UNL     1       1.228  -0.611  -0.013  0.00  0.00    +0.179 A 
ATOM      5  N   UNL     1       0.002  -0.004   0.002  0.00  0.00    -0.293 N 
ATOM      6  C   UNL     1      -0.946  -1.063   0.005  0.00  0.00    +0.082 A 
ATOM      7  C   UNL     1      -2.322  -1.222   0.017  0.00  0.00    +0.049 A 
ATOM      8  C   UNL     1      -2.856  -2.498   0.014  0.00  0.00    +0.080 A 
ATOM      9  S   UNL     1      -1.396  -3.525  -0.005  0.00  0.00    -0.062 S 
ATOM     10  C   UNL     1      -0.178  -2.233  -0.009  0.00  0.00    +0.128 A 
ATOM     11  N   UNL     1       1.109  -1.912  -0.018  0.00  0.00    -0.214 NA
ENDROOT
BRANCH   8  12
ATOM     12  C   UNL     1      -4.218  -2.890   0.024  0.00  0.00    +0.274 C 
ATOM     13  O   UNL     1      -5.095  -2.045   0.037  0.00  0.00    -0.268 OA
ATOM     14  N   UNL     1      -4.543  -4.198   0.019  0.00  0.00    -0.187 N 
ATOM     15  H   UNL     1      -3.844  -4.871   0.009  0.00  0.00    +0.183 HD
BRANCH  14  16
ATOM     16  O   UNL     1      -5.903  -4.590   0.029  0.00  0.00    -0.248 OA
BRANCH  16  17
ATOM     17  C   UNL     1      -6.100  -6.006   0.023  0.00  0.00    +0.276 C 
ATOM     18  C   UNL     1      -7.415  -6.335  -0.688  0.00  0.00    +0.063 C 
ATOM     19  C   UNL     1      -7.649  -7.848  -0.638  0.00  0.00    +0.007 C 
ATOM     20  C   UNL     1      -7.649  -8.305   0.824  0.00  0.00    +0.028 C 
ATOM     21  C   UNL     1      -6.324  -7.900   1.476  0.00  0.00    +0.163 C 
ATOM     22  O   UNL     1      -6.154  -6.485   1.368  0.00  0.00    -0.349 OA
ENDBRANCH  16  17
ENDBRANCH  14  16
ENDBRANCH   8  12
TORSDOF 3
