REMARK  Name = ZINC39697821
REMARK  9 active torsions:
REMARK  status: ('A' for Active; 'I' for Inactive)
REMARK    1  A    between atoms: C_1  and  N_2
REMARK    2  A    between atoms: N_2  and  C_3
REMARK    3  A    between atoms: N_2  and  C_4
REMARK    4  A    between atoms: C_7  and  C_10
REMARK    5  A    between atoms: C_11  and  C_12
REMARK    6  A    between atoms: C_11  and  N_26
REMARK    7  A    between atoms: N_14  and  N_15
REMARK    8  A    between atoms: C_16  and  C_17
REMARK    9  A    between atoms: C_27  and  C_29
REMARK                            x       y       z     vdW  Elec       q    Type
REMARK                         _______ _______ _______ _____ _____    ______ ____
ROOT
ATOM      1  C   UNL     1       0.156  -3.053  -5.460  0.00  0.00    +0.036 C 
ATOM      2  C   UNL     1       0.394  -1.956  -6.222  0.00  0.00    +0.098 C 
ENDROOT
BRANCH   1   6
ATOM      3  C   UNL     1      -1.066  -2.605  -1.424  0.00  0.00    +0.029 A 
ATOM      4  C   UNL     1      -0.271  -3.687  -1.792  0.00  0.00    +0.023 A 
ATOM      5  C   UNL     1       0.128  -3.836  -3.100  0.00  0.00    +0.010 A 
ATOM      6  C   UNL     1      -0.267  -2.898  -4.062  0.00  0.00    -0.023 A 
ATOM      7  C   UNL     1      -1.067  -1.811  -3.687  0.00  0.00    +0.010 A 
ATOM      8  C   UNL     1      -1.466  -1.673  -2.377  0.00  0.00    +0.023 A 
BRANCH   3  10
ATOM      9  C   UNL     1      -2.310  -1.324   0.290  0.00  0.00    +0.129 C 
ATOM     10  N   UNL     1      -1.468  -2.458  -0.099  0.00  0.00    -0.336 N 
ATOM     11  C   UNL     1      -1.048  -3.438   0.907  0.00  0.00    +0.129 C 
ENDBRANCH   3  10
ENDBRANCH   1   6
BRANCH   2  12
ATOM     12  C   UNL     1       0.400  -0.625  -5.609  0.00  0.00    +0.277 C 
ATOM     13  O   UNL     1      -0.511   0.152  -5.830  0.00  0.00    -0.267 OA
ATOM     14  N   UNL     1       1.414  -0.260  -4.799  0.00  0.00    -0.202 N 
ATOM     15  H   UNL     1       2.175  -0.849  -4.680  0.00  0.00    +0.178 HD
BRANCH  14  16
ATOM     16  N   UNL     1       1.369   0.970  -4.130  0.00  0.00    -0.188 NA
ATOM     17  C   UNL     1       2.413   1.389  -3.458  0.00  0.00    +0.136 C 
BRANCH  17  18
ATOM     18  C   UNL     1       3.630   0.704  -3.557  0.00  0.00    +0.000 C 
ATOM     19  C   UNL     1       4.856   1.080  -3.009  0.00  0.00    +0.004 A 
ATOM     20  C   UNL     1       5.253   2.189  -2.232  0.00  0.00    +0.010 A 
ATOM     21  C   UNL     1       6.544   2.301  -1.828  0.00  0.00    +0.001 A 
ATOM     22  C   UNL     1       7.501   1.339  -2.162  0.00  0.00    +0.002 A 
ATOM     23  C   UNL     1       7.191   0.249  -2.905  0.00  0.00    +0.026 A 
ATOM     24  C   UNL     1       5.861   0.063  -3.364  0.00  0.00    +0.043 A 
ATOM     25  N   UNL     1       5.314  -0.892  -4.087  0.00  0.00    -0.380 N 
ATOM     26  C   UNL     1       3.889  -0.602  -4.275  0.00  0.00    +0.150 C 
ATOM     27  H   UNL     1       5.780  -1.668  -4.437  0.00  0.00    +0.160 HD
ENDBRANCH  17  18
ENDBRANCH  14  16
ENDBRANCH   2  12
BRANCH   2  28
ATOM     28  N   UNL     1       0.632  -2.096  -7.593  0.00  0.00    -0.277 N 
ATOM     29  C   UNL     1       0.903  -1.010  -8.344  0.00  0.00    +0.248 C 
ATOM     30  O   UNL     1       1.014   0.081  -7.818  0.00  0.00    -0.270 OA
ATOM     31  H   UNL     1       0.603  -2.974  -8.004  0.00  0.00    +0.155 HD
BRANCH  29  32
ATOM     32  C   UNL     1       1.066  -1.145  -9.807  0.00  0.00    +0.037 A 
ATOM     33  C   UNL     1       0.823  -2.371 -10.430  0.00  0.00    +0.013 A 
ATOM     34  C   UNL     1       0.977  -2.490 -11.795  0.00  0.00    +0.001 A 
ATOM     35  C   UNL     1       1.371  -1.397 -12.548  0.00  0.00    +0.000 A 
ATOM     36  C   UNL     1       1.613  -0.180 -11.937  0.00  0.00    +0.001 A 
ATOM     37  C   UNL     1       1.458  -0.046 -10.573  0.00  0.00    +0.013 A 
ENDBRANCH  29  32
ENDBRANCH   2  28
TORSDOF 7
