REMARK  Name = ZINC67612652
REMARK  3 active torsions:
REMARK  status: ('A' for Active; 'I' for Inactive)
REMARK    1  A    between atoms: C_1  and  C_2
REMARK    2  A    between atoms: N_14  and  C_15
REMARK    3  A    between atoms: C_18  and  C_20
REMARK                            x       y       z     vdW  Elec       q    Type
REMARK                         _______ _______ _______ _____ _____    ______ ____
ROOT
ATOM      1  C   UNL     1       2.782  -1.526   0.267  0.00  0.00    +0.035 C 
ATOM      2  C   UNL     1       2.211  -0.423   1.160  0.00  0.00    +0.121 C 
ATOM      3  C   UNL     1       2.574   0.933   0.601  0.00  0.00    +0.039 A 
ATOM      4  C   UNL     1       3.783   1.515   0.585  0.00  0.00    +0.024 A 
ATOM      5  C   UNL     1       3.636   2.769  -0.044  0.00  0.00    +0.019 A 
ATOM      6  C   UNL     1       2.337   2.902  -0.384  0.00  0.00    +0.086 A 
ATOM      7  N   UNL     1       1.675   1.780   0.012  0.00  0.00    -0.347 N 
ATOM      8  C   UNL     1       0.244   1.500  -0.145  0.00  0.00    +0.140 C 
ATOM      9  C   UNL     1       0.006  -0.007   0.002  0.00  0.00    +0.131 C 
ATOM     10  N   UNL     1       0.738  -0.503   1.179  0.00  0.00    -0.276 N 
ATOM     11  C   UNL     1       0.084  -1.014   2.240  0.00  0.00    +0.303 C 
ATOM     12  O   UNL     1      -1.131  -0.986   2.278  0.00  0.00    -0.253 OA
ATOM     13  N   UNL     1       0.777  -1.557   3.261  0.00  0.00    -0.296 N 
ATOM     14  H   UNL     1       1.746  -1.516   3.266  0.00  0.00    +0.151 HD
ENDROOT
BRANCH  13  15
ATOM     15  C   UNL     1       0.066  -2.210   4.364  0.00  0.00    +0.082 C 
ATOM     16  C   UNL     1       0.617  -3.546   4.867  0.00  0.00    +0.033 C 
ATOM     17  C   UNL     1       0.776  -2.283   5.717  0.00  0.00    +0.041 C 
BRANCH  17  18
ATOM     18  C   UNL     1      -0.074  -2.167   6.956  0.00  0.00    -0.042 A 
ATOM     19  C   UNL     1      -1.074  -3.089   7.197  0.00  0.00    +0.004 A 
ATOM     20  C   UNL     1      -1.854  -2.983   8.333  0.00  0.00    +0.000 A 
ATOM     21  C   UNL     1      -1.633  -1.953   9.229  0.00  0.00    +0.000 A 
ATOM     22  C   UNL     1      -0.631  -1.031   8.989  0.00  0.00    +0.000 A 
ATOM     23  C   UNL     1       0.151  -1.140   7.854  0.00  0.00    +0.004 A 
ENDBRANCH  17  18
ENDBRANCH  13  15
TORSDOF 2
