REMARK  Name = ZINC44764800
REMARK  3 active torsions:
REMARK  status: ('A' for Active; 'I' for Inactive)
REMARK    1  A    between atoms: C_2  and  N_9
REMARK    2  A    between atoms: C_10  and  C_12
REMARK    3  A    between atoms: C_12  and  C_18
REMARK                            x       y       z     vdW  Elec       q    Type
REMARK                         _______ _______ _______ _____ _____    ______ ____
ROOT
ATOM      1  N   UNL     1       1.161   3.487   0.009  0.00  0.00    -0.284 N 
ATOM      2  C   UNL     1       2.317   4.173   0.104  0.00  0.00    +0.237 C 
ATOM      3  O   UNL     1       3.376   3.583   0.091  0.00  0.00    -0.274 OA
ATOM      4  H   UNL     1       0.318   3.962  -0.058  0.00  0.00    +0.155 HD
ENDROOT
BRANCH   1   6
ATOM      5  C   UNL     1       2.132   1.402   0.746  0.00  0.00    +0.043 A 
ATOM      6  C   UNL     1       1.177   2.087   0.008  0.00  0.00    +0.036 A 
ATOM      7  C   UNL     1       0.236   1.382  -0.732  0.00  0.00    +0.043 A 
ATOM      8  C   UNL     1       0.254  -0.000  -0.731  0.00  0.00    +0.044 A 
ATOM      9  C   UNL     1       1.207  -0.681   0.006  0.00  0.00    +0.040 A 
ATOM     10  C   UNL     1       2.145   0.020   0.744  0.00  0.00    +0.044 A 
ATOM     11 CL   UNL     1       3.340  -0.838   1.666  0.00  0.00    -0.083 Cl
ATOM     12 CL   UNL     1      -0.921  -0.883  -1.655  0.00  0.00    -0.083 Cl
ENDBRANCH   1   6
BRANCH   2  13
ATOM     13  C   UNL     1       2.293   5.675   0.225  0.00  0.00    +0.137 C 
ATOM     14  C   UNL     1       1.532   6.075   1.493  0.00  0.00    +0.059 C 
ATOM     15  C   UNL     1       1.580   7.597   1.649  0.00  0.00    +0.162 C 
ATOM     16  O   UNL     1       2.942   8.027   1.696  0.00  0.00    -0.380 OA
ATOM     17  C   UNL     1       3.691   7.722   0.518  0.00  0.00    +0.162 C 
ATOM     18  C   UNL     1       3.727   6.205   0.316  0.00  0.00    +0.059 C 
BRANCH  13  19
ATOM     19  C   UNL     1       1.628   6.254  -0.954  0.00  0.00    +0.079 C 
ATOM     20  N   UNL     1       1.115   6.701  -1.864  0.00  0.00    -0.195 NA
ENDBRANCH  13  19
ENDBRANCH   2  13
TORSDOF 3
