REMARK  Name = ZINC22796208
REMARK  9 active torsions:
REMARK  status: ('A' for Active; 'I' for Inactive)
REMARK    1  A    between atoms: C_1  and  C_2
REMARK    2  A    between atoms: C_5  and  N_9
REMARK    3  A    between atoms: C_6  and  C_8
REMARK    4  A    between atoms: C_10  and  C_12
REMARK    5  A    between atoms: N_14  and  C_15
REMARK    6  A    between atoms: C_15  and  C_16
REMARK    7  A    between atoms: C_16  and  C_18
REMARK    8  A    between atoms: C_16  and  N_25
REMARK    9  A    between atoms: N_28  and  C_31
REMARK                            x       y       z     vdW  Elec       q    Type
REMARK                         _______ _______ _______ _____ _____    ______ ____
ROOT
ATOM      1  C   UNL     1      -1.232   5.022  -1.839  0.00  0.00    +0.128 C 
ENDROOT
BRANCH   1   4
ATOM      2  C   UNL     1      -2.005   6.292   0.092  0.00  0.00    +0.299 C 
ATOM      3  O   UNL     1      -1.520   7.287  -0.405  0.00  0.00    -0.265 OA
ATOM      4  N   UNL     1      -1.915   5.108  -0.546  0.00  0.00    -0.306 N 
ATOM      5  H   UNL     1      -2.354   4.206  -0.096  0.00  0.00    +0.149 HD
BRANCH   2   7
ATOM      6  N   UNL     1      -2.791   7.563   2.048  0.00  0.00    -0.278 N 
ATOM      7  C   UNL     1      -2.701   6.379   1.410  0.00  0.00    +0.303 C 
ATOM      8  O   UNL     1      -3.186   5.384   1.907  0.00  0.00    -0.265 OA
ATOM      9  H   UNL     1      -2.420   8.478   1.563  0.00  0.00    +0.155 HD
BRANCH   6  14
ATOM     10  C   UNL     1      -5.084   7.826   7.228  0.00  0.00    +0.044 C 
ATOM     11  C   UNL     1      -4.475   7.756   5.851  0.00  0.00    -0.050 A 
ATOM     12  C   UNL     1      -4.896   6.787   4.959  0.00  0.00    +0.005 A 
ATOM     13  C   UNL     1      -4.340   6.720   3.697  0.00  0.00    +0.024 A 
ATOM     14  C   UNL     1      -3.356   7.628   3.324  0.00  0.00    +0.037 A 
ATOM     15  C   UNL     1      -2.932   8.597   4.224  0.00  0.00    -0.029 A 
ATOM     16  C   UNL     1      -3.497   8.661   5.484  0.00  0.00    +0.008 A 
ATOM     17  C   UNL     1      -1.861   9.579   3.826  0.00  0.00    +0.045 C 
ENDBRANCH   6  14
ENDBRANCH   2   7
ENDBRANCH   1   4
BRANCH   1  18
ATOM     18  C   UNL     1      -1.169   3.561  -2.287  0.00  0.00    +0.104 C 
BRANCH  18  19
ATOM     19  N   UNL     1      -0.413   2.778  -1.300  0.00  0.00    -0.297 NA
ATOM     20  C   UNL     1       0.576   3.616  -0.609  0.00  0.00    +0.066 C 
ATOM     21  C   UNL     1       1.285   2.785   0.463  0.00  0.00    -0.064 C 
ATOM     22  N   UNL     1       1.930   1.624  -0.167  0.00  0.00    +0.379 N 
ATOM     23  C   UNL     1       0.940   0.786  -0.859  0.00  0.00    -0.064 C 
ATOM     24  C   UNL     1       0.232   1.618  -1.931  0.00  0.00    +0.066 C 
ATOM     25  C   UNL     1       2.685   0.842   0.820  0.00  0.00    -0.096 C 
ATOM     26  H   UNL     1       2.643   1.997  -0.917  0.00  0.00    -0.082 HD
ENDBRANCH  18  19
BRANCH  18  27
ATOM     27  C   UNL     1      -0.484   3.475  -3.627  0.00  0.00    -0.029 A 
ATOM     28  C   UNL     1       0.866   3.754  -3.732  0.00  0.00    +0.008 A 
ATOM     29  C   UNL     1       1.496   3.670  -4.959  0.00  0.00    +0.038 A 
ATOM     30  C   UNL     1       0.772   3.318  -6.086  0.00  0.00    +0.123 A 
ATOM     31  C   UNL     1      -0.581   3.045  -5.981  0.00  0.00    +0.038 A 
ATOM     32  C   UNL     1      -1.208   3.123  -4.751  0.00  0.00    +0.008 A 
ATOM     33  F   UNL     1       1.386   3.242  -7.287  0.00  0.00    -0.205 F 
ENDBRANCH  18  27
ENDBRANCH   1  18
TORSDOF 6
