REMARK  Name = ZINC16609222
REMARK  7 active torsions:
REMARK  status: ('A' for Active; 'I' for Inactive)
REMARK    1  A    between atoms: C_1  and  C_2
REMARK    2  A    between atoms: C_7  and  N_8
REMARK    3  A    between atoms: C_7  and  N_64
REMARK    4  A    between atoms: C_15  and  C_18
REMARK    5  A    between atoms: C_15  and  O_31
REMARK    6  A    between atoms: C_18  and  C_19
REMARK    7  A    between atoms: C_19  and  C_21
REMARK                            x       y       z     vdW  Elec       q    Type
REMARK                         _______ _______ _______ _____ _____    ______ ____
ROOT
ATOM      1  N   UNL     1       7.645   3.888  -5.883  0.00  0.00    -0.285 N 
ATOM      2  C   UNL     1       8.338   2.775  -6.360  0.00  0.00    +0.041 A 
ATOM      3  C   UNL     1       9.009   2.566  -7.563  0.00  0.00    +0.024 A 
ATOM      4  C   UNL     1       9.629   1.359  -7.810  0.00  0.00    +0.002 A 
ATOM      5  C   UNL     1       9.589   0.347  -6.868  0.00  0.00    +0.000 A 
ATOM      6  C   UNL     1       8.924   0.546  -5.671  0.00  0.00    +0.009 A 
ATOM      7  C   UNL     1       8.305   1.751  -5.422  0.00  0.00    +0.014 A 
ATOM      8  C   UNL     1       7.515   2.276  -4.245  0.00  0.00    +0.175 C 
ATOM      9  C   UNL     1       7.134   3.683  -4.657  0.00  0.00    +0.255 C 
ATOM     10  O   UNL     1       6.488   4.474  -4.004  0.00  0.00    -0.272 OA
ENDROOT
BRANCH   8  11
ATOM     11  O   UNL     1       8.325   2.299  -3.068  0.00  0.00    -0.374 OA
ATOM     12  H   UNL     1       7.877   2.655  -2.289  0.00  0.00    +0.211 HD
ENDBRANCH   8  11
BRANCH   1  13
ATOM     13  C   UNL     1       7.493   5.138  -6.632  0.00  0.00    +0.038 C 
BRANCH  13  20
ATOM     14  C   UNL     1       2.327   5.301  -9.073  0.00  0.00    +0.007 C 
ATOM     15  C   UNL     1       3.483   5.454  -8.082  0.00  0.00    -0.018 C 
ATOM     16  C   UNL     1       4.581   6.319  -8.707  0.00  0.00    -0.015 C 
ATOM     17  C   UNL     1       5.760   6.418  -7.736  0.00  0.00    -0.076 C 
ATOM     18  C   UNL     1       5.252   4.238  -6.808  0.00  0.00    -0.076 C 
ATOM     19  C   UNL     1       4.058   4.074  -7.751  0.00  0.00    -0.015 C 
ATOM     20  N   UNL     1       6.283   5.060  -7.476  0.00  0.00    +0.390 N 
ATOM     21  H   UNL     1       6.529   4.621  -8.372  0.00  0.00    -0.080 HD
ENDBRANCH  13  20
ENDBRANCH   1  13
BRANCH   8  22
ATOM     22  C   UNL     1       6.264   1.427  -4.017  0.00  0.00    +0.129 C 
BRANCH  22  23
ATOM     23  C   UNL     1       5.432   2.041  -2.921  0.00  0.00    +0.167 C 
ATOM     24  O   UNL     1       5.803   3.059  -2.376  0.00  0.00    -0.292 OA
BRANCH  23  25
ATOM     25  C   UNL     1       4.169   1.406  -2.512  0.00  0.00    +0.018 A 
ATOM     26  C   UNL     1       3.734   0.232  -3.136  0.00  0.00    +0.011 A 
ATOM     27  C   UNL     1       2.550  -0.347  -2.744  0.00  0.00    +0.004 A 
ATOM     28  C   UNL     1       1.780   0.220  -1.734  0.00  0.00    -0.044 A 
ATOM     29  C   UNL     1       2.204   1.374  -1.111  0.00  0.00    -0.044 A 
ATOM     30  C   UNL     1       3.394   1.970  -1.498  0.00  0.00    +0.015 A 
ATOM     31  C   UNL     1       1.424   2.030  -0.001  0.00  0.00    +0.035 C 
ATOM     32  C   UNL     1      -0.019   1.529   0.010  0.00  0.00    +0.005 C 
ATOM     33  C   UNL     1       0.002  -0.004   0.002  0.00  0.00    +0.005 C 
ATOM     34  C   UNL     1       0.492  -0.472  -1.367  0.00  0.00    +0.035 C 
ENDBRANCH  23  25
ENDBRANCH  22  23
ENDBRANCH   8  22
TORSDOF 6
