REMARK  Name = ZINC13055748
REMARK  6 active torsions:
REMARK  status: ('A' for Active; 'I' for Inactive)
REMARK    1  A    between atoms: C_6  and  S_11
REMARK    2  A    between atoms: S_11  and  N_14
REMARK    3  A    between atoms: N_17  and  C_20
REMARK    4  A    between atoms: C_20  and  C_21
REMARK    5  A    between atoms: N_23  and  C_24
REMARK    6  A    between atoms: C_25  and  C_32
REMARK                            x       y       z     vdW  Elec       q    Type
REMARK                         _______ _______ _______ _____ _____    ______ ____
ROOT
ATOM      1  N   UNL     1       5.677  -3.066   1.513  0.00  0.00    -0.174 NA
ATOM      2  C   UNL     1       6.481  -2.067   2.233  0.00  0.00    +0.125 C 
ATOM      3  C   UNL     1       5.787  -1.749   3.562  0.00  0.00    +0.102 C 
ATOM      4  N   UNL     1       5.546  -2.999   4.296  0.00  0.00    -0.291 NA
ATOM      5  C   UNL     1       4.631  -3.881   3.559  0.00  0.00    +0.102 C 
ATOM      6  C   UNL     1       5.273  -4.284   2.232  0.00  0.00    +0.125 C 
ENDROOT
BRANCH   1   7
ATOM      7  S   UNL     1       5.231  -2.823  -0.063  0.00  0.00    +0.061 S 
ATOM      8  O   UNL     1       4.984  -4.107  -0.618  0.00  0.00    -0.153 OA
ATOM      9  O   UNL     1       6.181  -1.923  -0.619  0.00  0.00    -0.153 OA
BRANCH   7  15
ATOM     10  C   UNL     1      -0.016   1.357   0.009  0.00  0.00    +0.001 A 
ATOM     11  C   UNL     1       1.169   2.091   0.002  0.00  0.00    +0.001 A 
ATOM     12  C   UNL     1       2.378   1.468  -0.013  0.00  0.00    +0.008 A 
ATOM     13  C   UNL     1       2.438   0.063  -0.021  0.00  0.00    -0.016 A 
ATOM     14  C   UNL     1       3.668  -0.615  -0.036  0.00  0.00    +0.037 A 
ATOM     15  C   UNL     1       3.687  -1.976  -0.043  0.00  0.00    +0.106 A 
ATOM     16  C   UNL     1       2.502  -2.710  -0.036  0.00  0.00    +0.029 A 
ATOM     17  C   UNL     1       1.292  -2.087  -0.021  0.00  0.00    +0.010 A 
ATOM     18  C   UNL     1       1.233  -0.683  -0.013  0.00  0.00    -0.018 A 
ATOM     19  C   UNL     1       0.002  -0.004   0.002  0.00  0.00    +0.008 A 
ENDBRANCH   7  15
ENDBRANCH   1   7
BRANCH   4  20
ATOM     20  C   UNL     1       5.039  -2.726   5.648  0.00  0.00    +0.180 C 
BRANCH  20  21
ATOM     21  C   UNL     1       5.036  -4.001   6.450  0.00  0.00    +0.232 C 
ATOM     22  O   UNL     1       5.418  -5.036   5.946  0.00  0.00    -0.274 OA
ATOM     23  N   UNL     1       4.609  -3.992   7.728  0.00  0.00    -0.278 N 
ATOM     24  H   UNL     1       4.303  -3.165   8.132  0.00  0.00    +0.155 HD
BRANCH  23  25
ATOM     25  C   UNL     1       4.606  -5.166   8.467  0.00  0.00    +0.084 A 
ATOM     26  C   UNL     1       4.201  -5.345   9.776  0.00  0.00    +0.068 A 
ATOM     27  C   UNL     1       4.297  -6.696  10.328  0.00  0.00    -0.023 A 
ATOM     28  C   UNL     1       4.782  -7.607   9.466  0.00  0.00    -0.004 A 
ATOM     29  S   UNL     1       5.086  -6.695   7.974  0.00  0.00    -0.077 S 
ATOM     30  C   UNL     1       4.864  -8.976  10.085  0.00  0.00    +0.043 C 
ATOM     31  C   UNL     1       4.764  -8.724  11.606  0.00  0.00    +0.010 C 
ATOM     32  C   UNL     1       3.991  -7.390  11.653  0.00  0.00    +0.037 C 
BRANCH  26  33
ATOM     33  C   UNL     1       3.695  -4.227  10.579  0.00  0.00    +0.244 C 
ATOM     34  O   UNL     1       2.506  -3.969  10.581  0.00  0.00    -0.270 OA
ATOM     35  N   UNL     1       4.548  -3.486  11.314  0.00  0.00    -0.325 N 
ATOM     36  H   UNL     1       5.496  -3.692  11.312  0.00  0.00    +0.145 HD
ATOM     37  H   UNL     1       4.214  -2.746  11.845  0.00  0.00    +0.145 HD
ENDBRANCH  26  33
ENDBRANCH  23  25
ENDBRANCH  20  21
ENDBRANCH   4  20
TORSDOF 6
