REMARK  Name = ZINC04373490
REMARK  8 active torsions:
REMARK  status: ('A' for Active; 'I' for Inactive)
REMARK    1  A    between atoms: C_1  and  C_2
REMARK    2  A    between atoms: C_2  and  O_3
REMARK    3  A    between atoms: O_3  and  C_4
REMARK    4  A    between atoms: C_7  and  C_10
REMARK    5  A    between atoms: C_12  and  C_21
REMARK    6  A    between atoms: C_13  and  C_20
REMARK    7  A    between atoms: N_23  and  C_24
REMARK    8  A    between atoms: C_29  and  C_30
REMARK                            x       y       z     vdW  Elec       q    Type
REMARK                         _______ _______ _______ _____ _____    ______ ____
ROOT
ATOM      1  C   UNL     1       1.052  -6.122  -1.770  0.00  0.00    +0.177 C 
ATOM      2  C   UNL     1       2.518  -6.459  -1.831  0.00  0.00    +0.060 C 
ATOM      3  C   UNL     1       3.138  -6.830  -2.961  0.00  0.00    +0.018 C 
ATOM      4  N   UNL     1       2.473  -6.942  -4.157  0.00  0.00    -0.287 N 
ATOM      5  C   UNL     1       1.086  -6.917  -4.122  0.00  0.00    +0.218 A 
ATOM      6  N   UNL     1       0.405  -6.540  -3.011  0.00  0.00    -0.221 N 
ATOM      7  N   UNL     1      -0.950  -6.639  -3.323  0.00  0.00    -0.156 NA
ATOM      8  C   UNL     1      -1.022  -7.051  -4.565  0.00  0.00    +0.247 A 
ATOM      9  N   UNL     1       0.214  -7.217  -5.046  0.00  0.00    -0.201 NA
ATOM     10  C   UNL     1       4.613  -7.133  -2.916  0.00  0.00    +0.061 C 
ATOM     11  H   UNL     1       2.955  -7.035  -4.994  0.00  0.00    +0.155 HD
ENDROOT
BRANCH   1  15
ATOM     12  C   UNL     1       0.580  -1.905  -1.267  0.00  0.00    +0.121 A 
ATOM     13  C   UNL     1       0.075  -2.779  -0.316  0.00  0.00    +0.046 A 
ATOM     14  C   UNL     1       0.228  -4.141  -0.481  0.00  0.00    +0.009 A 
ATOM     15  C   UNL     1       0.885  -4.635  -1.593  0.00  0.00    -0.018 A 
ATOM     16  C   UNL     1       1.390  -3.766  -2.542  0.00  0.00    +0.009 A 
ATOM     17  C   UNL     1       1.234  -2.402  -2.385  0.00  0.00    +0.046 A 
BRANCH  12  18
ATOM     18  O   UNL     1       0.430  -0.563  -1.107  0.00  0.00    -0.492 OA
BRANCH  18  20
ATOM     19  C   UNL     1      -0.325   1.406   0.073  0.00  0.00    +0.048 C 
ATOM     20  C   UNL     1      -0.254  -0.123   0.068  0.00  0.00    +0.225 C 
ENDBRANCH  18  20
ENDBRANCH  12  18
ENDBRANCH   1  15
BRANCH   2  21
ATOM     21  C   UNL     1       3.277  -6.381  -0.639  0.00  0.00    +0.248 C 
ATOM     22  O   UNL     1       3.171  -7.250   0.208  0.00  0.00    -0.270 OA
ATOM     23  N   UNL     1       4.117  -5.346  -0.442  0.00  0.00    -0.281 N 
ATOM     24  H   UNL     1       4.155  -4.623  -1.088  0.00  0.00    +0.155 HD
BRANCH  23  25
ATOM     25  C   UNL     1       4.933  -5.314   0.693  0.00  0.00    +0.037 A 
ATOM     26  C   UNL     1       4.472  -5.833   1.896  0.00  0.00    +0.023 A 
ATOM     27  C   UNL     1       5.281  -5.800   3.015  0.00  0.00    +0.002 A 
ATOM     28  C   UNL     1       6.548  -5.251   2.939  0.00  0.00    +0.000 A 
ATOM     29  C   UNL     1       7.010  -4.734   1.743  0.00  0.00    +0.005 A 
ATOM     30  C   UNL     1       6.208  -4.770   0.618  0.00  0.00    -0.029 A 
ATOM     31  C   UNL     1       6.715  -4.212  -0.687  0.00  0.00    +0.045 C 
ENDBRANCH  23  25
ENDBRANCH   2  21
TORSDOF 5
