REMARK  Name = ZINC21216348
REMARK  3 active torsions:
REMARK  status: ('A' for Active; 'I' for Inactive)
REMARK    1  A    between atoms: C_4  and  C_9
REMARK    2  A    between atoms: C_5  and  C_7
REMARK    3  A    between atoms: C_14  and  C_15
REMARK                            x       y       z     vdW  Elec       q    Type
REMARK                         _______ _______ _______ _____ _____    ______ ____
ROOT
ATOM      1  C   UNL     1       3.723  -0.662  -0.038  0.00  0.00    -0.005 A 
ATOM      2  C   UNL     1       4.590  -0.560   1.048  0.00  0.00    +0.009 A 
ATOM      3  C   UNL     1       5.802  -1.221   1.028  0.00  0.00    +0.001 A 
ATOM      4  C   UNL     1       6.165  -1.988  -0.067  0.00  0.00    +0.001 A 
ATOM      5  C   UNL     1       5.320  -2.101  -1.152  0.00  0.00    +0.013 A 
ATOM      6  C   UNL     1       4.089  -1.446  -1.148  0.00  0.00    +0.045 A 
ENDROOT
BRANCH   6   7
ATOM      7  C   UNL     1       3.178  -1.568  -2.303  0.00  0.00    +0.250 C 
ATOM      8  O   UNL     1       2.108  -0.991  -2.297  0.00  0.00    -0.270 OA
ATOM      9  N   UNL     1       3.532  -2.320  -3.363  0.00  0.00    -0.259 N 
ATOM     10  C   UNL     1       2.675  -2.436  -4.451  0.00  0.00    +0.188 A 
ATOM     11  N   UNL     1       1.481  -1.897  -4.657  0.00  0.00    -0.126 NA
ATOM     12  N   UNL     1       0.829  -2.109  -5.715  0.00  0.00    -0.148 NA
ATOM     13  C   UNL     1       1.290  -2.877  -6.682  0.00  0.00    +0.183 A 
ATOM     14  S   UNL     1       2.868  -3.349  -5.979  0.00  0.00    -0.039 S 
ATOM     15  H   UNL     1       4.386  -2.781  -3.368  0.00  0.00    +0.157 HD
ENDBRANCH   6   7
BRANCH   1  19
ATOM     16  C   UNL     1      -0.017   1.375   0.010  0.00  0.00    +0.001 A 
ATOM     17  C   UNL     1       1.168   2.093   0.002  0.00  0.00    +0.001 A 
ATOM     18  C   UNL     1       2.383   1.438  -0.013  0.00  0.00    +0.010 A 
ATOM     19  C   UNL     1       2.423   0.045  -0.021  0.00  0.00    +0.000 A 
ATOM     20  C   UNL     1       1.220  -0.685  -0.013  0.00  0.00    +0.059 A 
ATOM     21  C   UNL     1       0.002  -0.004   0.002  0.00  0.00    +0.019 A 
BRANCH  20  22
ATOM     22  C   UNL     1       1.246  -2.116  -0.021  0.00  0.00    +0.100 C 
ATOM     23  N   UNL     1       1.266  -3.252  -0.028  0.00  0.00    -0.191 NA
ENDBRANCH  20  22
ENDBRANCH   1  19
TORSDOF 3
