REMARK  Name = ZINC02736889
REMARK  5 active torsions:
REMARK  status: ('A' for Active; 'I' for Inactive)
REMARK    1  A    between atoms: C_3  and  N_23
REMARK    2  A    between atoms: C_6  and  C_7
REMARK    3  A    between atoms: C_7  and  C_8
REMARK    4  A    between atoms: N_10  and  C_11
REMARK    5  A    between atoms: C_12  and  C_21
REMARK                            x       y       z     vdW  Elec       q    Type
REMARK                         _______ _______ _______ _____ _____    ______ ____
ROOT
ATOM      1  C   UNL     1       1.157   4.087   1.434  0.00  0.00    +0.222 C 
ATOM      2  O   UNL     1       1.177   3.294   2.351  0.00  0.00    -0.275 OA
ATOM      3  N   UNL     1       1.142   5.411   1.688  0.00  0.00    -0.279 N 
ATOM      4  H   UNL     1       1.126   6.045   0.954  0.00  0.00    +0.155 HD
ENDROOT
BRANCH   3   5
ATOM      5  C   UNL     1       1.148   5.866   2.999  0.00  0.00    +0.090 A 
ATOM      6  C   UNL     1       1.140   7.173   3.456  0.00  0.00    +0.084 A 
ATOM      7  C   UNL     1       1.143   7.389   4.896  0.00  0.00    -0.018 A 
ATOM      8  C   UNL     1       1.169   6.261   5.640  0.00  0.00    -0.004 A 
ATOM      9  S   UNL     1       1.175   4.938   4.461  0.00  0.00    -0.077 S 
ATOM     10  C   UNL     1       1.204   6.150   7.132  0.00  0.00    +0.043 C 
ATOM     11  C   UNL     1       0.119   7.054   7.732  0.00  0.00    +0.005 C 
ATOM     12  C   UNL     1       0.720   8.436   7.968  0.00  0.00    +0.001 C 
ATOM     13  C   UNL     1       1.763   8.746   6.897  0.00  0.00    +0.005 C 
ATOM     14  C   UNL     1       1.116   8.780   5.517  0.00  0.00    +0.037 C 
BRANCH   6  15
ATOM     15  C   UNL     1       1.126   8.277   2.543  0.00  0.00    +0.102 C 
ATOM     16  N   UNL     1       1.115   9.152   1.819  0.00  0.00    -0.191 NA
ENDBRANCH   6  15
ENDBRANCH   3   5
BRANCH   1  17
ATOM     17  C   UNL     1       1.151   3.592   0.010  0.00  0.00    +0.131 C 
BRANCH  17  23
ATOM     18  C   UNL     1      -0.017   1.378   0.010  0.00  0.00    +0.006 A 
ATOM     19  C   UNL     1       0.002  -0.004   0.002  0.00  0.00    +0.033 A 
ATOM     20  C   UNL     1       1.208  -0.679  -0.014  0.00  0.00    +0.126 A 
ATOM     21  C   UNL     1       2.396   0.029  -0.021  0.00  0.00    +0.033 A 
ATOM     22  C   UNL     1       2.377   1.411  -0.014  0.00  0.00    +0.006 A 
ATOM     23  C   UNL     1       1.171   2.086   0.002  0.00  0.00    -0.038 A 
BRANCH  20  24
ATOM     24  N   UNL     1       1.228  -2.159  -0.022  0.00  0.00    +0.056 N 
ATOM     25  O   UNL     1       0.182  -2.782  -0.015  0.00  0.00    -0.126 OA
ATOM     26  O   UNL     1       2.291  -2.753  -0.036  0.00  0.00    -0.126 OA
ENDBRANCH  20  24
ENDBRANCH  17  23
ENDBRANCH   1  17
TORSDOF 5
