REMARK  Name = ZINC40324878
REMARK  4 active torsions:
REMARK  status: ('A' for Active; 'I' for Inactive)
REMARK    1  A    between atoms: C_1  and  C_2
REMARK    2  A    between atoms: C_3  and  N_21
REMARK    3  A    between atoms: C_7  and  S_8
REMARK    4  A    between atoms: S_8  and  N_11
REMARK                            x       y       z     vdW  Elec       q    Type
REMARK                         _______ _______ _______ _____ _____    ______ ____
ROOT
ATOM      1  S   UNL     1      -0.026   0.368   2.602  0.00  0.00    +0.075 S 
ATOM      2  O   UNL     1      -1.163   1.194   2.811  0.00  0.00    -0.150 OA
ATOM      3  O   UNL     1       0.318  -0.692   3.483  0.00  0.00    -0.150 OA
ENDROOT
BRANCH   1   4
ATOM      4  N   UNL     1       1.286   1.375   2.538  0.00  0.00    -0.201 N 
ATOM      5  C   UNL     1       2.572   0.873   3.012  0.00  0.00    +0.142 C 
ATOM      6  C   UNL     1       3.122   1.842   4.071  0.00  0.00    +0.095 C 
ATOM      7  S   UNL     1       3.464   3.424   3.244  0.00  0.00    -0.122 S 
ATOM      8  C   UNL     1       2.013   3.697   2.277  0.00  0.00    +0.031 A 
ATOM      9  C   UNL     1       1.113   2.663   2.029  0.00  0.00    +0.065 A 
ATOM     10  C   UNL     1      -0.014   2.914   1.251  0.00  0.00    +0.026 A 
ATOM     11  C   UNL     1      -0.239   4.173   0.729  0.00  0.00    +0.002 A 
ATOM     12  C   UNL     1       0.656   5.197   0.976  0.00  0.00    +0.001 A 
ATOM     13  C   UNL     1       1.778   4.963   1.756  0.00  0.00    +0.016 A 
ENDBRANCH   1   4
BRANCH   1  20
ATOM     14  C   UNL     1      -2.501  -1.101   1.675  0.00  0.00    +0.048 C 
ATOM     15  C   UNL     1      -1.382  -1.000   0.670  0.00  0.00    -0.003 A 
ATOM     16  C   UNL     1      -1.530  -1.559  -0.593  0.00  0.00    +0.029 A 
ATOM     17  C   UNL     1      -0.497  -1.464  -1.516  0.00  0.00    +0.023 A 
ATOM     18  C   UNL     1       0.673  -0.814  -1.176  0.00  0.00    +0.004 A 
ATOM     19  C   UNL     1       0.817  -0.259   0.082  0.00  0.00    +0.029 A 
ATOM     20  C   UNL     1      -0.212  -0.347   1.002  0.00  0.00    +0.113 A 
BRANCH  16  21
ATOM     21  N   UNL     1      -2.715  -2.216  -0.934  0.00  0.00    -0.358 N 
ATOM     22  H   UNL     1      -3.435  -2.283  -0.288  0.00  0.00    +0.142 HD
ATOM     23  H   UNL     1      -2.817  -2.606  -1.816  0.00  0.00    +0.142 HD
ENDBRANCH  16  21
ENDBRANCH   1  20
TORSDOF 3
