REMARK  Name = ZINC32842921
REMARK  8 active torsions:
REMARK  status: ('A' for Active; 'I' for Inactive)
REMARK    1  A    between atoms: C_1  and  O_2
REMARK    2  A    between atoms: O_2  and  C_3
REMARK    3  A    between atoms: C_5  and  O_22
REMARK    4  A    between atoms: C_8  and  N_9
REMARK    5  A    between atoms: C_10  and  C_12
REMARK    6  A    between atoms: C_14  and  S_17
REMARK    7  A    between atoms: S_17  and  N_20
REMARK    8  A    between atoms: O_22  and  C_23
REMARK                            x       y       z     vdW  Elec       q    Type
REMARK                         _______ _______ _______ _____ _____    ______ ____
ROOT
ATOM      1  N   UNL     1      -5.949  -0.013   1.862  0.00  0.00    -0.279 N 
ATOM      2  C   UNL     1      -6.781   0.734   2.614  0.00  0.00    +0.249 C 
ATOM      3  O   UNL     1      -6.402   1.798   3.067  0.00  0.00    -0.270 OA
ATOM      4  H   UNL     1      -6.319  -0.929   1.377  0.00  0.00    +0.155 HD
ENDROOT
BRANCH   1  10
ATOM      5  C   UNL     1      -3.897  -0.038   0.577  0.00  0.00    +0.145 A 
ATOM      6  C   UNL     1      -2.576   0.347   0.418  0.00  0.00    +0.094 A 
ATOM      7  C   UNL     1      -1.967   1.145   1.376  0.00  0.00    +0.142 A 
ATOM      8  C   UNL     1      -2.679   1.553   2.495  0.00  0.00    +0.084 A 
ATOM      9  C   UNL     1      -3.999   1.174   2.654  0.00  0.00    +0.050 A 
ATOM     10  C   UNL     1      -4.611   0.376   1.698  0.00  0.00    +0.077 A 
ATOM     11 CL   UNL     1      -1.912   2.546   3.695  0.00  0.00    -0.080 Cl
BRANCH   5  13
ATOM     12  C   UNL     1      -3.702  -1.207  -1.485  0.00  0.00    +0.277 C 
ATOM     13  O   UNL     1      -4.495  -0.820  -0.361  0.00  0.00    -0.493 OA
ENDBRANCH   5  13
BRANCH   7  14
ATOM     14  O   UNL     1      -0.670   1.523   1.220  0.00  0.00    -0.494 OA
ATOM     15  C   UNL     1       0.004   1.062   0.047  0.00  0.00    +0.277 C 
ENDBRANCH   7  14
ENDBRANCH   1  10
BRANCH   2  16
ATOM     16  C   UNL     1      -8.149   0.264   2.885  0.00  0.00    +0.046 A 
ATOM     17  C   UNL     1      -9.064   1.035   3.689  0.00  0.00    +0.049 A 
ATOM     18  C   UNL     1     -10.296   0.524   3.877  0.00  0.00    +0.143 A 
ATOM     19  S   UNL     1     -10.235  -1.015   2.982  0.00  0.00    -0.076 S 
ATOM     20  C   UNL     1      -8.611  -0.936   2.387  0.00  0.00    +0.060 A 
BRANCH  18  21
ATOM     21  S   UNL     1     -11.639   1.206   4.792  0.00  0.00    +0.062 S 
ATOM     22  O   UNL     1     -12.469   0.117   5.170  0.00  0.00    -0.153 OA
ATOM     23  O   UNL     1     -11.071   2.097   5.743  0.00  0.00    -0.153 OA
BRANCH  21  24
ATOM     24  N   UNL     1     -12.524   2.134   3.744  0.00  0.00    -0.203 NA
ATOM     25  H   UNL     1     -13.375   2.580   4.279  0.00  0.00    +0.144 HD
ATOM     26  H   UNL     1     -12.896   1.505   2.922  0.00  0.00    +0.144 HD
ENDBRANCH  21  24
ENDBRANCH  18  21
ENDBRANCH   2  16
TORSDOF 6
