REMARK  Name = ZINC59350620
REMARK  2 active torsions:
REMARK  status: ('A' for Active; 'I' for Inactive)
REMARK    1  A    between atoms: C_2  and  C_13
REMARK    2  A    between atoms: C_19  and  C_22
REMARK                            x       y       z     vdW  Elec       q    Type
REMARK                         _______ _______ _______ _____ _____    ______ ____
ROOT
ATOM      1  C   UNL     1       1.180   3.560   0.010  0.00  0.00    +0.247 C 
ATOM      2  O   UNL     1       0.128   4.162  -0.084  0.00  0.00    -0.270 OA
ATOM      3  N   UNL     1       2.340   4.241   0.104  0.00  0.00    -0.297 N 
ATOM      4  C   UNL     1       3.627   3.533   0.084  0.00  0.00    +0.108 C 
ATOM      5  C   UNL     1       4.509   4.145  -1.009  0.00  0.00    +0.020 C 
ATOM      6  C   UNL     1       4.625   5.654  -0.779  0.00  0.00    +0.016 C 
ATOM      7  C   UNL     1       3.237   6.293  -0.865  0.00  0.00    +0.093 C 
ATOM      8  C   UNL     1       2.340   5.705   0.223  0.00  0.00    +0.120 C 
ENDROOT
BRANCH   1  10
ATOM      9  C   UNL     1       2.030   1.395   0.899  0.00  0.00    +0.062 A 
ATOM     10  C   UNL     1       1.188   2.084   0.021  0.00  0.00    +0.042 A 
ATOM     11  C   UNL     1       0.354   1.374  -0.846  0.00  0.00    +0.037 A 
ATOM     12  C   UNL     1       0.360  -0.006  -0.836  0.00  0.00    +0.087 A 
ATOM     13  C   UNL     1       1.198  -0.687   0.037  0.00  0.00    +0.180 A 
ATOM     14  C   UNL     1       2.030   0.014   0.901  0.00  0.00    +0.164 A 
ATOM     15  O   UNL     1       2.849  -0.671   1.753  0.00  0.00    -0.488 OA
ATOM     16  C   UNL     1       2.198  -1.395   2.799  0.00  0.00    +0.232 C 
ATOM     17  C   UNL     1       1.748  -2.763   2.309  0.00  0.00    +0.082 C 
ATOM     18  C   UNL     1       0.684  -2.669   1.227  0.00  0.00    +0.232 C 
ATOM     19  O   UNL     1       1.209  -2.051   0.051  0.00  0.00    -0.487 OA
ATOM     20 CL   UNL     1      -0.678  -0.888  -1.912  0.00  0.00    -0.080 Cl
ENDBRANCH   1  10
BRANCH   7  21
ATOM     21  C   UNL     1       3.356   7.782  -0.671  0.00  0.00    +0.223 C 
ATOM     22  O   UNL     1       4.444   8.285  -0.484  0.00  0.00    -0.275 OA
ATOM     23  N   UNL     1       2.253   8.557  -0.707  0.00  0.00    -0.263 N 
ATOM     24  C   UNL     1       2.363   9.932  -0.529  0.00  0.00    +0.187 A 
ATOM     25  N   UNL     1       3.443  10.660  -0.321  0.00  0.00    -0.126 NA
ATOM     26  N   UNL     1       3.385  11.914  -0.176  0.00  0.00    -0.148 NA
ATOM     27  C   UNL     1       2.212  12.512  -0.234  0.00  0.00    +0.183 A 
ATOM     28  S   UNL     1       1.152  11.104  -0.529  0.00  0.00    -0.039 S 
ATOM     29  H   UNL     1       1.383   8.155  -0.857  0.00  0.00    +0.157 HD
ENDBRANCH   7  21
TORSDOF 2
