REMARK  Name = ZINC41547375
REMARK  6 active torsions:
REMARK  status: ('A' for Active; 'I' for Inactive)
REMARK    1  A    between atoms: C_1  and  C_2
REMARK    2  A    between atoms: N_11  and  C_15
REMARK    3  A    between atoms: C_15  and  C_16
REMARK    4  A    between atoms: C_16  and  C_18
REMARK    5  A    between atoms: C_18  and  C_20
REMARK    6  A    between atoms: C_18  and  C_22
REMARK                            x       y       z     vdW  Elec       q    Type
REMARK                         _______ _______ _______ _____ _____    ______ ____
ROOT
ATOM      1  C   UNL     1       0.904   1.505   4.347  0.00  0.00    +0.194 C 
ENDROOT
BRANCH   1  11
ATOM      2  C   UNL     1      -0.019   1.526   0.010  0.00  0.00    +0.010 C 
ATOM      3  C   UNL     1       0.002  -0.004   0.002  0.00  0.00    +0.018 C 
ATOM      4  C   UNL     1      -1.434  -0.533   0.012  0.00  0.00    +0.006 C 
ATOM      5  C   UNL     1      -1.413  -2.063   0.024  0.00  0.00    +0.000 C 
ATOM      6  C   UNL     1      -0.690  -2.554   1.280  0.00  0.00    +0.003 C 
ATOM      7  C   UNL     1       0.749  -2.033   1.276  0.00  0.00    +0.035 C 
ATOM      8  C   UNL     1       0.741  -0.509   1.237  0.00  0.00    +0.115 C 
ATOM      9  C   UNL     1       0.111   0.049   2.493  0.00  0.00    +0.247 C 
ATOM     10  O   UNL     1      -1.023  -0.123   2.884  0.00  0.00    -0.273 OA
ATOM     11  N   UNL     1       1.078   0.778   3.087  0.00  0.00    -0.217 N 
ATOM     12  C   UNL     1       2.217   0.755   2.383  0.00  0.00    +0.310 C 
ATOM     13  O   UNL     1       3.230   1.337   2.717  0.00  0.00    -0.252 OA
ATOM     14  N   UNL     1       2.113   0.013   1.264  0.00  0.00    -0.285 N 
ATOM     15  H   UNL     1       2.808  -0.145   0.606  0.00  0.00    +0.151 HD
ENDBRANCH   1  11
BRANCH   1  16
ATOM     16  C   UNL     1       1.267   0.606   5.501  0.00  0.00    +0.177 C 
ATOM     17  O   UNL     1       1.633  -0.525   5.292  0.00  0.00    -0.294 OA
BRANCH  16  18
ATOM     18  C   UNL     1       1.172   1.119   6.915  0.00  0.00    +0.244 C 
BRANCH  18  19
ATOM     19  C   UNL     1       2.200   0.425   7.771  0.00  0.00    +0.221 A 
ATOM     20  N   UNL     1       2.261  -0.858   7.963  0.00  0.00    -0.212 NA
ATOM     21  C   UNL     1       3.311  -1.128   8.786  0.00  0.00    +0.110 A 
ATOM     22  C   UNL     1       3.842  -2.303   9.321  0.00  0.00    +0.031 A 
ATOM     23  C   UNL     1       4.943  -2.241  10.145  0.00  0.00    +0.002 A 
ATOM     24  C   UNL     1       5.527  -1.019  10.447  0.00  0.00    +0.004 A 
ATOM     25  C   UNL     1       5.013   0.150   9.926  0.00  0.00    +0.048 A 
ATOM     26  C   UNL     1       3.905   0.106   9.093  0.00  0.00    +0.155 A 
ATOM     27  O   UNL     1       3.187   1.044   8.438  0.00  0.00    -0.438 OA
ENDBRANCH  18  19
BRANCH  18  28
ATOM     28  C   UNL     1      -0.173   0.848   7.446  0.00  0.00    +0.083 C 
ATOM     29  N   UNL     1      -1.212   0.638   7.856  0.00  0.00    -0.195 NA
ENDBRANCH  18  28
ENDBRANCH  16  18
ENDBRANCH   1  16
TORSDOF 5
