REMARK  Name = ZINC63970472
REMARK  4 active torsions:
REMARK  status: ('A' for Active; 'I' for Inactive)
REMARK    1  A    between atoms: C_1  and  N_2
REMARK    2  A    between atoms: N_2  and  C_3
REMARK    3  A    between atoms: C_3  and  C_4
REMARK    4  A    between atoms: N_14  and  C_15
REMARK                            x       y       z     vdW  Elec       q    Type
REMARK                         _______ _______ _______ _____ _____    ______ ____
ROOT
ATOM      1  C   UNL     1      -0.018   1.461   0.010  0.00  0.00    +0.134 C 
ATOM      2  N   UNL     1       0.002  -0.004   0.002  0.00  0.00    -0.284 N 
ATOM      3  C   UNL     1       0.000  -0.672  -1.169  0.00  0.00    +0.306 C 
ATOM      4  O   UNL     1       0.017  -1.887  -1.175  0.00  0.00    -0.252 OA
ATOM      5  N   UNL     1      -0.020   0.009  -2.332  0.00  0.00    -0.270 N 
ATOM      6  H   UNL     1      -0.033   0.978  -2.327  0.00  0.00    +0.156 HD
ENDROOT
BRANCH   5   7
ATOM      7  C   UNL     1      -0.022  -0.674  -3.529  0.00  0.00    +0.055 C 
ATOM      8  C   UNL     1      -0.012  -2.009  -3.728  0.00  0.00    +0.155 C 
ATOM      9  N   UNL     1      -0.018  -2.292  -5.035  0.00  0.00    -0.161 NA
ATOM     10  N   UNL     1      -0.032  -1.309  -5.780  0.00  0.00    -0.182 NA
ATOM     11  C   UNL     1      -0.043  -0.102  -4.936  0.00  0.00    +0.218 C 
ENDBRANCH   5   7
BRANCH   2  12
ATOM     12  C   UNL     1       0.024  -0.743   1.267  0.00  0.00    +0.144 C 
BRANCH  12  13
ATOM     13  C   UNL     1      -1.389  -1.016   1.714  0.00  0.00    -0.029 A 
ATOM     14  C   UNL     1      -2.047  -0.105   2.519  0.00  0.00    +0.007 A 
ATOM     15  C   UNL     1      -3.343  -0.354   2.930  0.00  0.00    +0.022 A 
ATOM     16  C   UNL     1      -3.982  -1.516   2.535  0.00  0.00    +0.059 A 
ATOM     17  C   UNL     1      -3.323  -2.428   1.729  0.00  0.00    +0.060 A 
ATOM     18  C   UNL     1      -2.028  -2.175   1.314  0.00  0.00    +0.026 A 
ATOM     19 CL   UNL     1      -4.124  -3.887   1.234  0.00  0.00    -0.082 Cl
ATOM     20 CL   UNL     1      -5.610  -1.829   3.052  0.00  0.00    -0.082 Cl
ENDBRANCH  12  13
ENDBRANCH   2  12
TORSDOF 3
