REMARK  Name = ZINC07421294
REMARK  8 active torsions:
REMARK  status: ('A' for Active; 'I' for Inactive)
REMARK    1  A    between atoms: C_1  and  C_2
REMARK    2  A    between atoms: C_2  and  C_3
REMARK    3  A    between atoms: C_3  and  C_5
REMARK    4  A    between atoms: C_3  and  N_6
REMARK    5  A    between atoms: C_7  and  C_9
REMARK    6  A    between atoms: C_14  and  N_15
REMARK    7  A    between atoms: N_15  and  S_16
REMARK    8  A    between atoms: S_16  and  C_19
REMARK                            x       y       z     vdW  Elec       q    Type
REMARK                         _______ _______ _______ _____ _____    ______ ____
ROOT
ATOM      1  N   UNL     1       4.885  -0.872   1.217  0.00  0.00    -0.216 N 
ATOM      2  H   UNL     1       4.619  -0.096   0.700  0.00  0.00    +0.174 HD
ENDROOT
BRANCH   1   8
ATOM      3  C   UNL     1       2.672  -1.274   2.111  0.00  0.00    +0.059 A 
ATOM      4  C   UNL     1       1.862  -1.753   3.144  0.00  0.00    +0.015 A 
ATOM      5  C   UNL     1       2.437  -2.279   4.280  0.00  0.00    +0.001 A 
ATOM      6  C   UNL     1       3.816  -2.337   4.405  0.00  0.00    +0.002 A 
ATOM      7  C   UNL     1       4.629  -1.869   3.394  0.00  0.00    +0.025 A 
ATOM      8  C   UNL     1       4.068  -1.339   2.238  0.00  0.00    +0.060 A 
BRANCH   3  10
ATOM      9  N   UNL     1       0.722  -0.654   0.773  0.00  0.00    -0.309 N 
ATOM     10  C   UNL     1       2.064  -0.709   0.893  0.00  0.00    +0.246 C 
ATOM     11  O   UNL     1       2.772  -0.293  -0.004  0.00  0.00    -0.270 OA
ATOM     12  H   UNL     1       0.157  -0.986   1.488  0.00  0.00    +0.149 HD
BRANCH   9  13
ATOM     13  C   UNL     1       0.118  -0.093  -0.438  0.00  0.00    +0.070 C 
ATOM     14  C   UNL     1       0.021   1.428  -0.302  0.00  0.00    +0.028 C 
BRANCH  13  16
ATOM     15  C   UNL     1      -1.178  -2.182  -0.886  0.00  0.00    +0.005 C 
ATOM     16  C   UNL     1      -1.284  -0.677  -0.626  0.00  0.00    +0.018 C 
ENDBRANCH  13  16
ENDBRANCH   9  13
ENDBRANCH   3  10
ENDBRANCH   1   8
BRANCH   1  17
ATOM     17  S   UNL     1       6.312  -1.641   0.881  0.00  0.00    +0.072 S 
ATOM     18  O   UNL     1       6.845  -1.020  -0.281  0.00  0.00    -0.150 OA
ATOM     19  O   UNL     1       7.032  -1.713   2.104  0.00  0.00    -0.150 OA
BRANCH  17  20
ATOM     20  C   UNL     1       5.918  -3.298   0.430  0.00  0.00    +0.109 A 
ATOM     21  C   UNL     1       5.860  -4.282   1.401  0.00  0.00    +0.030 A 
ATOM     22  C   UNL     1       5.548  -5.581   1.052  0.00  0.00    +0.025 A 
ATOM     23  C   UNL     1       5.302  -5.901  -0.277  0.00  0.00    +0.037 A 
ATOM     24  C   UNL     1       5.366  -4.912  -1.250  0.00  0.00    -0.024 A 
ATOM     25  C   UNL     1       5.674  -3.613  -0.894  0.00  0.00    +0.034 A 
ATOM     26  C   UNL     1       5.097  -5.259  -2.691  0.00  0.00    +0.046 C 
ATOM     27  C   UNL     1       5.603  -6.673  -2.978  0.00  0.00    +0.101 C 
ATOM     28  C   UNL     1       5.111  -7.619  -1.916  0.00  0.00    +0.218 C 
ATOM     29  O   UNL     1       4.822  -8.758  -2.215  0.00  0.00    -0.275 OA
ATOM     30  N   UNL     1       4.990  -7.215  -0.638  0.00  0.00    -0.285 N 
ATOM     31  H   UNL     1       4.683  -7.840   0.037  0.00  0.00    +0.155 HD
ENDBRANCH  17  20
ENDBRANCH   1  17
TORSDOF 6
