REMARK  Name = ZINC35664265
REMARK  7 active torsions:
REMARK  status: ('A' for Active; 'I' for Inactive)
REMARK    1  A    between atoms: C_1  and  C_2
REMARK    2  A    between atoms: N_6  and  C_21
REMARK    3  A    between atoms: N_16  and  C_17
REMARK    4  A    between atoms: C_17  and  C_18
REMARK    5  A    between atoms: C_17  and  C_19
REMARK    6  A    between atoms: C_17  and  C_20
REMARK    7  A    between atoms: C_21  and  C_22
REMARK                            x       y       z     vdW  Elec       q    Type
REMARK                         _______ _______ _______ _____ _____    ______ ____
ROOT
ATOM      1  C   UNL     1      -0.017   1.003   1.090  0.00  0.00    -0.004 C 
ATOM      2  C   UNL     1       0.406  -0.466   1.041  0.00  0.00    +0.016 C 
ATOM      3  C   UNL     1       0.720  -0.877  -0.381  0.00  0.00    +0.200 C 
ATOM      4  O   UNL     1       0.056  -0.607  -1.359  0.00  0.00    -0.277 OA
ATOM      5  N   UNL     1       1.862  -1.595  -0.377  0.00  0.00    -0.309 N 
ATOM      6  C   UNL     1       2.362  -1.711   0.996  0.00  0.00    +0.006 C 
ATOM      7  N   UNL     1       1.674  -0.664   1.784  0.00  0.00    +0.401 N 
ATOM      8  C   UNL     1       2.024  -3.087   1.567  0.00  0.00    +0.025 C 
ATOM      9  C   UNL     1       2.707  -4.169   0.722  0.00  0.00    +0.109 C 
ATOM     10  N   UNL     1       4.144  -3.872   0.647  0.00  0.00    -0.286 N 
ATOM     11  C   UNL     1       4.569  -2.545   0.181  0.00  0.00    +0.109 C 
ATOM     12  C   UNL     1       3.871  -1.478   1.030  0.00  0.00    +0.025 C 
ATOM     13  C   UNL     1       5.055  -4.801   0.999  0.00  0.00    +0.303 C 
ATOM     14  O   UNL     1       6.236  -4.514   1.026  0.00  0.00    -0.253 OA
ATOM     15  N   UNL     1       4.657  -6.047   1.321  0.00  0.00    -0.294 N 
ATOM     16  H   UNL     1       2.217   0.187   1.794  0.00  0.00    -0.082 HD
ATOM     17  H   UNL     1       3.725  -6.298   1.227  0.00  0.00    +0.151 HD
ATOM     18  H   UNL     1       1.492  -0.984   2.723  0.00  0.00    -0.082 HD
ENDROOT
BRANCH  15  19
ATOM     19  C   UNL     1       5.633  -7.024   1.812  0.00  0.00    +0.028 C 
ATOM     20  C   UNL     1       6.277  -6.498   3.096  0.00  0.00    +0.031 C 
ATOM     21  C   UNL     1       4.926  -8.349   2.102  0.00  0.00    +0.031 C 
ATOM     22  C   UNL     1       6.713  -7.243   0.752  0.00  0.00    +0.031 C 
ENDBRANCH  15  19
BRANCH   5  23
ATOM     23  C   UNL     1       2.503  -2.171  -1.562  0.00  0.00    +0.141 C 
BRANCH  23  24
ATOM     24  C   UNL     1       3.241  -1.089  -2.308  0.00  0.00    -0.030 A 
ATOM     25  C   UNL     1       2.767  -0.646  -3.529  0.00  0.00    +0.008 A 
ATOM     26  C   UNL     1       3.442   0.346  -4.214  0.00  0.00    +0.038 A 
ATOM     27  C   UNL     1       4.595   0.895  -3.678  0.00  0.00    +0.123 A 
ATOM     28  C   UNL     1       5.069   0.451  -2.456  0.00  0.00    +0.038 A 
ATOM     29  C   UNL     1       4.388  -0.537  -1.770  0.00  0.00    +0.008 A 
ATOM     30  F   UNL     1       5.256   1.865  -4.348  0.00  0.00    -0.205 F 
ENDBRANCH  23  24
ENDBRANCH   5  23
TORSDOF 3
