REMARK  Name = ZINC39970148
REMARK  6 active torsions:
REMARK  status: ('A' for Active; 'I' for Inactive)
REMARK    1  A    between atoms: C_1  and  O_2
REMARK    2  A    between atoms: O_2  and  C_3
REMARK    3  A    between atoms: C_5  and  C_17
REMARK    4  A    between atoms: C_8  and  O_9
REMARK    5  A    between atoms: O_9  and  C_10
REMARK    6  A    between atoms: C_10  and  C_11
REMARK                            x       y       z     vdW  Elec       q    Type
REMARK                         _______ _______ _______ _____ _____    ______ ____
ROOT
ATOM      1  C   UNL     1      -4.871   0.257   0.037  0.00  0.00    +0.049 C 
ATOM      2  C   UNL     1      -5.704  -0.084  -1.206  0.00  0.00    +0.130 C 
ATOM      3  C   UNL     1      -6.142  -1.529  -1.122  0.00  0.00    +0.313 C 
ATOM      4  O   UNL     1      -5.997  -2.280  -2.058  0.00  0.00    -0.250 OA
ATOM      5  O   UNL     1      -6.701  -1.957   0.040  0.00  0.00    -0.429 OA
ATOM      6  C   UNL     1      -6.072  -1.550   1.149  0.00  0.00    +0.130 C 
ATOM      7  C   UNL     1      -5.745  -2.406   2.189  0.00  0.00    +0.035 A 
ATOM      8  C   UNL     1      -6.114  -3.767   2.162  0.00  0.00    +0.013 A 
ATOM      9  C   UNL     1      -5.791  -4.572   3.210  0.00  0.00    +0.001 A 
ATOM     10  C   UNL     1      -5.097  -4.081   4.312  0.00  0.00    +0.002 A 
ATOM     11  C   UNL     1      -4.704  -2.779   4.393  0.00  0.00    +0.024 A 
ATOM     12  C   UNL     1      -5.000  -1.890   3.345  0.00  0.00    +0.044 A 
ATOM     13  N   UNL     1      -4.596  -0.616   3.416  0.00  0.00    -0.284 N 
ATOM     14  C   UNL     1      -4.866   0.292   2.497  0.00  0.00    +0.228 C 
ATOM     15  O   UNL     1      -4.455   1.431   2.623  0.00  0.00    -0.275 OA
ATOM     16  C   UNL     1      -5.685  -0.086   1.288  0.00  0.00    +0.150 C 
ATOM     17  H   UNL     1      -4.075  -0.344   4.187  0.00  0.00    +0.155 HD
ENDROOT
BRANCH   1  20
ATOM     18  C   UNL     1      -1.201  -0.638   0.010  0.00  0.00    +0.162 A 
ATOM     19  C   UNL     1      -2.374   0.099   0.019  0.00  0.00    +0.053 A 
ATOM     20  C   UNL     1      -3.596  -0.546   0.027  0.00  0.00    -0.039 A 
ATOM     21  C   UNL     1      -3.652  -1.928   0.026  0.00  0.00    +0.008 A 
ATOM     22  C   UNL     1      -2.485  -2.669   0.017  0.00  0.00    +0.050 A 
ATOM     23  C   UNL     1      -1.257  -2.028   0.003  0.00  0.00    +0.162 A 
BRANCH  18  25
ATOM     24  C   UNL     1      -0.017   1.425   0.010  0.00  0.00    +0.277 C 
ATOM     25  O   UNL     1       0.002  -0.004   0.002  0.00  0.00    -0.491 OA
ENDBRANCH  18  25
BRANCH  23  26
ATOM     26  O   UNL     1      -0.108  -2.756  -0.012  0.00  0.00    -0.484 OA
BRANCH  26  27
ATOM     27  C   UNL     1      -0.242  -4.179  -0.018  0.00  0.00    +0.264 C 
BRANCH  27  28
ATOM     28  C   UNL     1       1.125  -4.812  -0.034  0.00  0.00    -0.010 A 
ATOM     29  C   UNL     1       1.744  -5.091  -1.239  0.00  0.00    +0.007 A 
ATOM     30  C   UNL     1       2.998  -5.671  -1.254  0.00  0.00    +0.000 A 
ATOM     31  C   UNL     1       3.635  -5.973  -0.064  0.00  0.00    +0.000 A 
ATOM     32  C   UNL     1       3.017  -5.693   1.140  0.00  0.00    +0.000 A 
ATOM     33  C   UNL     1       1.764  -5.109   1.155  0.00  0.00    +0.007 A 
ENDBRANCH  27  28
ENDBRANCH  26  27
ENDBRANCH  23  26
ENDBRANCH   1  20
TORSDOF 5
