REMARK  Name = ZINC05818644
REMARK  5 active torsions:
REMARK  status: ('A' for Active; 'I' for Inactive)
REMARK    1  A    between atoms: C_1  and  C_2
REMARK    2  A    between atoms: C_6  and  C_7
REMARK    3  A    between atoms: C_10  and  C_21
REMARK    4  A    between atoms: C_16  and  N_20
REMARK    5  A    between atoms: C_17  and  C_18
REMARK                            x       y       z     vdW  Elec       q    Type
REMARK                         _______ _______ _______ _____ _____    ______ ____
ROOT
ATOM      1  C   UNL     1       0.030  -0.179   2.581  0.00  0.00    +0.109 C 
ATOM      2  C   UNL     1       1.264  -0.666   3.296  0.00  0.00    +0.058 A 
ATOM      3  C   UNL     1       2.544  -0.294   3.144  0.00  0.00    +0.146 A 
ATOM      4  N   UNL     1       3.288  -1.019   4.011  0.00  0.00    -0.269 N 
ATOM      5  H   UNL     1       4.250  -0.963   4.122  0.00  0.00    +0.189 HD
ATOM      6  N   UNL     1       2.424  -1.869   4.721  0.00  0.00    -0.135 NA
ATOM      7  C   UNL     1       1.212  -1.661   4.297  0.00  0.00    +0.245 A 
ATOM      8  O   UNL     1       0.041  -2.237   4.680  0.00  0.00    -0.421 OA
ATOM      9  C   UNL     1      -1.102  -1.649   4.275  0.00  0.00    +0.201 C 
ATOM     10  C   UNL     1      -1.178  -0.698   3.320  0.00  0.00    +0.099 C 
ENDROOT
BRANCH   1  16
ATOM     11  C   UNL     1      -0.018   1.503   0.010  0.00  0.00    +0.044 C 
ATOM     12  C   UNL     1       0.002  -0.004   0.002  0.00  0.00    -0.039 A 
ATOM     13  C   UNL     1       0.006  -0.699  -1.193  0.00  0.00    +0.011 A 
ATOM     14  C   UNL     1       0.024  -2.054  -1.165  0.00  0.00    +0.046 A 
ATOM     15  S   UNL     1       0.037  -2.387   0.589  0.00  0.00    -0.100 S 
ATOM     16  C   UNL     1       0.023  -0.698   1.166  0.00  0.00    +0.005 A 
ENDBRANCH   1  16
BRANCH   3  17
ATOM     17  C   UNL     1       3.061   0.745   2.182  0.00  0.00    +0.434 C 
ATOM     18  F   UNL     1       4.449   0.855   2.316  0.00  0.00    -0.164 F 
ATOM     19  F   UNL     1       2.747   0.365   0.873  0.00  0.00    -0.164 F 
ATOM     20  F   UNL     1       2.466   1.979   2.465  0.00  0.00    -0.164 F 
ENDBRANCH   3  17
BRANCH   9  21
ATOM     21  N   UNL     1      -2.271  -2.046   4.875  0.00  0.00    -0.328 N 
ATOM     22  H   UNL     1      -2.256  -2.727   5.565  0.00  0.00    +0.145 HD
ATOM     23  H   UNL     1      -3.113  -1.645   4.608  0.00  0.00    +0.145 HD
ENDBRANCH   9  21
BRANCH  10  24
ATOM     24  C   UNL     1      -2.463  -0.156   2.994  0.00  0.00    +0.101 C 
ATOM     25  N   UNL     1      -3.482   0.273   2.735  0.00  0.00    -0.191 NA
ENDBRANCH  10  24
TORSDOF 4
