REMARK  Name = ZINC36970491
REMARK  4 active torsions:
REMARK  status: ('A' for Active; 'I' for Inactive)
REMARK    1  A    between atoms: C_3  and  C_9
REMARK    2  A    between atoms: C_9  and  N_10
REMARK    3  A    between atoms: N_10  and  C_11
REMARK    4  A    between atoms: C_16  and  N_17
REMARK                            x       y       z     vdW  Elec       q    Type
REMARK                         _______ _______ _______ _____ _____    ______ ____
ROOT
ATOM      1  N   UNL     1       4.582   1.695   1.245  0.00  0.00    -0.338 N 
ATOM      2  H   UNL     1       4.167   1.198   1.967  0.00  0.00    +0.146 HD
ENDROOT
BRANCH   1   3
ATOM      3  C   UNL     1       5.650   2.555   1.512  0.00  0.00    +0.059 A 
ATOM      4  C   UNL     1       6.323   3.175   0.467  0.00  0.00    +0.045 A 
ATOM      5  C   UNL     1       7.379   4.025   0.736  0.00  0.00    +0.043 A 
ATOM      6  C   UNL     1       7.766   4.258   2.044  0.00  0.00    +0.022 A 
ATOM      7  C   UNL     1       7.097   3.642   3.086  0.00  0.00    +0.036 A 
ATOM      8  C   UNL     1       6.037   2.796   2.824  0.00  0.00    +0.147 A 
ATOM      9 CL   UNL     1       8.222   4.800  -0.569  0.00  0.00    -0.083 Cl
BRANCH   8  10
ATOM     10  N   UNL     1       5.318   2.143   3.941  0.00  0.00    +0.058 N 
ATOM     11  O   UNL     1       4.120   1.993   3.883  0.00  0.00    -0.126 OA
ATOM     12  O   UNL     1       5.929   1.759   4.911  0.00  0.00    -0.126 OA
ENDBRANCH   8  10
ENDBRANCH   1   3
BRANCH   1  13
ATOM     13  C   UNL     1       4.088   1.545  -0.126  0.00  0.00    +0.138 C 
BRANCH  13  16
ATOM     14  C   UNL     1       0.592   0.131  -0.301  0.00  0.00    +0.020 A 
ATOM     15  C   UNL     1       1.645   1.026  -0.284  0.00  0.00    +0.008 A 
ATOM     16  C   UNL     1       2.941   0.568  -0.143  0.00  0.00    -0.012 A 
ATOM     17  C   UNL     1       3.186  -0.788  -0.017  0.00  0.00    +0.047 A 
ATOM     18  C   UNL     1       2.133  -1.685  -0.033  0.00  0.00    +0.040 A 
ATOM     19  C   UNL     1       0.836  -1.225  -0.175  0.00  0.00    +0.042 A 
ATOM     20 CL   UNL     1      -0.486  -2.350  -0.195  0.00  0.00    -0.083 Cl
ATOM     21 CL   UNL     1       4.814  -1.364   0.160  0.00  0.00    -0.083 Cl
ENDBRANCH  13  16
ENDBRANCH   1  13
TORSDOF 4
