REMARK  Name = ZINC15346305
REMARK  6 active torsions:
REMARK  status: ('A' for Active; 'I' for Inactive)
REMARK    1  A    between atoms: C_4  and  C_7
REMARK    2  A    between atoms: C_8  and  S_9
REMARK    3  A    between atoms: S_9  and  N_12
REMARK    4  A    between atoms: C_15  and  C_18
REMARK    5  A    between atoms: N_20  and  N_21
REMARK    6  A    between atoms: C_22  and  C_24
REMARK                            x       y       z     vdW  Elec       q    Type
REMARK                         _______ _______ _______ _____ _____    ______ ____
ROOT
ATOM      1  N   UNL     1      -0.872   1.871   1.353  0.00  0.00    -0.177 NA
ATOM      2  C   UNL     1      -0.660   3.190   1.965  0.00  0.00    +0.110 C 
ATOM      3  C   UNL     1      -0.346   3.007   3.448  0.00  0.00    +0.030 C 
ATOM      4  C   UNL     1      -1.456   2.180   4.104  0.00  0.00    +0.079 C 
ATOM      5  C   UNL     1      -1.521   0.799   3.447  0.00  0.00    +0.030 C 
ATOM      6  C   UNL     1      -1.852   0.960   1.960  0.00  0.00    +0.110 C 
ENDROOT
BRANCH   4   7
ATOM      7  C   UNL     1      -1.163   2.024   5.574  0.00  0.00    +0.232 C 
ATOM      8  O   UNL     1      -1.021   0.918   6.050  0.00  0.00    -0.274 OA
ATOM      9  N   UNL     1      -1.060   3.114   6.360  0.00  0.00    -0.234 N 
ATOM     10  H   UNL     1      -1.173   3.999   5.979  0.00  0.00    +0.173 HD
BRANCH   9  11
ATOM     11  N   UNL     1      -0.788   2.969   7.726  0.00  0.00    -0.230 N 
ATOM     12  C   UNL     1      -0.684   4.059   8.512  0.00  0.00    +0.261 C 
ATOM     13  O   UNL     1      -0.827   5.168   8.035  0.00  0.00    -0.269 OA
ATOM     14  H   UNL     1      -0.675   2.084   8.107  0.00  0.00    +0.173 HD
BRANCH  12  15
ATOM     15  C   UNL     1      -0.398   3.906   9.954  0.00  0.00    +0.052 A 
ATOM     16  C   UNL     1      -0.240   2.634  10.507  0.00  0.00    +0.014 A 
ATOM     17  C   UNL     1       0.032   2.498  11.852  0.00  0.00    +0.001 A 
ATOM     18  C   UNL     1       0.139   3.619  12.656  0.00  0.00    +0.001 A 
ATOM     19  C   UNL     1      -0.022   4.882  12.118  0.00  0.00    +0.016 A 
ATOM     20  C   UNL     1      -0.290   5.033  10.771  0.00  0.00    +0.030 A 
ATOM     21 BR   UNL     1      -0.510   6.762  10.037  0.00  0.00    -0.050 Br
ENDBRANCH  12  15
ENDBRANCH   9  11
ENDBRANCH   4   7
BRANCH   1  22
ATOM     22  S   UNL     1      -0.017   1.417   0.010  0.00  0.00    +0.054 S 
ATOM     23  O   UNL     1       0.002  -0.004   0.002  0.00  0.00    -0.153 OA
ATOM     24  O   UNL     1       1.172   2.195   0.003  0.00  0.00    -0.153 OA
BRANCH  22  26
ATOM     25  C   UNL     1      -0.475   2.840  -2.218  0.00  0.00    +0.028 C 
ATOM     26  C   UNL     1      -0.954   1.915  -1.397  0.00  0.00    +0.153 C 
BRANCH  25  30
ATOM     27  C   UNL     1      -2.733   4.042  -5.609  0.00  0.00    +0.000 A 
ATOM     28  C   UNL     1      -1.499   4.617  -5.364  0.00  0.00    +0.001 A 
ATOM     29  C   UNL     1      -0.760   4.231  -4.264  0.00  0.00    +0.008 A 
ATOM     30  C   UNL     1      -1.261   3.258  -3.398  0.00  0.00    -0.024 A 
ATOM     31  C   UNL     1      -2.504   2.678  -3.654  0.00  0.00    +0.008 A 
ATOM     32  C   UNL     1      -3.235   3.077  -4.754  0.00  0.00    +0.001 A 
ENDBRANCH  25  30
ENDBRANCH  22  26
ENDBRANCH   1  22
TORSDOF 6
