REMARK  Name = ZINC07328767
REMARK  7 active torsions:
REMARK  status: ('A' for Active; 'I' for Inactive)
REMARK    1  A    between atoms: C_1  and  C_2
REMARK    2  A    between atoms: C_5  and  S_8
REMARK    3  A    between atoms: S_8  and  C_9
REMARK    4  A    between atoms: C_9  and  C_11
REMARK    5  A    between atoms: C_9  and  C_12
REMARK    6  A    between atoms: N_14  and  N_15
REMARK    7  A    between atoms: C_16  and  C_18
REMARK                            x       y       z     vdW  Elec       q    Type
REMARK                         _______ _______ _______ _____ _____    ______ ____
ROOT
ATOM      1  N   UNL     1      -3.935  -0.405   1.637  0.00  0.00    -0.229 N 
ATOM      2  C   UNL     1      -4.308  -1.628   2.065  0.00  0.00    +0.281 C 
ATOM      3  O   UNL     1      -3.471  -2.411   2.471  0.00  0.00    -0.267 OA
ATOM      4  H   UNL     1      -4.603   0.220   1.313  0.00  0.00    +0.173 HD
ENDROOT
BRANCH   2   5
ATOM      5  C   UNL     1      -5.732  -2.016   2.041  0.00  0.00    +0.155 A 
ATOM      6  C   UNL     1      -6.148  -3.351   2.501  0.00  0.00    +0.020 A 
ATOM      7  C   UNL     1      -5.249  -4.295   2.983  0.00  0.00    +0.011 A 
ATOM      8  C   UNL     1      -5.716  -5.523   3.401  0.00  0.00    +0.001 A 
ATOM      9  C   UNL     1      -7.071  -5.823   3.351  0.00  0.00    +0.001 A 
ATOM     10  C   UNL     1      -7.980  -4.899   2.882  0.00  0.00    +0.014 A 
ATOM     11  C   UNL     1      -7.529  -3.654   2.455  0.00  0.00    +0.050 A 
ATOM     12  C   UNL     1      -8.428  -2.611   1.941  0.00  0.00    +0.272 A 
ATOM     13  O   UNL     1      -9.628  -2.804   1.869  0.00  0.00    -0.266 OA
ATOM     14  N   UNL     1      -7.893  -1.436   1.551  0.00  0.00    -0.242 N 
ATOM     15  H   UNL     1      -8.507  -0.729   1.202  0.00  0.00    +0.192 HD
ATOM     16  N   UNL     1      -6.641  -1.178   1.605  0.00  0.00    -0.166 NA
ENDBRANCH   2   5
BRANCH   1  19
ATOM     17  C   UNL     1      -2.211   1.185   1.231  0.00  0.00    +0.242 C 
ATOM     18  O   UNL     1      -3.046   1.967   0.826  0.00  0.00    -0.273 OA
ATOM     19  N   UNL     1      -2.584  -0.037   1.659  0.00  0.00    -0.233 N 
ATOM     20  H   UNL     1      -1.916  -0.662   1.983  0.00  0.00    +0.173 HD
BRANCH  17  21
ATOM     21  C   UNL     1      -0.757   1.582   1.256  0.00  0.00    +0.135 C 
ATOM     22  C   UNL     1      -0.073   1.087  -0.020  0.00  0.00    +0.029 C 
BRANCH  21  23
ATOM     23  S   UNL     1      -0.625   3.388   1.352  0.00  0.00    -0.113 S 
BRANCH  23  28
ATOM     24  C   UNL     1      -2.652   4.709   6.882  0.00  0.00    +0.044 C 
ATOM     25  C   UNL     1      -2.146   4.379   5.501  0.00  0.00    -0.050 A 
ATOM     26  C   UNL     1      -1.841   5.398   4.617  0.00  0.00    +0.004 A 
ATOM     27  C   UNL     1      -1.377   5.099   3.351  0.00  0.00    +0.015 A 
ATOM     28  C   UNL     1      -1.217   3.774   2.966  0.00  0.00    +0.009 A 
ATOM     29  C   UNL     1      -1.530   2.753   3.856  0.00  0.00    +0.015 A 
ATOM     30  C   UNL     1      -1.988   3.059   5.122  0.00  0.00    +0.004 A 
ENDBRANCH  23  28
ENDBRANCH  21  23
ENDBRANCH  17  21
ENDBRANCH   1  19
TORSDOF 5
