REMARK  Name = ZINC32915974
REMARK  6 active torsions:
REMARK  status: ('A' for Active; 'I' for Inactive)
REMARK    1  A    between atoms: C_1  and  C_2
REMARK    2  A    between atoms: C_6  and  C_20
REMARK    3  A    between atoms: C_10  and  C_11
REMARK    4  A    between atoms: C_14  and  N_17
REMARK    5  A    between atoms: C_20  and  C_21
REMARK    6  A    between atoms: C_20  and  C_22
REMARK                            x       y       z     vdW  Elec       q    Type
REMARK                         _______ _______ _______ _____ _____    ______ ____
ROOT
ATOM      1  C   UNL     1       1.959  -0.055  -1.285  0.00  0.00    +0.012 C 
ATOM      2  C   UNL     1       2.077   1.008  -0.190  0.00  0.00    +0.019 C 
ATOM      3  C   UNL     1       3.340   1.838  -0.427  0.00  0.00    +0.010 C 
ATOM      4  C   UNL     1       3.143   2.688  -1.687  0.00  0.00    +0.027 C 
ATOM      5  C   UNL     1       2.115   3.780  -1.390  0.00  0.00    +0.091 C 
ATOM      6  C   UNL     1       0.877   3.171  -0.794  0.00  0.00    +0.176 C 
ATOM      7  O   UNL     1      -0.152   3.816  -0.804  0.00  0.00    -0.291 OA
ATOM      8  C   UNL     1       0.864   1.893  -0.222  0.00  0.00    -0.000 C 
ATOM      9  C   UNL     1      -0.289   1.436   0.320  0.00  0.00    +0.015 C 
ATOM     10 BR   UNL     1       2.884   5.075  -0.127  0.00  0.00    -0.076 Br
ENDROOT
BRANCH   9  11
ATOM     11  C   UNL     1      -1.379   2.373   0.628  0.00  0.00    -0.025 A 
ATOM     12  C   UNL     1      -1.103   3.586   1.269  0.00  0.00    +0.010 A 
ATOM     13  C   UNL     1      -2.130   4.461   1.550  0.00  0.00    +0.033 A 
ATOM     14  C   UNL     1      -3.433   4.138   1.211  0.00  0.00    +0.126 A 
ATOM     15  C   UNL     1      -3.715   2.938   0.582  0.00  0.00    +0.033 A 
ATOM     16  C   UNL     1      -2.698   2.054   0.288  0.00  0.00    +0.010 A 
BRANCH  14  17
ATOM     17  N   UNL     1      -4.530   5.082   1.522  0.00  0.00    +0.056 N 
ATOM     18  O   UNL     1      -5.677   4.801   1.224  0.00  0.00    -0.126 OA
ATOM     19  O   UNL     1      -4.286   6.139   2.075  0.00  0.00    -0.126 OA
ENDBRANCH  14  17
ENDBRANCH   9  11
BRANCH   5  20
ATOM     20  C   UNL     1       1.747   4.497  -2.691  0.00  0.00    +0.007 C 
ATOM     21  C   UNL     1       3.003   5.118  -3.304  0.00  0.00    +0.009 C 
ATOM     22  C   UNL     1       1.143   3.493  -3.674  0.00  0.00    +0.009 C 
ENDBRANCH   5  20
TORSDOF 3
