REMARK  Name = ZINC23231916
REMARK  3 active torsions:
REMARK  status: ('A' for Active; 'I' for Inactive)
REMARK    1  A    between atoms: C_1  and  N_2
REMARK    2  A    between atoms: N_5  and  C_14
REMARK    3  A    between atoms: C_14  and  C_15
REMARK                            x       y       z     vdW  Elec       q    Type
REMARK                         _______ _______ _______ _____ _____    ______ ____
ROOT
ATOM      1  C   UNL     1       0.028  -3.164  -1.817  0.00  0.00    +0.134 C 
ATOM      2  N   UNL     1       0.022  -2.070  -0.842  0.00  0.00    -0.274 N 
ATOM      3  C   UNL     1      -0.097  -0.755  -1.105  0.00  0.00    +0.312 C 
ATOM      4  O   UNL     1      -0.220  -0.298  -2.224  0.00  0.00    -0.252 OA
ATOM      5  N   UNL     1      -0.062  -0.007   0.005  0.00  0.00    -0.215 N 
ATOM      6  C   UNL     1       0.074  -0.766   1.112  0.00  0.00    +0.247 C 
ATOM      7  O   UNL     1       0.133  -0.385   2.261  0.00  0.00    -0.273 OA
ATOM      8  C   UNL     1       0.139  -2.192   0.617  0.00  0.00    +0.112 C 
ATOM      9  C   UNL     1      -1.020  -3.007   1.181  0.00  0.00    +0.016 C 
ATOM     10  C   UNL     1      -0.913  -4.452   0.685  0.00  0.00    -0.080 C 
ATOM     11  N   UNL     1       0.378  -5.017   1.100  0.00  0.00    +0.379 N 
ATOM     12  C   UNL     1       1.499  -4.279   0.505  0.00  0.00    -0.080 C 
ATOM     13  C   UNL     1       1.473  -2.829   0.995  0.00  0.00    +0.016 C 
ATOM     14  H   UNL     1       0.465  -4.964   2.195  0.00  0.00    -0.086 HD
ATOM     15  H   UNL     1       0.439  -6.067   0.778  0.00  0.00    -0.086 HD
ENDROOT
BRANCH   5  16
ATOM     16  C   UNL     1      -0.166   1.454   0.016  0.00  0.00    +0.213 C 
BRANCH  16  17
ATOM     17  C   UNL     1       1.212   2.057  -0.085  0.00  0.00    +0.234 C 
ATOM     18  O   UNL     1       2.184   1.336  -0.159  0.00  0.00    -0.274 OA
ATOM     19  N   UNL     1       1.363   3.396  -0.092  0.00  0.00    -0.300 N 
ATOM     20  C   UNL     1       0.194   4.282  -0.009  0.00  0.00    +0.108 C 
ATOM     21  C   UNL     1       0.233   5.267  -1.177  0.00  0.00    +0.023 C 
ATOM     22  C   UNL     1       1.576   6.001  -1.179  0.00  0.00    -0.005 C 
ATOM     23  C   UNL     1       1.603   6.997  -2.341  0.00  0.00    +0.004 C 
ATOM     24  C   UNL     1       1.407   6.245  -3.659  0.00  0.00    +0.000 C 
ATOM     25  C   UNL     1       2.532   5.224  -3.838  0.00  0.00    +0.000 C 
ATOM     26  C   UNL     1       2.514   4.232  -2.673  0.00  0.00    +0.005 C 
ATOM     27  C   UNL     1       2.711   4.989  -1.358  0.00  0.00    +0.010 C 
ATOM     28  C   UNL     1       2.699   3.998  -0.191  0.00  0.00    +0.111 C 
ENDBRANCH  16  17
ENDBRANCH   5  16
TORSDOF 2
