REMARK  Name = ZINC56443080
REMARK  9 active torsions:
REMARK  status: ('A' for Active; 'I' for Inactive)
REMARK    1  A    between atoms: C_1  and  C_2
REMARK    2  A    between atoms: C_2  and  C_4
REMARK    3  A    between atoms: C_2  and  N_12
REMARK    4  A    between atoms: C_9  and  O_10
REMARK    5  A    between atoms: O_10  and  C_11
REMARK    6  A    between atoms: N_12  and  C_13
REMARK    7  A    between atoms: N_16  and  C_17
REMARK    8  A    between atoms: N_20  and  C_23
REMARK    9  A    between atoms: C_23  and  C_24
REMARK                            x       y       z     vdW  Elec       q    Type
REMARK                         _______ _______ _______ _____ _____    ______ ____
ROOT
ATOM      1  N   UNL     1      -1.407  -0.393   0.103  0.00  0.00    -0.282 N 
ATOM      2  C   UNL     1      -2.247   0.162   1.168  0.00  0.00    +0.134 C 
ATOM      3  C   UNL     1      -1.931  -1.261  -0.785  0.00  0.00    +0.303 C 
ATOM      4  O   UNL     1      -1.234  -1.722  -1.669  0.00  0.00    -0.253 OA
ATOM      5  N   UNL     1      -3.228  -1.619  -0.694  0.00  0.00    -0.297 N 
ATOM      6  H   UNL     1      -3.783  -1.251   0.011  0.00  0.00    +0.151 HD
ENDROOT
BRANCH   5   7
ATOM      7  C   UNL     1      -3.797  -2.562  -1.659  0.00  0.00    +0.071 C 
ATOM      8  C   UNL     1      -4.256  -1.803  -2.907  0.00  0.00    +0.004 C 
ATOM      9  C   UNL     1      -4.922  -2.782  -3.877  0.00  0.00    -0.077 C 
ATOM     10  N   UNL     1      -6.081  -3.406  -3.228  0.00  0.00    +0.383 N 
ATOM     11  C   UNL     1      -5.639  -4.195  -2.072  0.00  0.00    -0.077 C 
ATOM     12  C   UNL     1      -5.002  -3.271  -1.033  0.00  0.00    +0.004 C 
ATOM     13  H   UNL     1      -6.720  -2.689  -2.921  0.00  0.00    -0.081 HD
BRANCH  10  14
ATOM     14  C   UNL     1      -6.762  -4.286  -4.188  0.00  0.00    -0.040 C 
BRANCH  14  15
ATOM     15  C   UNL     1      -8.020  -4.832  -3.564  0.00  0.00    -0.029 A 
ATOM     16  C   UNL     1      -8.030  -6.108  -3.032  0.00  0.00    +0.004 A 
ATOM     17  C   UNL     1      -9.184  -6.609  -2.459  0.00  0.00    +0.000 A 
ATOM     18  C   UNL     1     -10.329  -5.836  -2.417  0.00  0.00    +0.003 A 
ATOM     19  C   UNL     1     -10.321  -4.560  -2.948  0.00  0.00    +0.038 A 
ATOM     20  C   UNL     1      -9.164  -4.055  -3.517  0.00  0.00    +0.125 A 
ATOM     21  F   UNL     1      -9.154  -2.806  -4.032  0.00  0.00    -0.205 F 
ENDBRANCH  14  15
ENDBRANCH  10  14
ENDBRANCH   5   7
BRANCH   1  23
ATOM     22  C   UNL     1       0.106   1.518  -0.090  0.00  0.00    +0.033 C 
ATOM     23  C   UNL     1       0.002  -0.005   0.004  0.00  0.00    +0.108 C 
BRANCH  23  24
ATOM     24  C   UNL     1       0.743  -0.485   1.225  0.00  0.00    +0.014 A 
ATOM     25  C   UNL     1       1.085   0.408   2.222  0.00  0.00    +0.009 A 
ATOM     26  C   UNL     1       1.765  -0.031   3.342  0.00  0.00    +0.001 A 
ATOM     27  C   UNL     1       2.104  -1.366   3.469  0.00  0.00    +0.004 A 
ATOM     28  C   UNL     1       1.763  -2.263   2.476  0.00  0.00    +0.046 A 
ATOM     29  C   UNL     1       1.076  -1.825   1.352  0.00  0.00    +0.125 A 
BRANCH  29  30
ATOM     30  O   UNL     1       0.736  -2.708   0.376  0.00  0.00    -0.495 OA
ATOM     31  C   UNL     1       1.111  -4.072   0.575  0.00  0.00    +0.277 C 
ENDBRANCH  29  30
ENDBRANCH  23  24
ENDBRANCH   1  23
TORSDOF 6
