REMARK  Name = ZINC40317342
REMARK  7 active torsions:
REMARK  status: ('A' for Active; 'I' for Inactive)
REMARK    1  A    between atoms: C_1  and  C_2
REMARK    2  A    between atoms: C_8  and  N_10
REMARK    3  A    between atoms: N_10  and  C_11
REMARK    4  A    between atoms: N_10  and  S_12
REMARK    5  A    between atoms: S_12  and  C_15
REMARK    6  A    between atoms: C_18  and  O_22
REMARK    7  A    between atoms: C_19  and  N_21
REMARK                            x       y       z     vdW  Elec       q    Type
REMARK                         _______ _______ _______ _____ _____    ______ ____
ROOT
ATOM      1  S   UNL     1       2.802   0.903   2.411  0.00  0.00    +0.061 S 
ATOM      2  O   UNL     1       3.940   1.623   1.957  0.00  0.00    -0.153 OA
ATOM      3  O   UNL     1       1.719   1.534   3.080  0.00  0.00    -0.153 OA
ENDROOT
BRANCH   1   4
ATOM      4  C   UNL     1       3.399  -0.353   3.492  0.00  0.00    +0.107 A 
ATOM      5  C   UNL     1       2.562  -0.891   4.452  0.00  0.00    +0.032 A 
ATOM      6  C   UNL     1       3.025  -1.878   5.303  0.00  0.00    +0.049 A 
ATOM      7  C   UNL     1       4.329  -2.330   5.196  0.00  0.00    +0.137 A 
ATOM      8  C   UNL     1       5.173  -1.788   4.229  0.00  0.00    +0.068 A 
ATOM      9  C   UNL     1       4.701  -0.802   3.375  0.00  0.00    +0.055 A 
BRANCH   8  10
ATOM     10  N   UNL     1       6.493  -2.240   4.117  0.00  0.00    -0.355 N 
ATOM     11  H   UNL     1       6.821  -2.932   4.712  0.00  0.00    +0.142 HD
ATOM     12  H   UNL     1       7.080  -1.862   3.443  0.00  0.00    +0.142 HD
ENDBRANCH   8  10
BRANCH   7  13
ATOM     13  O   UNL     1       4.786  -3.300   6.033  0.00  0.00    -0.505 OA
ATOM     14  H   UNL     1       4.657  -4.199   5.701  0.00  0.00    +0.292 HD
ENDBRANCH   7  13
ENDBRANCH   1   4
BRANCH   1  15
ATOM     15  N   UNL     1       2.162   0.145   1.085  0.00  0.00    -0.176 NA
ATOM     16  C   UNL     1       2.970  -0.816   0.329  0.00  0.00    +0.132 C 
BRANCH  15  23
ATOM     17  C   UNL     1       1.109   2.836   1.274  0.00  0.00    +0.009 C 
ATOM     18  C   UNL     1       0.702   1.873   0.157  0.00  0.00    +0.005 C 
ATOM     19  C   UNL     1       1.644   2.049  -1.036  0.00  0.00    +0.005 C 
ATOM     20  C   UNL     1       1.237   1.086  -2.153  0.00  0.00    +0.000 C 
ATOM     21  C   UNL     1       1.323  -0.354  -1.642  0.00  0.00    +0.002 C 
ATOM     22  C   UNL     1       0.381  -0.529  -0.449  0.00  0.00    +0.021 C 
ATOM     23  C   UNL     1       0.788   0.434   0.668  0.00  0.00    +0.082 C 
ENDBRANCH  15  23
ENDBRANCH   1  15
TORSDOF 5
