REMARK  Name = ZINC36068051
REMARK  11 active torsions:
REMARK  status: ('A' for Active; 'I' for Inactive)
REMARK    1  A    between atoms: C_1  and  C_2
REMARK    2  A    between atoms: C_2  and  C_3
REMARK    3  A    between atoms: C_2  and  C_4
REMARK    4  A    between atoms: C_4  and  O_5
REMARK    5  A    between atoms: O_5  and  C_6
REMARK    6  A    between atoms: C_6  and  C_8
REMARK    7  A    between atoms: C_8  and  N_9
REMARK    8  A    between atoms: C_10  and  C_23
REMARK    9  A    between atoms: C_23  and  N_24
REMARK   10  A    between atoms: N_24  and  C_25
REMARK   11  A    between atoms: N_24  and  C_26
REMARK                            x       y       z     vdW  Elec       q    Type
REMARK                         _______ _______ _______ _____ _____    ______ ____
ROOT
ATOM      1  N   UNL     1      -4.065  -4.517  -0.231  0.00  0.00    -0.287 N 
ATOM      2  C   UNL     1      -4.655  -4.812   0.956  0.00  0.00    +0.097 A 
ATOM      3  N   UNL     1      -5.900  -5.203   1.014  0.00  0.00    -0.228 NA
ATOM      4  C   UNL     1      -6.630  -5.324  -0.091  0.00  0.00    +0.116 A 
ATOM      5  C   UNL     1      -6.108  -5.042  -1.363  0.00  0.00    +0.076 A 
ATOM      6  C   UNL     1      -4.741  -4.610  -1.391  0.00  0.00    +0.263 A 
ATOM      7  O   UNL     1      -4.199  -4.337  -2.448  0.00  0.00    -0.267 OA
ATOM      8  C   UNL     1      -7.027  -5.220  -2.487  0.00  0.00    -0.023 A 
ATOM      9  C   UNL     1      -8.277  -5.636  -2.195  0.00  0.00    -0.004 A 
ATOM     10  S   UNL     1      -8.303  -5.810  -0.431  0.00  0.00    -0.073 S 
ATOM     11  C   UNL     1      -9.397  -5.892  -3.157  0.00  0.00    +0.043 C 
ATOM     12  C   UNL     1      -9.030  -5.257  -4.506  0.00  0.00    +0.005 C 
ATOM     13  C   UNL     1      -7.596  -5.659  -4.865  0.00  0.00    +0.005 C 
ATOM     14  C   UNL     1      -6.611  -4.956  -3.931  0.00  0.00    +0.037 C 
ENDROOT
BRANCH   1  15
ATOM     15  C   UNL     1      -2.666  -4.082  -0.248  0.00  0.00    +0.246 C 
BRANCH  15  16
ATOM     16  C   UNL     1      -2.605  -2.582  -0.120  0.00  0.00    +0.327 C 
ATOM     17  O   UNL     1      -3.625  -1.942  -0.023  0.00  0.00    -0.249 OA
BRANCH  16  18
ATOM     18  O   UNL     1      -1.417  -1.957  -0.112  0.00  0.00    -0.463 OA
BRANCH  18  19
ATOM     19  C   UNL     1      -1.433  -0.534   0.013  0.00  0.00    +0.235 C 
BRANCH  19  21
ATOM     20  C   UNL     1      -0.019   1.526   0.010  0.00  0.00    +0.010 C 
ATOM     21  C   UNL     1       0.002  -0.004   0.002  0.00  0.00    +0.020 C 
ATOM     22  C   UNL     1       0.742  -0.511   1.242  0.00  0.00    +0.010 C 
ENDBRANCH  19  21
ENDBRANCH  18  19
ENDBRANCH  16  18
ENDBRANCH  15  16
ENDBRANCH   1  15
BRANCH   2  23
ATOM     23  C   UNL     1      -3.859  -4.687   2.229  0.00  0.00    -0.004 C 
BRANCH  23  24
ATOM     24  N   UNL     1      -4.703  -5.057   3.373  0.00  0.00    +0.381 N 
ATOM     25  C   UNL     1      -5.062  -6.478   3.278  0.00  0.00    -0.096 C 
ATOM     26  C   UNL     1      -3.966  -4.821   4.622  0.00  0.00    -0.096 C 
ATOM     27  H   UNL     1      -5.542  -4.497   3.367  0.00  0.00    -0.082 HD
ENDBRANCH  23  24
ENDBRANCH   2  23
TORSDOF 7
