REMARK  Name = ZINC40129836
REMARK  4 active torsions:
REMARK  status: ('A' for Active; 'I' for Inactive)
REMARK    1  A    between atoms: C_4  and  O_18
REMARK    2  A    between atoms: C_5  and  C_7
REMARK    3  A    between atoms: O_18  and  C_19
REMARK    4  A    between atoms: C_19  and  C_21
REMARK                            x       y       z     vdW  Elec       q    Type
REMARK                         _______ _______ _______ _____ _____    ______ ____
ROOT
ATOM      1  C   UNL     1       0.062   1.435   0.496  0.00  0.00    +0.001 A 
ATOM      2  C   UNL     1       1.218   2.092   0.106  0.00  0.00    +0.004 A 
ATOM      3  C   UNL     1       2.353   1.376  -0.225  0.00  0.00    +0.047 A 
ATOM      4  C   UNL     1       2.343  -0.008  -0.168  0.00  0.00    +0.139 A 
ATOM      5  C   UNL     1       1.173  -0.680   0.228  0.00  0.00    +0.021 A 
ATOM      6  C   UNL     1       0.031   0.059   0.559  0.00  0.00    +0.011 A 
ENDROOT
BRANCH   5   7
ATOM      7  C   UNL     1       1.149  -2.145   0.291  0.00  0.00    +0.061 C 
ATOM      8  C   UNL     1      -0.038  -2.804   0.344  0.00  0.00    +0.176 C 
ATOM      9  C   UNL     1      -0.225  -4.239   0.597  0.00  0.00    +0.231 C 
ATOM     10  O   UNL     1       0.635  -5.079   0.801  0.00  0.00    -0.283 OA
ATOM     11  C   UNL     1      -1.687  -4.435   0.548  0.00  0.00    +0.068 A 
ATOM     12  C   UNL     1      -2.505  -5.553   0.705  0.00  0.00    +0.015 A 
ATOM     13  C   UNL     1      -3.873  -5.417   0.601  0.00  0.00    +0.001 A 
ATOM     14  C   UNL     1      -4.430  -4.174   0.340  0.00  0.00    +0.004 A 
ATOM     15  C   UNL     1      -3.630  -3.063   0.182  0.00  0.00    +0.047 A 
ATOM     16  C   UNL     1      -2.246  -3.177   0.284  0.00  0.00    +0.140 A 
ATOM     17  O   UNL     1      -1.264  -2.255   0.177  0.00  0.00    -0.451 OA
ENDBRANCH   5   7
BRANCH   4  18
ATOM     18  O   UNL     1       3.457  -0.712  -0.493  0.00  0.00    -0.420 OA
BRANCH  18  19
ATOM     19  C   UNL     1       3.582  -1.149  -1.763  0.00  0.00    +0.380 C 
ATOM     20  O   UNL     1       2.675  -0.982  -2.556  0.00  0.00    -0.241 OA
BRANCH  19  21
ATOM     21  C   UNL     1       4.810  -1.825  -2.187  0.00  0.00    +0.212 A 
ATOM     22  C   UNL     1       5.069  -2.309  -3.438  0.00  0.00    +0.056 A 
ATOM     23  C   UNL     1       6.353  -2.872  -3.395  0.00  0.00    +0.042 A 
ATOM     24  C   UNL     1       6.817  -2.708  -2.136  0.00  0.00    +0.196 A 
ATOM     25  O   UNL     1       5.887  -2.072  -1.413  0.00  0.00    -0.456 OA
ENDBRANCH  19  21
ENDBRANCH  18  19
ENDBRANCH   4  18
TORSDOF 4
