REMARK  Name = ZINC60847950
REMARK  1 active torsions:
REMARK  status: ('A' for Active; 'I' for Inactive)
REMARK    1  A    between atoms: C_8  and  C_11
REMARK                            x       y       z     vdW  Elec       q    Type
REMARK                         _______ _______ _______ _____ _____    ______ ____
ROOT
ATOM      1  C   UNL     1      -0.017   1.374   0.010  0.00  0.00    +0.035 A 
ATOM      2  C   UNL     1       1.176   2.071   0.002  0.00  0.00    +0.043 A 
ATOM      3  C   UNL     1       2.378   1.373  -0.013  0.00  0.00    +0.040 A 
ATOM      4  C   UNL     1       2.411   0.014  -0.021  0.00  0.00    +0.052 A 
ATOM      5  C   UNL     1       1.210  -0.742  -0.014  0.00  0.00    +0.027 A 
ATOM      6  C   UNL     1       0.002  -0.004   0.002  0.00  0.00    +0.024 A 
ATOM      7  S   UNL     1      -1.251  -1.261   0.006  0.00  0.00    -0.082 S 
ATOM      8  C   UNL     1      -0.184  -2.691  -0.012  0.00  0.00    +0.094 A 
ATOM      9  C   UNL     1       1.061  -2.141  -0.020  0.00  0.00    +0.069 A 
ATOM     10 CL   UNL     1       2.463  -3.164  -0.039  0.00  0.00    -0.082 Cl
ATOM     11 CL   UNL     1       3.941  -0.807  -0.040  0.00  0.00    -0.083 Cl
ATOM     12 CL   UNL     1       1.174   3.808   0.011  0.00  0.00    -0.083 Cl
ENDROOT
BRANCH   8  13
ATOM     13  C   UNL     1      -0.557  -4.110  -0.017  0.00  0.00    +0.259 C 
ATOM     14  O   UNL     1       0.307  -4.966  -0.029  0.00  0.00    -0.269 OA
ATOM     15  N   UNL     1      -1.857  -4.465  -0.007  0.00  0.00    -0.249 N 
ATOM     16  C   UNL     1      -2.212  -5.817  -0.011  0.00  0.00    +0.241 A 
ATOM     17  N   UNL     1      -3.461  -6.293  -0.002  0.00  0.00    -0.202 NA
ATOM     18  C   UNL     1      -3.436  -7.602  -0.010  0.00  0.00    +0.217 A 
ATOM     19  N   UNL     1      -2.152  -7.997  -0.024  0.00  0.00    -0.264 N 
ATOM     20  N   UNL     1      -1.375  -6.827  -0.030  0.00  0.00    -0.136 NA
ATOM     21  H   UNL     1      -2.546  -3.783   0.003  0.00  0.00    +0.158 HD
ATOM     22  H   UNL     1      -1.825  -8.910  -0.031  0.00  0.00    +0.190 HD
ENDBRANCH   8  13
TORSDOF 1
