REMARK  Name = ZINC20262673
REMARK  6 active torsions:
REMARK  status: ('A' for Active; 'I' for Inactive)
REMARK    1  A    between atoms: C_1  and  N_2
REMARK    2  A    between atoms: N_2  and  C_3
REMARK    3  A    between atoms: N_2  and  S_4
REMARK    4  A    between atoms: S_4  and  C_7
REMARK    5  A    between atoms: C_10  and  N_14
REMARK    6  A    between atoms: C_11  and  N_13
REMARK                            x       y       z     vdW  Elec       q    Type
REMARK                         _______ _______ _______ _____ _____    ______ ____
ROOT
ATOM      1  C   UNL     1       1.171   2.090   0.002  0.00  0.00    +0.107 A 
ATOM      2  C   UNL     1       2.380   1.419  -0.013  0.00  0.00    +0.030 A 
ATOM      3  C   UNL     1       2.408   0.037  -0.021  0.00  0.00    +0.027 A 
ATOM      4  C   UNL     1       1.222  -0.681  -0.013  0.00  0.00    +0.055 A 
ATOM      5  C   UNL     1       0.002  -0.004   0.002  0.00  0.00    +0.048 A 
ATOM      6  C   UNL     1      -0.017   1.383   0.010  0.00  0.00    +0.053 A 
ENDROOT
BRANCH   4   7
ATOM      7  N   UNL     1       1.248  -2.081  -0.021  0.00  0.00    -0.298 N 
ATOM      8  C   UNL     1       1.275  -2.927   1.175  0.00  0.00    +0.116 C 
ATOM      9  C   UNL     1       1.297  -4.371   0.646  0.00  0.00    +0.056 C 
ATOM     10  C   UNL     1       1.280  -4.225  -0.859  0.00  0.00    -0.025 A 
ATOM     11  C   UNL     1       1.246  -2.874  -1.170  0.00  0.00    +0.037 A 
ATOM     12  C   UNL     1       1.232  -2.488  -2.512  0.00  0.00    +0.024 A 
ATOM     13  C   UNL     1       1.240  -3.440  -3.509  0.00  0.00    +0.002 A 
ATOM     14  C   UNL     1       1.268  -4.785  -3.188  0.00  0.00    +0.000 A 
ATOM     15  C   UNL     1       1.288  -5.175  -1.861  0.00  0.00    +0.005 A 
ENDBRANCH   4   7
BRANCH   1  16
ATOM     16  S   UNL     1       1.144   3.852   0.011  0.00  0.00    +0.060 S 
ATOM     17  O   UNL     1       2.378   4.280  -0.549  0.00  0.00    -0.153 OA
ATOM     18  O   UNL     1      -0.112   4.242  -0.526  0.00  0.00    -0.153 OA
BRANCH  16  20
ATOM     19  C   UNL     1       2.423   4.566   2.285  0.00  0.00    +0.131 C 
ATOM     20  N   UNL     1       1.151   4.333   1.596  0.00  0.00    -0.183 NA
ATOM     21  C   UNL     1      -0.114   4.527   2.308  0.00  0.00    +0.131 C 
ENDBRANCH  16  20
ENDBRANCH   1  16
BRANCH   5  22
ATOM     22  N   UNL     1      -1.199  -0.722   0.009  0.00  0.00    -0.356 N 
ATOM     23  H   UNL     1      -2.160  -0.187   0.021  0.00  0.00    +0.142 HD
ATOM     24  H   UNL     1      -1.183  -1.822   0.003  0.00  0.00    +0.142 HD
ENDBRANCH   5  22
TORSDOF 4
