REMARK  Name = ZINC06654625
REMARK  6 active torsions:
REMARK  status: ('A' for Active; 'I' for Inactive)
REMARK    1  A    between atoms: C_1  and  C_2
REMARK    2  A    between atoms: C_3  and  C_28
REMARK    3  A    between atoms: C_7  and  N_11
REMARK    4  A    between atoms: C_14  and  C_17
REMARK    5  A    between atoms: N_19  and  C_20
REMARK    6  A    between atoms: C_20  and  C_27
REMARK                            x       y       z     vdW  Elec       q    Type
REMARK                         _______ _______ _______ _____ _____    ______ ____
ROOT
ATOM      1  N   UNL     1      -6.317  -1.037   3.408  0.00  0.00    -0.315 N 
ATOM      2  C   UNL     1      -5.735  -0.356   4.572  0.00  0.00    +0.107 C 
ATOM      3  C   UNL     1      -4.669   0.637   4.103  0.00  0.00    +0.031 C 
ATOM      4  C   UNL     1      -3.582  -0.116   3.331  0.00  0.00    +0.078 C 
ATOM      5  C   UNL     1      -4.221  -0.856   2.153  0.00  0.00    +0.031 C 
ATOM      6  C   UNL     1      -5.301  -1.805   2.678  0.00  0.00    +0.107 C 
ENDROOT
BRANCH   1  13
ATOM      7  C   UNL     1      -8.204   0.494   1.877  0.00  0.00    +0.045 C 
ATOM      8  C   UNL     1      -9.164  -0.527   2.431  0.00  0.00    -0.028 A 
ATOM      9  C   UNL     1     -10.467  -0.474   2.118  0.00  0.00    -0.008 A 
ATOM     10  S   UNL     1     -11.164  -1.860   2.997  0.00  0.00    -0.074 S 
ATOM     11  C   UNL     1      -9.686  -2.473   3.762  0.00  0.00    +0.114 A 
ATOM     12  C   UNL     1      -8.689  -1.580   3.312  0.00  0.00    +0.051 A 
ATOM     13  C   UNL     1      -7.374  -1.846   3.785  0.00  0.00    +0.133 A 
ATOM     14  N   UNL     1      -7.174  -2.880   4.586  0.00  0.00    -0.220 NA
ATOM     15  C   UNL     1      -8.158  -3.672   4.972  0.00  0.00    +0.224 A 
ATOM     16  N   UNL     1      -9.398  -3.477   4.566  0.00  0.00    -0.228 NA
ATOM     17  C   UNL     1     -11.173   0.519   1.232  0.00  0.00    +0.052 C 
ENDBRANCH   1  13
BRANCH   4  18
ATOM     18  C   UNL     1      -2.560   0.865   2.815  0.00  0.00    +0.217 C 
ATOM     19  O   UNL     1      -2.687   2.049   3.044  0.00  0.00    -0.275 OA
ATOM     20  N   UNL     1      -1.506   0.425   2.100  0.00  0.00    -0.308 N 
ATOM     21  H   UNL     1      -1.404  -0.522   1.917  0.00  0.00    +0.149 HD
BRANCH  20  22
ATOM     22  C   UNL     1      -0.513   1.379   1.599  0.00  0.00    +0.052 C 
ATOM     23  C   UNL     1      -1.204   2.395   0.670  0.00  0.00    +0.049 C 
ATOM     24  C   UNL     1      -1.559   1.675  -0.663  0.00  0.00    +0.168 C 
ATOM     25  S   UNL     1      -0.041   0.661  -0.913  0.00  0.00    -0.029 S 
ATOM     26  O   UNL     1       0.876   1.392  -1.716  0.00  0.00    -0.174 OA
ATOM     27  O   UNL     1      -0.420  -0.651  -1.303  0.00  0.00    -0.174 OA
ATOM     28  C   UNL     1       0.583   0.615   0.816  0.00  0.00    +0.191 C 
ATOM     29  C   UNL     1       0.125   2.114   2.779  0.00  0.00    +0.033 C 
ENDBRANCH  20  22
ENDBRANCH   4  18
TORSDOF 3
