REMARK  Name = ZINC64131552
REMARK  6 active torsions:
REMARK  status: ('A' for Active; 'I' for Inactive)
REMARK    1  A    between atoms: C_1  and  C_2
REMARK    2  A    between atoms: C_3  and  C_10
REMARK    3  A    between atoms: C_10  and  N_11
REMARK    4  A    between atoms: C_24  and  C_26
REMARK    5  A    between atoms: C_31  and  O_32
REMARK    6  A    between atoms: O_32  and  C_33
REMARK                            x       y       z     vdW  Elec       q    Type
REMARK                         _______ _______ _______ _____ _____    ______ ____
ROOT
ATOM      1  N   UNL     1      -1.171  -0.075  -2.962  0.00  0.00    -0.287 NA
ATOM      2  C   UNL     1      -1.676  -1.443  -2.810  0.00  0.00    +0.090 C 
ATOM      3  C   UNL     1      -3.214  -1.453  -2.874  0.00  0.00    +0.049 C 
ATOM      4  C   UNL     1      -3.589  -0.674  -4.110  0.00  0.00    -0.035 C 
ATOM      5  C   UNL     1      -4.405  -0.939  -5.120  0.00  0.00    -0.001 A 
ATOM      6  C   UNL     1      -5.359  -2.036  -5.348  0.00  0.00    +0.010 A 
ATOM      7  C   UNL     1      -6.029  -2.012  -6.531  0.00  0.00    +0.001 A 
ATOM      8  C   UNL     1      -5.847  -1.018  -7.498  0.00  0.00    +0.002 A 
ATOM      9  C   UNL     1      -4.998   0.033  -7.367  0.00  0.00    +0.026 A 
ATOM     10  C   UNL     1      -4.246   0.123  -6.160  0.00  0.00    +0.043 A 
ATOM     11  N   UNL     1      -3.396   1.025  -5.764  0.00  0.00    -0.376 N 
ATOM     12  C   UNL     1      -2.973   0.691  -4.406  0.00  0.00    +0.128 C 
ATOM     13  C   UNL     1      -1.458   0.509  -4.282  0.00  0.00    +0.117 C 
ATOM     14  H   UNL     1      -3.095   1.788  -6.281  0.00  0.00    +0.160 HD
ENDROOT
BRANCH  13  15
ATOM     15  C   UNL     1      -0.967  -0.416  -5.365  0.00  0.00    +0.014 A 
ATOM     16  C   UNL     1      -1.542  -1.662  -5.524  0.00  0.00    +0.009 A 
ATOM     17  C   UNL     1      -1.091  -2.511  -6.518  0.00  0.00    +0.001 A 
ATOM     18  C   UNL     1      -0.063  -2.116  -7.354  0.00  0.00    +0.004 A 
ATOM     19  C   UNL     1       0.515  -0.871  -7.199  0.00  0.00    +0.046 A 
ATOM     20  C   UNL     1       0.061  -0.015  -6.206  0.00  0.00    +0.125 A 
BRANCH  20  21
ATOM     21  O   UNL     1       0.624   1.212  -6.055  0.00  0.00    -0.495 OA
ATOM     22  C   UNL     1       1.677   1.558  -6.958  0.00  0.00    +0.277 C 
ENDBRANCH  20  21
ENDBRANCH  13  15
BRANCH   1  23
ATOM     23  C   UNL     1       0.264  -0.007  -2.657  0.00  0.00    +0.140 C 
BRANCH  23  26
ATOM     24  C   UNL     1       0.282   1.949  -0.235  0.00  0.00    +0.067 C 
ATOM     25  C   UNL     1       0.498   0.459  -0.169  0.00  0.00    +0.062 A 
ATOM     26  C   UNL     1       0.490  -0.383  -1.215  0.00  0.00    +0.061 A 
ATOM     27  N   UNL     1       0.728  -1.666  -0.728  0.00  0.00    -0.296 N 
ATOM     28  C   UNL     1       0.848  -2.947  -1.221  0.00  0.00    +0.100 A 
ATOM     29  C   UNL     1       1.088  -3.972  -0.405  0.00  0.00    +0.067 A 
ATOM     30  S   UNL     1       1.166  -3.166   1.187  0.00  0.00    -0.058 S 
ATOM     31  C   UNL     1       0.867  -1.506   0.625  0.00  0.00    +0.178 A 
ATOM     32  N   UNL     1       0.736  -0.251   0.945  0.00  0.00    -0.226 NA
ENDBRANCH  23  26
ENDBRANCH   1  23
TORSDOF 4
