REMARK  Name = ZINC41378357
REMARK  4 active torsions:
REMARK  status: ('A' for Active; 'I' for Inactive)
REMARK    1  A    between atoms: C_3  and  N_21
REMARK    2  A    between atoms: C_6  and  N_7
REMARK    3  A    between atoms: N_7  and  S_8
REMARK    4  A    between atoms: S_8  and  C_11
REMARK                            x       y       z     vdW  Elec       q    Type
REMARK                         _______ _______ _______ _____ _____    ______ ____
ROOT
ATOM      1  N   UNL     1      -1.204  -0.719   0.010  0.00  0.00    -0.216 N 
ATOM      2  H   UNL     1      -1.901  -0.492   0.645  0.00  0.00    +0.174 HD
ENDROOT
BRANCH   1   8
ATOM      3  C   UNL     1       0.015   1.362   0.107  0.00  0.00    +0.026 A 
ATOM      4  C   UNL     1       1.213   2.048   0.123  0.00  0.00    +0.025 A 
ATOM      5  C   UNL     1       2.413   1.352   0.058  0.00  0.00    +0.040 A 
ATOM      6  C   UNL     1       2.408  -0.034  -0.023  0.00  0.00    +0.025 A 
ATOM      7  C   UNL     1       1.210  -0.720  -0.040  0.00  0.00    +0.026 A 
ATOM      8  C   UNL     1       0.010  -0.024   0.026  0.00  0.00    +0.048 A 
BRANCH   5   9
ATOM      9  N   UNL     1       3.629   2.049   0.074  0.00  0.00    -0.234 N 
ATOM     10  C   UNL     1       4.977   1.450   0.005  0.00  0.00    +0.158 C 
ATOM     11  C   UNL     1       5.864   2.675  -0.321  0.00  0.00    +0.253 C 
ATOM     12  O   UNL     1       5.067   3.765   0.182  0.00  0.00    -0.448 OA
ATOM     13  C   UNL     1       3.778   3.385   0.148  0.00  0.00    +0.407 C 
ATOM     14  O   UNL     1       2.846   4.164   0.185  0.00  0.00    -0.226 OA
ENDBRANCH   5   9
ENDBRANCH   1   8
BRANCH   1  15
ATOM     15  S   UNL     1      -1.450  -1.930  -1.093  0.00  0.00    +0.072 S 
ATOM     16  O   UNL     1      -0.345  -2.816  -0.977  0.00  0.00    -0.150 OA
ATOM     17  O   UNL     1      -2.794  -2.363  -0.927  0.00  0.00    -0.150 OA
BRANCH  15  18
ATOM     18  C   UNL     1      -1.349  -1.204  -2.695  0.00  0.00    +0.112 A 
ATOM     19  C   UNL     1      -2.462  -0.601  -3.251  0.00  0.00    +0.032 A 
ATOM     20  C   UNL     1      -2.386  -0.032  -4.508  0.00  0.00    +0.051 A 
ATOM     21  C   UNL     1      -1.192  -0.062  -5.214  0.00  0.00    +0.162 A 
ATOM     22  C   UNL     1      -0.073  -0.666  -4.654  0.00  0.00    +0.164 A 
ATOM     23  C   UNL     1      -0.155  -1.232  -3.390  0.00  0.00    +0.078 A 
ATOM     24  O   UNL     1       1.110  -0.700  -5.326  0.00  0.00    -0.485 OA
ATOM     25  C   UNL     1       1.057  -0.448  -6.734  0.00  0.00    +0.270 C 
ATOM     26  C   UNL     1       0.170   0.782  -6.970  0.00  0.00    +0.270 C 
ATOM     27  O   UNL     1      -1.134   0.500  -6.452  0.00  0.00    -0.485 OA
ENDBRANCH  15  18
ENDBRANCH   1  15
TORSDOF 4
