REMARK  Name = ZINC67125143
REMARK  8 active torsions:
REMARK  status: ('A' for Active; 'I' for Inactive)
REMARK    1  A    between atoms: C_1  and  C_2
REMARK    2  A    between atoms: C_7  and  C_10
REMARK    3  A    between atoms: C_11  and  C_13
REMARK    4  A    between atoms: C_20  and  O_22
REMARK    5  A    between atoms: O_22  and  C_23
REMARK    6  A    between atoms: C_23  and  C_24
REMARK    7  A    between atoms: C_23  and  C_25
REMARK    8  A    between atoms: C_23  and  C_26
REMARK                            x       y       z     vdW  Elec       q    Type
REMARK                         _______ _______ _______ _____ _____    ______ ____
ROOT
ATOM      1  C   UNL     1       4.222   0.884  -2.032  0.00  0.00    +0.165 C 
ATOM      2  C   UNL     1       4.367   2.230  -1.315  0.00  0.00    +0.032 C 
ATOM      3  C   UNL     1       5.841   2.643  -1.307  0.00  0.00    +0.004 C 
ATOM      4  C   UNL     1       6.334   2.807  -2.746  0.00  0.00    +0.019 C 
ATOM      5  C   UNL     1       6.211   1.468  -3.480  0.00  0.00    +0.112 C 
ATOM      6  N   UNL     1       4.827   0.989  -3.367  0.00  0.00    -0.256 N 
ATOM      7  C   UNL     1       4.123   0.656  -4.468  0.00  0.00    +0.404 C 
ATOM      8  O   UNL     1       2.955   0.337  -4.369  0.00  0.00    -0.226 OA
ENDROOT
BRANCH   1  17
ATOM      9  C   UNL     1       0.408  -0.406   0.503  0.00  0.00    +0.039 C 
ATOM     10  C   UNL     1       0.412  -1.550  -0.513  0.00  0.00    +0.133 C 
ATOM     11  C   UNL     1       0.893  -1.027  -1.871  0.00  0.00    +0.139 C 
ATOM     12  N   UNL     1       2.315  -0.666  -1.752  0.00  0.00    -0.295 N 
ATOM     13  C   UNL     1       3.234  -1.657  -1.170  0.00  0.00    +0.139 C 
ATOM     14  C   UNL     1       2.638  -2.149   0.154  0.00  0.00    +0.133 C 
ATOM     15  O   UNL     1       1.293  -2.583  -0.066  0.00  0.00    -0.371 OA
ATOM     16  C   UNL     1       3.472  -3.316   0.687  0.00  0.00    +0.039 C 
ATOM     17  C   UNL     1       2.761   0.537  -2.165  0.00  0.00    +0.236 C 
ATOM     18  O   UNL     1       1.988   1.340  -2.643  0.00  0.00    -0.274 OA
ENDBRANCH   1  17
BRANCH   7  19
ATOM     19  O   UNL     1       4.715   0.676  -5.677  0.00  0.00    -0.445 OA
BRANCH  19  20
ATOM     20  C   UNL     1       3.910   0.311  -6.800  0.00  0.00    +0.107 C 
ATOM     21  C   UNL     1       2.721   1.269  -6.907  0.00  0.00    +0.055 C 
ATOM     22  C   UNL     1       4.748   0.393  -8.077  0.00  0.00    +0.055 C 
ATOM     23  C   UNL     1       3.397  -1.119  -6.617  0.00  0.00    +0.055 C 
ENDBRANCH  19  20
ENDBRANCH   7  19
TORSDOF 3
