REMARK  Name = ZINC12953262
REMARK  2 active torsions:
REMARK  status: ('A' for Active; 'I' for Inactive)
REMARK    1  A    between atoms: C_4  and  C_7
REMARK    2  A    between atoms: C_7  and  N_8
REMARK                            x       y       z     vdW  Elec       q    Type
REMARK                         _______ _______ _______ _____ _____    ______ ____
ROOT
ATOM      1  N   UNL     1      -4.346   1.783   0.050  0.00  0.00    -0.322 N 
ATOM      2  C   UNL     1      -3.550   0.648   0.035  0.00  0.00    +0.166 A 
ATOM      3  C   UNL     1      -2.154   0.756   0.025  0.00  0.00    +0.196 A 
ATOM      4  C   UNL     1      -1.407  -0.427   0.011  0.00  0.00    +0.123 A 
ATOM      5  C   UNL     1       0.002  -0.004   0.002  0.00  0.00    +0.066 A 
ATOM      6  C   UNL     1       1.223  -0.669  -0.011  0.00  0.00    +0.020 A 
ATOM      7  C   UNL     1       2.390   0.083  -0.017  0.00  0.00    -0.025 A 
ATOM      8  C   UNL     1       2.306   1.460  -0.014  0.00  0.00    +0.048 A 
ATOM      9  N   UNL     1       1.127   2.065   0.002  0.00  0.00    -0.217 NA
ATOM     10  C   UNL     1      -0.017   1.400   0.010  0.00  0.00    +0.230 A 
ATOM     11  O   UNL     1      -1.305   1.805   0.019  0.00  0.00    -0.432 OA
ATOM     12  C   UNL     1       3.532   2.338  -0.038  0.00  0.00    +0.056 C 
ATOM     13  C   UNL     1       4.768   1.548   0.386  0.00  0.00    +0.006 C 
ATOM     14  C   UNL     1       4.838   0.267  -0.454  0.00  0.00    +0.005 C 
ATOM     15  C   UNL     1       3.701  -0.656  -0.017  0.00  0.00    +0.037 C 
ATOM     16  N   UNL     1      -2.036  -1.599   0.009  0.00  0.00    -0.231 NA
ATOM     17  C   UNL     1      -3.352  -1.652   0.019  0.00  0.00    +0.224 A 
ATOM     18  N   UNL     1      -4.097  -0.563   0.032  0.00  0.00    -0.217 NA
ATOM     19  H   UNL     1      -3.937   2.662   0.052  0.00  0.00    +0.148 HD
ENDROOT
BRANCH   1  20
ATOM     20  C   UNL     1      -5.805   1.653   0.061  0.00  0.00    +0.138 C 
BRANCH  20  24
ATOM     21  C   UNL     1      -7.579   5.539   0.102  0.00  0.00    +0.000 A 
ATOM     22  C   UNL     1      -7.302   4.918  -1.102  0.00  0.00    +0.000 A 
ATOM     23  C   UNL     1      -6.728   3.661  -1.115  0.00  0.00    +0.005 A 
ATOM     24  C   UNL     1      -6.431   3.024   0.075  0.00  0.00    -0.030 A 
ATOM     25  C   UNL     1      -6.713   3.643   1.279  0.00  0.00    +0.005 A 
ATOM     26  C   UNL     1      -7.282   4.902   1.292  0.00  0.00    +0.000 A 
ENDBRANCH  20  24
ENDBRANCH   1  20
TORSDOF 2
