REMARK  Name = ZINC12919108
REMARK  6 active torsions:
REMARK  status: ('A' for Active; 'I' for Inactive)
REMARK    1  A    between atoms: C_1  and  C_2
REMARK    2  A    between atoms: C_15  and  C_17
REMARK    3  A    between atoms: C_17  and  C_19
REMARK    4  A    between atoms: C_17  and  S_20
REMARK    5  A    between atoms: S_20  and  C_21
REMARK    6  A    between atoms: N_25  and  C_26
REMARK                            x       y       z     vdW  Elec       q    Type
REMARK                         _______ _______ _______ _____ _____    ______ ____
ROOT
ATOM      1  C   UNL     1      -1.833   3.665  -0.585  0.00  0.00    +0.008 C 
ATOM      2  C   UNL     1      -1.495   2.180  -0.735  0.00  0.00    -0.009 C 
ATOM      3  C   UNL     1      -2.787   1.373  -0.896  0.00  0.00    +0.008 C 
ATOM      4  C   UNL     1      -2.481  -0.121  -0.796  0.00  0.00    +0.037 C 
ATOM      5  C   UNL     1      -1.367  -0.465  -1.782  0.00  0.00    -0.023 A 
ATOM      6  C   UNL     1      -0.568   0.507  -2.283  0.00  0.00    -0.004 A 
ATOM      7  S   UNL     1       0.561  -0.333  -3.366  0.00  0.00    -0.073 S 
ATOM      8  C   UNL     1      -0.039  -1.978  -3.146  0.00  0.00    +0.116 A 
ATOM      9  C   UNL     1      -1.104  -1.820  -2.231  0.00  0.00    +0.075 A 
ATOM     10  C   UNL     1      -1.811  -3.008  -1.843  0.00  0.00    +0.260 A 
ATOM     11  O   UNL     1      -2.745  -2.980  -1.061  0.00  0.00    -0.267 OA
ATOM     12  N   UNL     1      -1.374  -4.161  -2.404  0.00  0.00    -0.309 N 
ATOM     13  H   UNL     1      -1.823  -4.988  -2.169  0.00  0.00    +0.170 HD
ATOM     14  C   UNL     1      -0.338  -4.213  -3.275  0.00  0.00    +0.124 A 
ATOM     15  N   UNL     1       0.333  -3.148  -3.655  0.00  0.00    -0.225 NA
ATOM     16  C   UNL     1      -0.627   1.973  -1.984  0.00  0.00    +0.046 C 
ENDROOT
BRANCH  14  17
ATOM     17  C   UNL     1       0.062  -5.553  -3.836  0.00  0.00    +0.117 C 
ATOM     18  C   UNL     1       1.201  -6.138  -2.998  0.00  0.00    +0.027 C 
BRANCH  17  19
ATOM     19  S   UNL     1       0.617  -5.350  -5.551  0.00  0.00    -0.075 S 
BRANCH  19  20
ATOM     20  C   UNL     1       0.903  -6.998  -6.105  0.00  0.00    +0.194 A 
ATOM     21  N   UNL     1       0.743  -8.088  -5.395  0.00  0.00    -0.121 NA
ATOM     22  N   UNL     1       1.074  -9.183  -6.204  0.00  0.00    -0.113 NA
ATOM     23  C   UNL     1       1.433  -8.726  -7.378  0.00  0.00    +0.215 A 
ATOM     24  N   UNL     1       1.337  -7.364  -7.348  0.00  0.00    -0.288 N 
ATOM     25  N   UNL     1       1.840  -9.492  -8.463  0.00  0.00    -0.328 N 
ATOM     26  H   UNL     1       2.161  -9.059  -9.269  0.00  0.00    +0.145 HD
ATOM     27  H   UNL     1       1.804 -10.460  -8.414  0.00  0.00    +0.145 HD
BRANCH  24  28
ATOM     28  C   UNL     1       1.646  -6.454  -8.455  0.00  0.00    +0.093 C 
ATOM     29  C   UNL     1       1.882  -4.982  -8.114  0.00  0.00    +0.027 C 
ATOM     30  C   UNL     1       0.594  -5.406  -8.822  0.00  0.00    +0.027 C 
ENDBRANCH  24  28
ENDBRANCH  19  20
ENDBRANCH  17  19
ENDBRANCH  14  17
TORSDOF 4
