REMARK  Name = ZINC24644587
REMARK  5 active torsions:
REMARK  status: ('A' for Active; 'I' for Inactive)
REMARK    1  A    between atoms: C_1  and  N_2
REMARK    2  A    between atoms: N_7  and  C_8
REMARK    3  A    between atoms: C_8  and  C_10
REMARK    4  A    between atoms: C_13  and  N_16
REMARK    5  A    between atoms: C_17  and  C_19
REMARK                            x       y       z     vdW  Elec       q    Type
REMARK                         _______ _______ _______ _____ _____    ______ ____
ROOT
ATOM      1  C   UNL     1       2.709   6.586   0.027  0.00  0.00    +0.039 A 
ATOM      2  C   UNL     1       1.814   7.643  -0.150  0.00  0.00    +0.015 A 
ATOM      3  C   UNL     1       2.273   8.941  -0.147  0.00  0.00    +0.024 A 
ATOM      4  C   UNL     1       3.630   9.200   0.021  0.00  0.00    +0.034 A 
ATOM      5  C   UNL     1       4.525   8.148   0.192  0.00  0.00    +0.024 A 
ATOM      6  C   UNL     1       4.070   6.848   0.195  0.00  0.00    +0.015 A 
ENDROOT
BRANCH   4   7
ATOM      7  N   UNL     1       4.093  10.514   0.018  0.00  0.00    -0.281 N 
ATOM      8  C   UNL     1       5.311  10.799  -0.486  0.00  0.00    +0.255 C 
ATOM      9  O   UNL     1       5.965   9.926  -1.024  0.00  0.00    -0.269 OA
ATOM     10  H   UNL     1       3.466  11.320   0.427  0.00  0.00    +0.155 HD
BRANCH   8  11
ATOM     11  C   UNL     1       5.846  12.159  -0.385  0.00  0.00    +0.074 A 
ATOM     12  C   UNL     1       7.063  12.654  -0.827  0.00  0.00    +0.021 A 
ATOM     13  C   UNL     1       7.314  13.985  -0.604  0.00  0.00    +0.008 A 
ATOM     14  C   UNL     1       6.382  14.739   0.036  0.00  0.00    +0.046 A 
ATOM     15  S   UNL     1       5.105  13.608   0.346  0.00  0.00    -0.092 S 
ENDBRANCH   8  11
ENDBRANCH   4   7
BRANCH   1  16
ATOM     16  C   UNL     1       2.217   5.191   0.030  0.00  0.00    +0.269 C 
ATOM     17  O   UNL     1       3.001   4.269   0.180  0.00  0.00    -0.268 OA
BRANCH  16  24
ATOM     18  C   UNL     1      -1.914   4.163  -0.469  0.00  0.00    +0.150 C 
ATOM     19  N   UNL     1      -0.804   3.227  -0.276  0.00  0.00    -0.331 N 
ATOM     20  C   UNL     1      -1.028   1.887  -0.246  0.00  0.00    +0.094 A 
ATOM     21  C   UNL     1       0.011   1.066  -0.061  0.00  0.00    +0.066 A 
ATOM     22  S   UNL     1       1.372   2.214   0.064  0.00  0.00    -0.061 S 
ATOM     23  C   UNL     1       0.472   3.685  -0.128  0.00  0.00    +0.165 A 
ATOM     24  N   UNL     1       0.915   4.941  -0.131  0.00  0.00    -0.152 NA
ENDBRANCH  16  24
ENDBRANCH   1  16
TORSDOF 4
