REMARK  Name = ZINC48877397
REMARK  6 active torsions:
REMARK  status: ('A' for Active; 'I' for Inactive)
REMARK    1  A    between atoms: C_1  and  C_2
REMARK    2  A    between atoms: C_2  and  S_3
REMARK    3  A    between atoms: S_3  and  C_6
REMARK    4  A    between atoms: C_6  and  C_7
REMARK    5  A    between atoms: C_7  and  N_9
REMARK    6  A    between atoms: N_11  and  C_19
REMARK                            x       y       z     vdW  Elec       q    Type
REMARK                         _______ _______ _______ _____ _____    ______ ____
ROOT
ATOM      1  N   UNL     1      -2.877  -4.441   0.006  0.00  0.00    -0.155 NA
ATOM      2  C   UNL     1      -4.064  -5.044   0.014  0.00  0.00    +0.166 A 
ATOM      3  N   UNL     1      -4.319  -6.377   0.015  0.00  0.00    -0.324 N 
ATOM      4  C   UNL     1      -5.627  -6.826   0.024  0.00  0.00    +0.057 A 
ATOM      5  C   UNL     1      -6.111  -8.142   0.027  0.00  0.00    +0.027 A 
ATOM      6  C   UNL     1      -7.463  -8.390   0.036  0.00  0.00    +0.002 A 
ATOM      7  C   UNL     1      -8.383  -7.354   0.044  0.00  0.00    +0.001 A 
ATOM      8  C   UNL     1      -7.931  -6.046   0.042  0.00  0.00    +0.017 A 
ATOM      9  C   UNL     1      -6.579  -5.797   0.032  0.00  0.00    +0.039 A 
ATOM     10  S   UNL     1      -5.584  -4.328   0.033  0.00  0.00    -0.052 S 
ATOM     11  C   UNL     1      -3.213  -7.337   0.005  0.00  0.00    +0.151 C 
ENDROOT
BRANCH   1  12
ATOM     12  C   UNL     1      -2.807  -3.114   0.012  0.00  0.00    +0.259 C 
ATOM     13  O   UNL     1      -3.826  -2.451   0.025  0.00  0.00    -0.272 OA
BRANCH  12  14
ATOM     14  C   UNL     1      -1.463  -2.430   0.003  0.00  0.00    +0.263 C 
BRANCH  14  15
ATOM     15  S   UNL     1      -1.700  -0.632   0.015  0.00  0.00    -0.023 S 
ATOM     16  O   UNL     1      -2.304  -0.266   1.248  0.00  0.00    -0.174 OA
ATOM     17  O   UNL     1      -2.328  -0.253  -1.202  0.00  0.00    -0.174 OA
BRANCH  15  19
ATOM     18  C   UNL     1      -0.019   1.526   0.010  0.00  0.00    +0.028 C 
ATOM     19  C   UNL     1       0.002  -0.004   0.002  0.00  0.00    +0.163 C 
ENDBRANCH  15  19
ENDBRANCH  14  15
ENDBRANCH  12  14
ENDBRANCH   1  12
TORSDOF 4
