REMARK  Name = ZINC03379673
REMARK  9 active torsions:
REMARK  status: ('A' for Active; 'I' for Inactive)
REMARK    1  A    between atoms: C_1  and  C_2
REMARK    2  A    between atoms: C_2  and  C_4
REMARK    3  A    between atoms: C_2  and  N_29
REMARK    4  A    between atoms: C_7  and  S_16
REMARK    5  A    between atoms: N_8  and  C_9
REMARK    6  A    between atoms: S_16  and  C_17
REMARK    7  A    between atoms: C_17  and  N_18
REMARK    8  A    between atoms: N_29  and  C_30
REMARK    9  A    between atoms: N_29  and  C_31
REMARK                            x       y       z     vdW  Elec       q    Type
REMARK                         _______ _______ _______ _____ _____    ______ ____
ROOT
ATOM      1  C   UNL     1      -1.313  -0.868  -0.081  0.00  0.00    +0.125 A 
ATOM      2  N   UNL     1      -2.135  -0.910  -1.091  0.00  0.00    -0.135 NA
ATOM      3  N   UNL     1      -3.290  -1.320  -0.705  0.00  0.00    -0.122 NA
ATOM      4  C   UNL     1      -3.270  -1.565   0.585  0.00  0.00    +0.198 A 
ATOM      5  N   UNL     1      -2.004  -1.290   1.024  0.00  0.00    -0.275 N 
ENDROOT
BRANCH   5   6
ATOM      6  C   UNL     1      -1.516  -1.411   2.334  0.00  0.00    +0.050 A 
ATOM      7  C   UNL     1      -0.517  -2.331   2.622  0.00  0.00    +0.028 A 
ATOM      8  C   UNL     1      -0.038  -2.448   3.912  0.00  0.00    +0.022 A 
ATOM      9  C   UNL     1      -0.554  -1.649   4.917  0.00  0.00    +0.041 A 
ATOM     10  C   UNL     1      -1.550  -0.731   4.633  0.00  0.00    +0.022 A 
ATOM     11  C   UNL     1      -2.028  -0.607   3.343  0.00  0.00    +0.028 A 
ATOM     12 CL   UNL     1       0.050  -1.799   6.538  0.00  0.00    -0.084 Cl
ENDBRANCH   5   6
BRANCH   1  14
ATOM     13  C   UNL     1       0.210   1.083  -0.238  0.00  0.00    -0.005 C 
ATOM     14  C   UNL     1       0.132  -0.441  -0.121  0.00  0.00    -0.003 C 
BRANCH  14  15
ATOM     15  N   UNL     1       0.791  -1.056  -1.281  0.00  0.00    +0.382 N 
ATOM     16  C   UNL     1       2.200  -0.639  -1.321  0.00  0.00    -0.096 C 
ATOM     17  C   UNL     1       0.716  -2.518  -1.169  0.00  0.00    -0.096 C 
ATOM     18  H   UNL     1       0.329  -0.759  -2.127  0.00  0.00    -0.082 HD
ENDBRANCH  14  15
ENDBRANCH   1  14
BRANCH   4  19
ATOM     19  S   UNL     1      -4.616  -2.146   1.563  0.00  0.00    -0.062 S 
BRANCH  19  20
ATOM     20  C   UNL     1      -6.019  -2.162   0.413  0.00  0.00    +0.226 C 
BRANCH  20  21
ATOM     21  N   UNL     1      -6.494  -0.793   0.203  0.00  0.00    -0.200 N 
ATOM     22  C   UNL     1      -7.369  -0.239   1.075  0.00  0.00    +0.279 A 
ATOM     23  O   UNL     1      -7.776  -0.858   2.041  0.00  0.00    -0.265 OA
ATOM     24  C   UNL     1      -7.809   1.139   0.809  0.00  0.00    +0.068 A 
ATOM     25  C   UNL     1      -8.707   1.796   1.648  0.00  0.00    +0.015 A 
ATOM     26  C   UNL     1      -9.088   3.087   1.357  0.00  0.00    +0.001 A 
ATOM     27  C   UNL     1      -8.586   3.737   0.237  0.00  0.00    +0.002 A 
ATOM     28  C   UNL     1      -7.698   3.106  -0.604  0.00  0.00    +0.030 A 
ATOM     29  C   UNL     1      -7.295   1.796  -0.331  0.00  0.00    +0.100 A 
ATOM     30  N   UNL     1      -6.422   1.144  -1.138  0.00  0.00    -0.131 NA
ATOM     31  N   UNL     1      -6.039  -0.057  -0.895  0.00  0.00    -0.061 NA
ENDBRANCH  20  21
ENDBRANCH  19  20
ENDBRANCH   4  19
TORSDOF 6
