REMARK  Name = ZINC39354165
REMARK  4 active torsions:
REMARK  status: ('A' for Active; 'I' for Inactive)
REMARK    1  A    between atoms: C_1  and  O_2
REMARK    2  A    between atoms: O_2  and  C_3
REMARK    3  A    between atoms: C_7  and  C_10
REMARK    4  A    between atoms: C_8  and  O_9
REMARK                            x       y       z     vdW  Elec       q    Type
REMARK                         _______ _______ _______ _____ _____    ______ ____
ROOT
ATOM      1  C   UNL     1       1.394  -4.134   2.219  0.00  0.00    +0.047 C 
ATOM      2  C   UNL     1       0.781  -4.663   3.484  0.00  0.00    +0.015 C 
ATOM      3  C   UNL     1       1.103  -3.775   4.722  0.00  0.00    -0.006 C 
ATOM      4  C   UNL     1       2.648  -3.766   4.899  0.00  0.00    +0.004 C 
ATOM      5  C   UNL     1       3.010  -5.243   5.178  0.00  0.00    +0.005 C 
ATOM      6  C   UNL     1       1.639  -5.960   5.363  0.00  0.00    +0.003 C 
ATOM      7  C   UNL     1       0.735  -4.780   5.883  0.00  0.00    +0.008 C 
ATOM      8  C   UNL     1       1.062  -6.087   3.921  0.00  0.00    +0.059 C 
ATOM      9  S   UNL     1       2.116  -7.113   2.900  0.00  0.00    -0.107 S 
ATOM     10  C   UNL     1       2.678  -6.109   1.694  0.00  0.00    +0.082 C 
ATOM     11  N   UNL     1       3.015  -6.445   0.499  0.00  0.00    -0.168 NA
ATOM     12  C   UNL     1       3.469  -5.600  -0.441  0.00  0.00    +0.296 C 
ATOM     13  O   UNL     1       3.796  -5.847  -1.588  0.00  0.00    -0.261 OA
ATOM     14  S   UNL     1       3.481  -4.018   0.396  0.00  0.00    -0.055 S 
ATOM     15  C   UNL     1       2.826  -4.607   2.007  0.00  0.00    +0.116 C 
ENDROOT
BRANCH   1  20
ATOM     16  C   UNL     1       0.098  -0.617   1.690  0.00  0.00    +0.162 A 
ATOM     17  C   UNL     1       1.205   0.137   2.047  0.00  0.00    +0.049 A 
ATOM     18  C   UNL     1       2.365  -0.492   2.457  0.00  0.00    +0.004 A 
ATOM     19  C   UNL     1       2.426  -1.872   2.513  0.00  0.00    +0.008 A 
ATOM     20  C   UNL     1       1.325  -2.630   2.158  0.00  0.00    +0.003 A 
ATOM     21  C   UNL     1       0.156  -2.006   1.751  0.00  0.00    +0.162 A 
BRANCH  16  23
ATOM     22  C   UNL     1      -1.033   1.428   1.248  0.00  0.00    +0.277 C 
ATOM     23  O   UNL     1      -1.045  -0.000   1.286  0.00  0.00    -0.491 OA
ENDBRANCH  16  23
BRANCH  21  24
ATOM     24  O   UNL     1      -0.929  -2.749   1.408  0.00  0.00    -0.503 OA
ATOM     25  H   UNL     1      -0.961  -2.990   0.471  0.00  0.00    +0.292 HD
ENDBRANCH  21  24
ENDBRANCH   1  20
TORSDOF 3
