REMARK  Name = ZINC63063912
REMARK  2 active torsions:
REMARK  status: ('A' for Active; 'I' for Inactive)
REMARK    1  A    between atoms: C_5  and  O_7
REMARK    2  A    between atoms: C_12  and  C_14
REMARK                            x       y       z     vdW  Elec       q    Type
REMARK                         _______ _______ _______ _____ _____    ______ ____
ROOT
ATOM      1  C   UNL     1      -0.305   0.859   1.949  0.00  0.00    +0.004 A 
ATOM      2  C   UNL     1       0.552   1.574   1.135  0.00  0.00    +0.006 A 
ATOM      3  C   UNL     1       1.323   0.924   0.184  0.00  0.00    -0.022 A 
ATOM      4  C   UNL     1       1.232  -0.452   0.056  0.00  0.00    +0.081 A 
ATOM      5  C   UNL     1       0.366  -1.174   0.876  0.00  0.00    +0.138 A 
ATOM      6  C   UNL     1      -0.401  -0.514   1.822  0.00  0.00    +0.047 A 
ATOM      7  N   UNL     1       2.007  -1.138  -0.892  0.00  0.00    -0.261 N 
ATOM      8  C   UNL     1       2.687  -0.369  -1.943  0.00  0.00    +0.114 C 
ATOM      9  C   UNL     1       3.338   0.854  -1.282  0.00  0.00    +0.024 C 
ATOM     10  C   UNL     1       2.241   1.737  -0.689  0.00  0.00    +0.038 C 
ATOM     11  C   UNL     1       2.126  -2.479  -0.838  0.00  0.00    +0.286 C 
ATOM     12  O   UNL     1       1.897  -3.069   0.202  0.00  0.00    -0.266 OA
ENDROOT
BRANCH  11  13
ATOM     13  C   UNL     1       2.531  -3.227  -2.030  0.00  0.00    +0.192 A 
ATOM     14  C   UNL     1       2.588  -4.588  -2.144  0.00  0.00    +0.056 A 
ATOM     15  C   UNL     1       3.022  -4.866  -3.448  0.00  0.00    +0.063 A 
ATOM     16  C   UNL     1       3.210  -3.678  -4.068  0.00  0.00    +0.195 A 
ATOM     17  O   UNL     1       2.908  -2.693  -3.212  0.00  0.00    -0.439 OA
ATOM     18 CL   UNL     1       3.748  -3.464  -5.705  0.00  0.00    -0.043 Cl
ENDBRANCH  11  13
BRANCH   5  19
ATOM     19  O   UNL     1       0.275  -2.525   0.747  0.00  0.00    -0.505 OA
ATOM     20  H   UNL     1      -0.039  -2.975   1.543  0.00  0.00    +0.292 HD
ENDBRANCH   5  19
TORSDOF 2
