REMARK  Name = ZINC24072233
REMARK  10 active torsions:
REMARK  status: ('A' for Active; 'I' for Inactive)
REMARK    1  A    between atoms: C_1  and  C_2
REMARK    2  A    between atoms: C_15  and  C_17
REMARK    3  A    between atoms: C_17  and  C_19
REMARK    4  A    between atoms: C_17  and  N_20
REMARK    5  A    between atoms: N_23  and  C_26
REMARK    6  A    between atoms: C_26  and  C_27
REMARK    7  A    between atoms: N_29  and  C_30
REMARK    8  A    between atoms: C_30  and  C_31
REMARK    9  A    between atoms: C_30  and  C_32
REMARK   10  A    between atoms: C_30  and  C_33
REMARK                            x       y       z     vdW  Elec       q    Type
REMARK                         _______ _______ _______ _____ _____    ______ ____
ROOT
ATOM      1  C   UNL     1       2.301  -8.127   0.768  0.00  0.00    -0.004 C 
ATOM      2  C   UNL     1       1.222  -9.128   0.349  0.00  0.00    -0.005 C 
ENDROOT
BRANCH   1  16
ATOM      3  C   UNL     1      10.742  -9.106  -4.422  0.00  0.00    +0.008 C 
ATOM      4  C   UNL     1       9.428  -8.637  -3.794  0.00  0.00    -0.009 C 
ATOM      5  C   UNL     1       8.249  -9.289  -4.524  0.00  0.00    +0.008 C 
ATOM      6  C   UNL     1       6.939  -8.642  -4.073  0.00  0.00    +0.037 C 
ATOM      7  C   UNL     1       6.867  -8.681  -2.549  0.00  0.00    -0.023 A 
ATOM      8  C   UNL     1       7.987  -8.868  -1.812  0.00  0.00    -0.004 A 
ATOM      9  S   UNL     1       7.441  -8.844  -0.123  0.00  0.00    -0.073 S 
ATOM     10  C   UNL     1       5.719  -8.584  -0.407  0.00  0.00    +0.116 A 
ATOM     11  C   UNL     1       5.624  -8.524  -1.815  0.00  0.00    +0.075 A 
ATOM     12  C   UNL     1       4.317  -8.316  -2.372  0.00  0.00    +0.260 A 
ATOM     13  O   UNL     1       4.127  -8.248  -3.574  0.00  0.00    -0.267 OA
ATOM     14  N   UNL     1       3.309  -8.199  -1.476  0.00  0.00    -0.312 N 
ATOM     15  H   UNL     1       2.408  -8.058  -1.808  0.00  0.00    +0.170 HD
ATOM     16  C   UNL     1       3.498  -8.271  -0.136  0.00  0.00    +0.097 A 
ATOM     17  N   UNL     1       4.679  -8.460   0.411  0.00  0.00    -0.228 NA
ATOM     18  C   UNL     1       9.386  -9.052  -2.317  0.00  0.00    +0.046 C 
ENDBRANCH   1  16
BRANCH   1  19
ATOM     19  N   UNL     1       2.702  -8.392   2.157  0.00  0.00    +0.388 N 
ATOM     20  C   UNL     1       3.092  -9.802   2.293  0.00  0.00    -0.062 C 
ATOM     21  C   UNL     1       3.527 -10.073   3.735  0.00  0.00    +0.066 C 
ATOM     22  N   UNL     1       2.416  -9.764   4.646  0.00  0.00    -0.298 NA
ATOM     23  C   UNL     1       1.998  -8.362   4.502  0.00  0.00    +0.066 C 
ATOM     24  C   UNL     1       1.575  -8.105   3.054  0.00  0.00    -0.062 C 
ATOM     25  H   UNL     1       3.484  -7.802   2.399  0.00  0.00    -0.081 HD
BRANCH  22  26
ATOM     26  C   UNL     1       2.776 -10.066   6.037  0.00  0.00    +0.180 C 
BRANCH  26  27
ATOM     27  C   UNL     1       1.548  -9.973   6.906  0.00  0.00    +0.227 C 
ATOM     28  O   UNL     1       0.478  -9.684   6.414  0.00  0.00    -0.274 OA
ATOM     29  N   UNL     1       1.639 -10.212   8.229  0.00  0.00    -0.310 N 
ATOM     30  H   UNL     1       2.495 -10.444   8.622  0.00  0.00    +0.149 HD
BRANCH  29  31
ATOM     31  C   UNL     1       0.445 -10.122   9.073  0.00  0.00    +0.026 C 
ATOM     32  C   UNL     1      -0.601 -11.127   8.587  0.00  0.00    +0.031 C 
ATOM     33  C   UNL     1       0.820 -10.436  10.523  0.00  0.00    +0.031 C 
ATOM     34  C   UNL     1      -0.132  -8.707   8.991  0.00  0.00    +0.031 C 
ENDBRANCH  29  31
ENDBRANCH  26  27
ENDBRANCH  22  26
ENDBRANCH   1  19
TORSDOF 5
