REMARK  Name = ZINC48533472
REMARK  4 active torsions:
REMARK  status: ('A' for Active; 'I' for Inactive)
REMARK    1  A    between atoms: C_1  and  C_2
REMARK    2  A    between atoms: C_4  and  C_19
REMARK    3  A    between atoms: C_7  and  C_8
REMARK    4  A    between atoms: C_7  and  C_10
REMARK                            x       y       z     vdW  Elec       q    Type
REMARK                         _______ _______ _______ _____ _____    ______ ____
ROOT
ATOM      1  C   UNL     1       0.826   1.429   0.289  0.00  0.00    +0.018 C 
ATOM      2  C   UNL     1       0.500  -0.061   0.167  0.00  0.00    +0.085 C 
ATOM      3  C   UNL     1       0.651  -0.528  -1.294  0.00  0.00    +0.076 C 
ATOM      4  C   UNL     1       1.737  -1.579  -1.225  0.00  0.00    +0.036 C 
ATOM      5  C   UNL     1       2.222  -2.284  -2.279  0.00  0.00    +0.077 C 
ATOM      6  N   UNL     1       2.151  -1.701   0.071  0.00  0.00    -0.287 N 
ATOM      7  C   UNL     1       1.511  -0.889   0.926  0.00  0.00    +0.221 C 
ATOM      8  O   UNL     1       1.712  -0.826   2.121  0.00  0.00    -0.275 OA
ATOM      9  H   UNL     1       2.844  -2.320   0.349  0.00  0.00    +0.155 HD
ENDROOT
BRANCH   5  10
ATOM     10  C   UNL     1       1.681  -2.050  -3.639  0.00  0.00    -0.006 A 
ATOM     11  C   UNL     1       0.351  -2.353  -3.925  0.00  0.00    +0.009 A 
ATOM     12  C   UNL     1      -0.147  -2.133  -5.193  0.00  0.00    +0.001 A 
ATOM     13  C   UNL     1       0.671  -1.613  -6.180  0.00  0.00    +0.000 A 
ATOM     14  C   UNL     1       1.992  -1.310  -5.902  0.00  0.00    +0.001 A 
ATOM     15  C   UNL     1       2.499  -1.520  -4.636  0.00  0.00    +0.009 A 
ENDBRANCH   5  10
BRANCH   3  16
ATOM     16  C   UNL     1       1.073   0.618  -2.176  0.00  0.00    -0.038 A 
ATOM     17  C   UNL     1       0.161   1.202  -3.035  0.00  0.00    +0.004 A 
ATOM     18  C   UNL     1       0.549   2.254  -3.844  0.00  0.00    +0.000 A 
ATOM     19  C   UNL     1       1.849   2.722  -3.794  0.00  0.00    +0.000 A 
ATOM     20  C   UNL     1       2.761   2.138  -2.934  0.00  0.00    +0.000 A 
ATOM     21  C   UNL     1       2.372   1.089  -2.122  0.00  0.00    +0.004 A 
ENDBRANCH   3  16
BRANCH   5  22
ATOM     22  C   UNL     1       3.256  -3.253  -2.076  0.00  0.00    +0.101 C 
ATOM     23  N   UNL     1       4.077  -4.023  -1.916  0.00  0.00    -0.191 NA
ENDBRANCH   5  22
TORSDOF 3
