REMARK  Name = ZINC62325093
REMARK  5 active torsions:
REMARK  status: ('A' for Active; 'I' for Inactive)
REMARK    1  A    between atoms: C_1  and  C_2
REMARK    2  A    between atoms: C_2  and  C_4
REMARK    3  A    between atoms: C_2  and  O_23
REMARK    4  A    between atoms: C_4  and  N_5
REMARK    5  A    between atoms: C_13  and  N_18
REMARK                            x       y       z     vdW  Elec       q    Type
REMARK                         _______ _______ _______ _____ _____    ______ ____
ROOT
ATOM      1  N   UNL     1       0.762  -1.976   1.234  0.00  0.00    -0.313 N 
ATOM      2  C   UNL     1       1.377  -2.661   2.255  0.00  0.00    +0.205 C 
ATOM      3  N   UNL     1       1.915  -1.958   3.199  0.00  0.00    -0.097 NA
ATOM      4  S   UNL     1       2.690  -2.689   4.470  0.00  0.00    +0.103 S 
ATOM      5  O   UNL     1       1.769  -2.712   5.552  0.00  0.00    -0.146 OA
ATOM      6  O   UNL     1       3.973  -2.087   4.569  0.00  0.00    -0.146 OA
ATOM      7  C   UNL     1       2.944  -4.365   3.982  0.00  0.00    +0.135 A 
ATOM      8  C   UNL     1       3.812  -5.177   4.677  0.00  0.00    +0.054 A 
ATOM      9  C   UNL     1       3.998  -6.494   4.272  0.00  0.00    +0.032 A 
ATOM     10  C   UNL     1       3.308  -6.983   3.171  0.00  0.00    +0.025 A 
ATOM     11  C   UNL     1       2.437  -6.167   2.477  0.00  0.00    +0.027 A 
ATOM     12  C   UNL     1       2.249  -4.850   2.880  0.00  0.00    +0.061 A 
ATOM     13  N   UNL     1       1.361  -4.020   2.191  0.00  0.00    -0.285 N 
ATOM     14  H   UNL     1       0.342  -2.462   0.507  0.00  0.00    +0.149 HD
ATOM     15  H   UNL     1       0.693  -4.438   1.627  0.00  0.00    +0.155 HD
ENDROOT
BRANCH   9  16
ATOM     16  N   UNL     1       4.878  -7.325   4.974  0.00  0.00    -0.330 N 
ATOM     17  C   UNL     1       5.664  -6.939   6.155  0.00  0.00    +0.105 C 
ATOM     18  C   UNL     1       6.505  -8.166   6.567  0.00  0.00    +0.020 C 
ATOM     19  C   UNL     1       6.572  -8.996   5.258  0.00  0.00    +0.020 C 
ATOM     20  C   UNL     1       5.168  -8.735   4.654  0.00  0.00    +0.105 C 
ENDBRANCH   9  16
BRANCH   1  21
ATOM     21  C   UNL     1       0.742  -0.511   1.242  0.00  0.00    +0.135 C 
BRANCH  21  23
ATOM     22  C   UNL     1      -0.019   1.526   0.010  0.00  0.00    +0.039 C 
ATOM     23  C   UNL     1       0.002  -0.004   0.002  0.00  0.00    +0.128 C 
BRANCH  23  24
ATOM     24  O   UNL     1       0.671  -0.465  -1.174  0.00  0.00    -0.391 OA
ATOM     25  H   UNL     1       0.256  -0.181  -1.999  0.00  0.00    +0.210 HD
ENDBRANCH  23  24
ENDBRANCH  21  23
ENDBRANCH   1  21
TORSDOF 4
