REMARK  Name = ZINC13576915
REMARK  5 active torsions:
REMARK  status: ('A' for Active; 'I' for Inactive)
REMARK    1  A    between atoms: C_1  and  N_2
REMARK    2  A    between atoms: C_4  and  C_26
REMARK    3  A    between atoms: C_6  and  C_19
REMARK    4  A    between atoms: C_19  and  C_21
REMARK    5  A    between atoms: C_30  and  N_32
REMARK                            x       y       z     vdW  Elec       q    Type
REMARK                         _______ _______ _______ _____ _____    ______ ____
ROOT
ATOM      1  C   UNL     1      -4.364   3.721   1.326  0.00  0.00    +0.106 C 
ATOM      2  N   UNL     1      -3.124   3.119   1.834  0.00  0.00    -0.287 NA
ATOM      3  C   UNL     1      -3.204   1.635   1.811  0.00  0.00    +0.094 C 
ATOM      4  C   UNL     1      -2.126   1.202   2.838  0.00  0.00    +0.046 C 
ATOM      5  C   UNL     1      -2.242   2.285   3.938  0.00  0.00    +0.103 C 
ATOM      6  C   UNL     1      -2.899   3.483   3.243  0.00  0.00    +0.136 C 
ATOM      7  C   UNL     1      -2.041   4.713   3.355  0.00  0.00    +0.005 A 
ATOM      8  C   UNL     1      -0.761   5.013   2.944  0.00  0.00    +0.027 A 
ATOM      9  C   UNL     1      -0.228   6.266   3.197  0.00  0.00    +0.041 A 
ATOM     10  C   UNL     1      -0.985   7.213   3.865  0.00  0.00    +0.022 A 
ATOM     11  C   UNL     1      -2.267   6.916   4.278  0.00  0.00    +0.025 A 
ATOM     12  C   UNL     1      -2.810   5.658   4.027  0.00  0.00    +0.039 A 
ATOM     13  N   UNL     1      -4.062   5.125   4.343  0.00  0.00    -0.283 N 
ATOM     14  C   UNL     1      -4.194   3.854   3.918  0.00  0.00    +0.243 C 
ATOM     15  O   UNL     1      -5.169   3.145   4.053  0.00  0.00    -0.273 OA
ATOM     16 CL   UNL     1       1.384   6.647   2.679  0.00  0.00    -0.084 Cl
ATOM     17  H   UNL     1      -4.801   5.737   4.878  0.00  0.00    +0.155 HD
ENDROOT
BRANCH   4  18
ATOM     18  C   UNL     1      -2.440  -0.162   3.398  0.00  0.00    -0.040 A 
ATOM     19  C   UNL     1      -3.383  -0.962   2.781  0.00  0.00    +0.004 A 
ATOM     20  C   UNL     1      -3.668  -2.214   3.292  0.00  0.00    +0.002 A 
ATOM     21  C   UNL     1      -3.015  -2.663   4.425  0.00  0.00    +0.033 A 
ATOM     22  C   UNL     1      -2.076  -1.861   5.045  0.00  0.00    +0.126 A 
ATOM     23  C   UNL     1      -1.788  -0.610   4.531  0.00  0.00    +0.036 A 
BRANCH  22  24
ATOM     24  N   UNL     1      -1.377  -2.342   6.258  0.00  0.00    +0.056 N 
ATOM     25  O   UNL     1      -0.549  -1.635   6.804  0.00  0.00    -0.126 OA
ATOM     26  O   UNL     1      -1.630  -3.444   6.710  0.00  0.00    -0.126 OA
ENDBRANCH  22  24
ENDBRANCH   4  18
BRANCH   5  27
ATOM     27  C   UNL     1      -3.108   1.794   5.069  0.00  0.00    +0.176 C 
ATOM     28  O   UNL     1      -4.040   1.049   4.840  0.00  0.00    -0.291 OA
BRANCH  27  29
ATOM     29  C   UNL     1      -2.837   2.200   6.394  0.00  0.00    +0.055 A 
ATOM     30  C   UNL     1      -3.506   1.867   7.568  0.00  0.00    +0.019 A 
ATOM     31  C   UNL     1      -3.026   2.407   8.732  0.00  0.00    +0.008 A 
ATOM     32  C   UNL     1      -1.941   3.227   8.688  0.00  0.00    +0.046 A 
ATOM     33  S   UNL     1      -1.543   3.268   7.001  0.00  0.00    -0.094 S 
ENDBRANCH  27  29
ENDBRANCH   5  27
TORSDOF 4
