REMARK  Name = ZINC59133396
REMARK  5 active torsions:
REMARK  status: ('A' for Active; 'I' for Inactive)
REMARK    1  A    between atoms: C_3  and  N_10
REMARK    2  A    between atoms: C_5  and  N_7
REMARK    3  A    between atoms: C_11  and  C_13
REMARK    4  A    between atoms: C_13  and  C_23
REMARK    5  A    between atoms: C_14  and  C_15
REMARK                            x       y       z     vdW  Elec       q    Type
REMARK                         _______ _______ _______ _____ _____    ______ ____
ROOT
ATOM      1  N   UNL     1       3.603   2.216  -1.078  0.00  0.00    -0.281 N 
ATOM      2  C   UNL     1       3.624   3.558  -0.956  0.00  0.00    +0.259 C 
ATOM      3  O   UNL     1       2.636   4.210  -1.235  0.00  0.00    -0.269 OA
ATOM      4  H   UNL     1       4.363   1.690  -0.784  0.00  0.00    +0.155 HD
ENDROOT
BRANCH   1   7
ATOM      5  C   UNL     1       0.568   1.631  -3.068  0.00  0.00    +0.004 A 
ATOM      6  C   UNL     1       1.672   2.260  -2.527  0.00  0.00    +0.023 A 
ATOM      7  C   UNL     1       2.484   1.582  -1.628  0.00  0.00    +0.036 A 
ATOM      8  C   UNL     1       2.184   0.272  -1.276  0.00  0.00    +0.056 A 
ATOM      9  C   UNL     1       1.079  -0.351  -1.821  0.00  0.00    +0.128 A 
ATOM     10  C   UNL     1       0.272   0.327  -2.716  0.00  0.00    +0.033 A 
BRANCH   9  11
ATOM     11  N   UNL     1       0.758  -1.747  -1.447  0.00  0.00    +0.056 N 
ATOM     12  O   UNL     1       1.464  -2.341  -0.665  0.00  0.00    -0.126 OA
ATOM     13  O   UNL     1      -0.209  -2.294  -1.924  0.00  0.00    -0.126 OA
ENDBRANCH   9  11
ENDBRANCH   1   7
BRANCH   2  14
ATOM     14  C   UNL     1       4.843   4.235  -0.483  0.00  0.00    +0.114 C 
ATOM     15  C   UNL     1       4.825   5.587  -0.229  0.00  0.00    +0.032 C 
BRANCH  15  16
ATOM     16  C   UNL     1       3.550   6.313  -0.213  0.00  0.00    -0.022 A 
ATOM     17  C   UNL     1       2.456   5.799   0.494  0.00  0.00    +0.009 A 
ATOM     18  C   UNL     1       1.262   6.487   0.505  0.00  0.00    +0.022 A 
ATOM     19  C   UNL     1       1.142   7.684  -0.182  0.00  0.00    +0.059 A 
ATOM     20  C   UNL     1       2.220   8.200  -0.885  0.00  0.00    +0.060 A 
ATOM     21  C   UNL     1       3.423   7.527  -0.901  0.00  0.00    +0.029 A 
ATOM     22 CL   UNL     1       2.057   9.701  -1.743  0.00  0.00    -0.082 Cl
ATOM     23 CL   UNL     1      -0.367   8.543  -0.164  0.00  0.00    -0.082 Cl
ENDBRANCH  15  16
BRANCH  14  24
ATOM     24  C   UNL     1       6.048   3.486  -0.289  0.00  0.00    +0.104 C 
ATOM     25  N   UNL     1       7.004   2.892  -0.135  0.00  0.00    -0.191 NA
ENDBRANCH  14  24
ENDBRANCH   2  14
TORSDOF 5
