REMARK  Name = ZINC16787616
REMARK  5 active torsions:
REMARK  status: ('A' for Active; 'I' for Inactive)
REMARK    1  A    between atoms: C_1  and  C_2
REMARK    2  A    between atoms: C_2  and  C_4
REMARK    3  A    between atoms: C_2  and  S_17
REMARK    4  A    between atoms: S_17  and  C_18
REMARK    5  A    between atoms: N_28  and  C_29
REMARK                            x       y       z     vdW  Elec       q    Type
REMARK                         _______ _______ _______ _____ _____    ______ ____
ROOT
ATOM      1  S   UNL     1      -0.022   1.758   0.012  0.00  0.00    -0.075 S 
ENDROOT
BRANCH   1   2
ATOM      2  C   UNL     1       0.002  -0.004   0.002  0.00  0.00    +0.173 A 
ATOM      3  N   UNL     1       1.162  -0.613  -0.018  0.00  0.00    -0.223 NA
ATOM      4  C   UNL     1       1.254  -1.958  -0.021  0.00  0.00    +0.079 A 
ATOM      5  C   UNL     1       2.492  -2.607  -0.037  0.00  0.00    +0.028 A 
ATOM      6  C   UNL     1       2.539  -3.973  -0.047  0.00  0.00    +0.002 A 
ATOM      7  C   UNL     1       1.374  -4.728  -0.040  0.00  0.00    +0.001 A 
ATOM      8  C   UNL     1       0.148  -4.122  -0.024  0.00  0.00    +0.015 A 
ATOM      9  C   UNL     1       0.070  -2.730  -0.015  0.00  0.00    +0.065 A 
ATOM     10  C   UNL     1      -1.218  -2.024   0.002  0.00  0.00    +0.263 A 
ATOM     11  O   UNL     1      -2.272  -2.634   0.009  0.00  0.00    -0.267 OA
ATOM     12  N   UNL     1      -1.190  -0.671   0.010  0.00  0.00    -0.284 N 
BRANCH  12  13
ATOM     13  C   UNL     1      -2.446   0.083   0.026  0.00  0.00    +0.093 C 
ATOM     14  C   UNL     1      -3.242  -0.280   1.281  0.00  0.00    +0.025 C 
ATOM     15  C   UNL     1      -4.553   0.507   1.299  0.00  0.00    +0.002 C 
ATOM     16  C   UNL     1      -5.374   0.159   0.055  0.00  0.00    +0.000 C 
ATOM     17  C   UNL     1      -4.578   0.522  -1.200  0.00  0.00    +0.002 C 
ATOM     18  C   UNL     1      -3.266  -0.266  -1.217  0.00  0.00    +0.025 C 
ENDBRANCH  12  13
ENDBRANCH   1   2
BRANCH   1  20
ATOM     19  C   UNL     1       2.384   1.586   1.295  0.00  0.00    +0.029 C 
ATOM     20  C   UNL     1       1.756   2.096  -0.004  0.00  0.00    +0.137 C 
BRANCH  20  21
ATOM     21  C   UNL     1       1.984   3.581  -0.121  0.00  0.00    +0.233 C 
ATOM     22  O   UNL     1       1.131   4.357   0.256  0.00  0.00    -0.274 OA
ATOM     23  N   UNL     1       3.135   4.047  -0.646  0.00  0.00    -0.260 N 
ATOM     24  C   UNL     1       4.184   3.127  -1.111  0.00  0.00    +0.209 C 
ATOM     25  C   UNL     1       5.527   3.656  -0.678  0.00  0.00    +0.235 C 
ATOM     26  O   UNL     1       6.437   2.881  -0.469  0.00  0.00    -0.274 OA
ATOM     27  N   UNL     1       5.731   4.978  -0.520  0.00  0.00    -0.283 N 
ATOM     28  C   UNL     1       4.686   5.889  -0.706  0.00  0.00    +0.055 A 
ATOM     29  C   UNL     1       3.368   5.426  -0.772  0.00  0.00    +0.058 A 
ATOM     30  C   UNL     1       2.323   6.313  -0.954  0.00  0.00    +0.025 A 
ATOM     31  C   UNL     1       2.585   7.666  -1.080  0.00  0.00    +0.002 A 
ATOM     32  C   UNL     1       3.887   8.130  -1.024  0.00  0.00    +0.002 A 
ATOM     33  C   UNL     1       4.941   7.245  -0.829  0.00  0.00    +0.025 A 
ATOM     34  H   UNL     1       6.611   5.301  -0.275  0.00  0.00    +0.155 HD
ENDBRANCH  20  21
ENDBRANCH   1  20
TORSDOF 4
