REMARK  Name = ZINC35385921
REMARK  7 active torsions:
REMARK  status: ('A' for Active; 'I' for Inactive)
REMARK    1  A    between atoms: C_1  and  C_2
REMARK    2  A    between atoms: C_5  and  N_8
REMARK    3  A    between atoms: C_10  and  C_15
REMARK    4  A    between atoms: C_15  and  O_17
REMARK    5  A    between atoms: O_17  and  C_18
REMARK    6  A    between atoms: C_21  and  N_24
REMARK    7  A    between atoms: C_31  and  C_38
REMARK                            x       y       z     vdW  Elec       q    Type
REMARK                         _______ _______ _______ _____ _____    ______ ____
ROOT
ATOM      1  C   UNL     1       0.930  -9.771   1.872  0.00  0.00    +0.132 A 
ATOM      2  C   UNL     1       1.749  -9.353   2.911  0.00  0.00    +0.048 A 
ATOM      3  C   UNL     1       2.463 -10.281   3.643  0.00  0.00    +0.027 A 
ATOM      4  C   UNL     1       2.362 -11.632   3.339  0.00  0.00    +0.044 A 
ATOM      5  C   UNL     1       1.543 -12.049   2.299  0.00  0.00    +0.027 A 
ATOM      6  C   UNL     1       0.825 -11.121   1.570  0.00  0.00    +0.048 A 
ENDROOT
BRANCH   4   7
ATOM      7  N   UNL     1       3.088 -12.575   4.082  0.00  0.00    -0.210 N 
ATOM      8  C   UNL     1       2.945 -13.904   3.920  0.00  0.00    +0.230 C 
ATOM      9  O   UNL     1       2.105 -14.460   3.245  0.00  0.00    -0.275 OA
ATOM     10  C   UNL     1       4.028 -14.574   4.735  0.00  0.00    +0.088 C 
ATOM     11  C   UNL     1       3.647 -15.918   5.257  0.00  0.00    +0.014 C 
ATOM     12  C   UNL     1       2.893 -15.928   6.571  0.00  0.00    +0.004 C 
ATOM     13  C   UNL     1       3.557 -14.991   7.578  0.00  0.00    -0.013 C 
ATOM     14  C   UNL     1       3.530 -13.574   7.007  0.00  0.00    +0.016 C 
ATOM     15  C   UNL     1       4.394 -13.504   5.764  0.00  0.00    +0.088 C 
ATOM     16  C   UNL     1       3.993 -12.232   5.016  0.00  0.00    +0.230 C 
ATOM     17  O   UNL     1       4.412 -11.115   5.228  0.00  0.00    -0.275 OA
ATOM     18  C   UNL     1       2.791 -15.030   8.902  0.00  0.00    +0.007 C 
ENDBRANCH   4   7
BRANCH   1  19
ATOM     19  O   UNL     1       0.227  -8.857   1.151  0.00  0.00    -0.426 OA
BRANCH  19  20
ATOM     20  C   UNL     1       0.894  -8.114   0.253  0.00  0.00    +0.317 C 
ATOM     21  O   UNL     1       2.063  -8.330   0.040  0.00  0.00    -0.250 OA
BRANCH  20  24
ATOM     22  N   UNL     1       0.330  -5.965  -2.640  0.00  0.00    -0.271 N 
ATOM     23  C   UNL     1       1.143  -6.294  -1.464  0.00  0.00    +0.128 C 
ATOM     24  C   UNL     1       0.184  -7.011  -0.488  0.00  0.00    +0.125 C 
ATOM     25  C   UNL     1      -0.878  -7.586  -1.454  0.00  0.00    +0.112 C 
ATOM     26  C   UNL     1      -0.811  -6.675  -2.660  0.00  0.00    +0.221 C 
ATOM     27  O   UNL     1      -1.662  -6.600  -3.521  0.00  0.00    -0.275 OA
BRANCH  22  32
ATOM     28  C   UNL     1       1.800  -2.161  -6.585  0.00  0.00    +0.044 C 
ATOM     29  C   UNL     1       1.409  -3.171  -5.537  0.00  0.00    -0.050 A 
ATOM     30  C   UNL     1       0.268  -3.934  -5.705  0.00  0.00    +0.005 A 
ATOM     31  C   UNL     1      -0.093  -4.860  -4.747  0.00  0.00    +0.024 A 
ATOM     32  C   UNL     1       0.693  -5.027  -3.613  0.00  0.00    +0.036 A 
ATOM     33  C   UNL     1       1.839  -4.260  -3.448  0.00  0.00    +0.024 A 
ATOM     34  C   UNL     1       2.197  -3.339  -4.412  0.00  0.00    +0.005 A 
ENDBRANCH  22  32
ENDBRANCH  20  24
ENDBRANCH  19  20
ENDBRANCH   1  19
TORSDOF 5
