REMARK  Name = ZINC52341778
REMARK  3 active torsions:
REMARK  status: ('A' for Active; 'I' for Inactive)
REMARK    1  A    between atoms: C_1  and  C_2
REMARK    2  A    between atoms: C_2  and  C_4
REMARK    3  A    between atoms: C_2  and  N_10
REMARK                            x       y       z     vdW  Elec       q    Type
REMARK                         _______ _______ _______ _____ _____    ______ ____
ROOT
ATOM      1  N   UNL     1      -1.376  -0.470   0.172  0.00  0.00    -0.285 N 
ATOM      2  C   UNL     1      -2.285  -0.219  -0.796  0.00  0.00    +0.263 A 
ATOM      3  O   UNL     1      -1.972   0.387  -1.803  0.00  0.00    -0.267 OA
ATOM      4  C   UNL     1      -3.665  -0.699  -0.599  0.00  0.00    +0.063 A 
ATOM      5  C   UNL     1      -4.658  -0.480  -1.551  0.00  0.00    +0.015 A 
ATOM      6  C   UNL     1      -5.934  -0.950  -1.320  0.00  0.00    +0.001 A 
ATOM      7  C   UNL     1      -6.230  -1.634  -0.151  0.00  0.00    +0.002 A 
ATOM      8  C   UNL     1      -5.254  -1.857   0.800  0.00  0.00    +0.026 A 
ATOM      9  C   UNL     1      -3.965  -1.393   0.585  0.00  0.00    +0.053 A 
ATOM     10  N   UNL     1      -2.956  -1.596   1.514  0.00  0.00    -0.335 N 
ATOM     11  C   UNL     1      -1.711  -1.142   1.284  0.00  0.00    +0.161 A 
ATOM     12  S   UNL     1      -0.504  -1.429   2.464  0.00  0.00    -0.013 S 
ATOM     13  H   UNL     1      -3.148  -2.073   2.337  0.00  0.00    +0.168 HD
ENDROOT
BRANCH   1  15
ATOM     14  C   UNL     1       0.011   1.518  -0.151  0.00  0.00    +0.031 C 
ATOM     15  C   UNL     1       0.002  -0.004   0.002  0.00  0.00    +0.093 C 
BRANCH  15  16
ATOM     16  C   UNL     1       0.607  -0.646  -1.248  0.00  0.00    +0.012 C 
ATOM     17  C   UNL     1       0.497  -2.168  -1.144  0.00  0.00    +0.005 C 
ATOM     18  C   UNL     1       1.102  -2.810  -2.394  0.00  0.00    +0.000 C 
ATOM     19  C   UNL     1       2.574  -2.411  -2.511  0.00  0.00    +0.000 C 
ATOM     20  C   UNL     1       2.683  -0.889  -2.616  0.00  0.00    +0.000 C 
ATOM     21  C   UNL     1       2.079  -0.247  -1.365  0.00  0.00    +0.005 C 
ENDBRANCH  15  16
ENDBRANCH   1  15
TORSDOF 2
