REMARK  Name = ZINC66247876
REMARK  5 active torsions:
REMARK  status: ('A' for Active; 'I' for Inactive)
REMARK    1  A    between atoms: C_1  and  C_2
REMARK    2  A    between atoms: C_4  and  N_8
REMARK    3  A    between atoms: N_5  and  C_7
REMARK    4  A    between atoms: N_8  and  S_9
REMARK    5  A    between atoms: S_9  and  C_12
REMARK                            x       y       z     vdW  Elec       q    Type
REMARK                         _______ _______ _______ _____ _____    ______ ____
ROOT
ATOM      1  C   UNL     1       1.671  -2.234  -3.515  0.00  0.00    +0.144 A 
ATOM      2  C   UNL     1       2.553  -2.862  -4.377  0.00  0.00    +0.037 A 
ATOM      3  C   UNL     1       3.780  -2.291  -4.647  0.00  0.00    -0.024 A 
ATOM      4  C   UNL     1       4.131  -1.084  -4.054  0.00  0.00    +0.039 A 
ATOM      5  C   UNL     1       3.246  -0.456  -3.189  0.00  0.00    +0.064 A 
ATOM      6  C   UNL     1       2.015  -1.029  -2.926  0.00  0.00    +0.152 A 
ATOM      7  F   UNL     1       1.149  -0.416  -2.089  0.00  0.00    -0.203 F 
ATOM      8  N   UNL     1       5.374  -0.507  -4.330  0.00  0.00    -0.285 N 
ATOM      9  C   UNL     1       6.075  -0.883  -5.415  0.00  0.00    +0.218 C 
ATOM     10  O   UNL     1       7.158  -0.382  -5.632  0.00  0.00    -0.275 OA
ATOM     11  C   UNL     1       5.531  -1.917  -6.363  0.00  0.00    +0.101 C 
ATOM     12  C   UNL     1       4.742  -2.972  -5.585  0.00  0.00    +0.046 C 
ATOM     13  H   UNL     1       5.733   0.170  -3.735  0.00  0.00    +0.155 HD
ENDROOT
BRANCH   1  14
ATOM     14  S   UNL     1       0.105  -2.966  -3.173  0.00  0.00    +0.076 S 
ATOM     15  O   UNL     1       0.066  -4.194  -3.888  0.00  0.00    -0.150 OA
ATOM     16  O   UNL     1      -0.868  -1.947  -3.356  0.00  0.00    -0.150 OA
BRANCH  14  17
ATOM     17  N   UNL     1       0.088  -3.354  -1.563  0.00  0.00    -0.200 N 
ATOM     18  H   UNL     1      -0.550  -2.929  -0.969  0.00  0.00    +0.175 HD
BRANCH  17  22
ATOM     19  C   UNL     1       3.647  -6.839  -1.287  0.00  0.00    +0.067 C 
ATOM     20  C   UNL     1       2.576  -5.849  -0.909  0.00  0.00    +0.062 A 
ATOM     21  C   UNL     1       1.857  -5.041  -1.795  0.00  0.00    +0.069 A 
ATOM     22  C   UNL     1       0.988  -4.291  -1.063  0.00  0.00    +0.136 A 
ATOM     23  N   UNL     1       1.159  -4.620   0.237  0.00  0.00    -0.252 N 
ATOM     24  N   UNL     1       2.155  -5.602   0.306  0.00  0.00    -0.175 NA
ATOM     25  C   UNL     1       0.428  -4.054   1.373  0.00  0.00    +0.174 C 
ENDBRANCH  17  22
ENDBRANCH  14  17
ENDBRANCH   1  14
TORSDOF 3
