REMARK  Name = ZINC49334259
REMARK  4 active torsions:
REMARK  status: ('A' for Active; 'I' for Inactive)
REMARK    1  A    between atoms: C_1  and  N_2
REMARK    2  A    between atoms: N_2  and  C_3
REMARK    3  A    between atoms: N_2  and  S_11
REMARK    4  A    between atoms: S_11  and  N_14
REMARK                            x       y       z     vdW  Elec       q    Type
REMARK                         _______ _______ _______ _____ _____    ______ ____
ROOT
ATOM      1  C   UNL     1      -0.079  -0.832   1.266  0.00  0.00    +0.159 C 
ATOM      2  N   UNL     1      -0.007  -0.052   0.028  0.00  0.00    -0.195 N 
ENDROOT
BRANCH   2   3
ATOM      3  C   UNL     1      -0.052   1.344   0.077  0.00  0.00    +0.070 A 
ATOM      4  C   UNL     1       1.112   2.070   0.290  0.00  0.00    +0.027 A 
ATOM      5  C   UNL     1       1.065   3.450   0.338  0.00  0.00    +0.017 A 
ATOM      6  C   UNL     1      -0.141   4.109   0.174  0.00  0.00    +0.019 A 
ATOM      7  C   UNL     1      -1.303   3.389  -0.038  0.00  0.00    +0.037 A 
ATOM      8  C   UNL     1      -1.261   2.008  -0.092  0.00  0.00    +0.065 A 
ATOM      9 CL   UNL     1      -2.718   1.105  -0.366  0.00  0.00    -0.082 Cl
ATOM     10 BR   UNL     1      -0.200   5.998   0.240  0.00  0.00    -0.050 Br
ENDBRANCH   2   3
BRANCH   2  11
ATOM     11  S   UNL     1       0.127  -0.826  -1.431  0.00  0.00    +0.114 S 
ATOM     12  O   UNL     1      -0.533  -2.076  -1.289  0.00  0.00    -0.138 OA
ATOM     13  O   UNL     1      -0.238   0.120  -2.426  0.00  0.00    -0.138 OA
BRANCH  11  14
ATOM     14  N   UNL     1       1.732  -1.161  -1.661  0.00  0.00    -0.164 NA
ATOM     15  C   UNL     1       2.569  -0.153  -2.272  0.00  0.00    +0.111 C 
ATOM     16  C   UNL     1       2.552  -0.327  -3.811  0.00  0.00    +0.017 C 
ATOM     17  C   UNL     1       3.298  -1.534  -4.197  0.00  0.00    +0.001 C 
ATOM     18  C   UNL     1       2.708  -2.836  -3.663  0.00  0.00    +0.001 C 
ATOM     19  C   UNL     1       3.219  -3.081  -2.265  0.00  0.00    +0.017 C 
ATOM     20  C   UNL     1       2.250  -2.473  -1.229  0.00  0.00    +0.111 C 
ENDBRANCH  11  14
ENDBRANCH   2  11
TORSDOF 3
