REMARK  Name = ZINC66178509
REMARK  8 active torsions:
REMARK  status: ('A' for Active; 'I' for Inactive)
REMARK    1  A    between atoms: C_1  and  C_2
REMARK    2  A    between atoms: C_5  and  C_29
REMARK    3  A    between atoms: N_8  and  C_10
REMARK    4  A    between atoms: C_10  and  C_11
REMARK    5  A    between atoms: C_11  and  C_12
REMARK    6  A    between atoms: C_12  and  N_13
REMARK    7  A    between atoms: C_19  and  N_22
REMARK    8  A    between atoms: C_23  and  C_25
REMARK                            x       y       z     vdW  Elec       q    Type
REMARK                         _______ _______ _______ _____ _____    ______ ____
ROOT
ATOM      1  N   UNL     1       2.207   0.402   6.106  0.00  0.00    -0.299 N 
ATOM      2  C   UNL     1       2.669   0.154   7.348  0.00  0.00    +0.302 C 
ATOM      3  O   UNL     1       3.560  -0.656   7.514  0.00  0.00    -0.253 OA
ATOM      4  N   UNL     1       2.144   0.805   8.405  0.00  0.00    -0.286 N 
ATOM      5  C   UNL     1       0.991   1.699   8.236  0.00  0.00    +0.111 C 
ATOM      6  C   UNL     1       1.337   3.068   8.830  0.00  0.00    +0.041 C 
ATOM      7  C   UNL     1       1.787   2.890  10.282  0.00  0.00    +0.076 C 
ATOM      8  C   UNL     1       3.040   2.013  10.326  0.00  0.00    +0.041 C 
ATOM      9  C   UNL     1       2.710   0.628   9.749  0.00  0.00    +0.111 C 
ATOM     10  H   UNL     1       1.448   0.993   5.980  0.00  0.00    +0.150 HD
ENDROOT
BRANCH   7  11
ATOM     11  N   UNL     1       2.087   4.201  10.864  0.00  0.00    -0.312 N 
ATOM     12  C   UNL     1       2.010   4.379  12.198  0.00  0.00    +0.216 C 
ATOM     13  O   UNL     1       1.692   3.455  12.916  0.00  0.00    -0.276 OA
ATOM     14  H   UNL     1       2.341   4.940  10.290  0.00  0.00    +0.149 HD
BRANCH  12  15
ATOM     15  C   UNL     1       2.319   5.727  12.797  0.00  0.00    +0.075 C 
ATOM     16  C   UNL     1       1.137   6.709  12.747  0.00  0.00    +0.013 C 
ATOM     17  C   UNL     1       0.710   6.141  14.111  0.00  0.00    +0.001 C 
ATOM     18  C   UNL     1       2.186   5.766  14.328  0.00  0.00    +0.013 C 
ENDBRANCH  12  15
ENDBRANCH   7  11
BRANCH   1  19
ATOM     19  C   UNL     1       2.851  -0.221   4.947  0.00  0.00    +0.104 C 
BRANCH  19  20
ATOM     20  C   UNL     1       2.138   0.223   3.668  0.00  0.00    +0.000 C 
BRANCH  20  21
ATOM     21  C   UNL     1       2.811  -0.427   2.458  0.00  0.00    -0.077 C 
BRANCH  21  27
ATOM     22  C   UNL     1      -0.015   1.530   0.010  0.00  0.00    +0.005 C 
ATOM     23  C   UNL     1       0.007   0.000   0.000  0.00  0.00    -0.031 C 
ATOM     24  C   UNL     1       0.726  -0.493  -1.258  0.00  0.00    +0.003 C 
ATOM     25  C   UNL     1       2.183  -0.021  -1.220  0.00  0.00    -0.031 C 
ATOM     26  C   UNL     1       2.844  -0.529   0.063  0.00  0.00    -0.076 C 
ATOM     27  N   UNL     1       2.126  -0.001   1.230  0.00  0.00    +0.380 N 
ATOM     28  C   UNL     1       0.748  -0.508   1.239  0.00  0.00    -0.076 C 
ATOM     29  C   UNL     1       2.931  -0.573  -2.435  0.00  0.00    +0.005 C 
ATOM     30  H   UNL     1       2.112   1.007   1.187  0.00  0.00    -0.082 HD
ENDBRANCH  21  27
ENDBRANCH  20  21
ENDBRANCH  19  20
ENDBRANCH   1  19
TORSDOF 6
