REMARK  Name = ZINC00408202
REMARK  4 active torsions:
REMARK  status: ('A' for Active; 'I' for Inactive)
REMARK    1  A    between atoms: C_6  and  C_7
REMARK    2  A    between atoms: C_10  and  S_12
REMARK    3  A    between atoms: S_12  and  C_13
REMARK    4  A    between atoms: C_13  and  O_15
REMARK                            x       y       z     vdW  Elec       q    Type
REMARK                         _______ _______ _______ _____ _____    ______ ____
ROOT
ATOM      1  C   UNL     1      -4.457  -0.499   0.020  0.00  0.00    +0.249 A 
ATOM      2  N   UNL     1      -3.405  -1.282   0.011  0.00  0.00    -0.106 NA
ATOM      3  N   UNL     1      -2.338  -0.564   0.011  0.00  0.00    -0.100 NA
ATOM      4  C   UNL     1      -2.666   0.706   0.018  0.00  0.00    +0.288 A 
ATOM      5  O   UNL     1      -4.011   0.775   0.031  0.00  0.00    -0.411 OA
ENDROOT
BRANCH   1  11
ATOM      6  C   UNL     1      -6.893   0.017   0.040  0.00  0.00    +0.014 A 
ATOM      7  C   UNL     1      -8.210  -0.394   0.039  0.00  0.00    +0.016 A 
ATOM      8  C   UNL     1      -8.518  -1.744   0.033  0.00  0.00    +0.018 A 
ATOM      9  C   UNL     1      -7.507  -2.690   0.022  0.00  0.00    +0.016 A 
ATOM     10  C   UNL     1      -6.186  -2.292   0.018  0.00  0.00    +0.014 A 
ATOM     11  C   UNL     1      -5.870  -0.932   0.024  0.00  0.00    +0.039 A 
ATOM     12 BR   UNL     1     -10.325  -2.298   0.038  0.00  0.00    -0.050 Br
ENDBRANCH   1  11
BRANCH   4  13
ATOM     13  S   UNL     1      -1.552   2.071   0.021  0.00  0.00    +0.052 S 
BRANCH  13  14
ATOM     14  C   UNL     1      -0.014   1.211   0.009  0.00  0.00    +0.375 C 
ATOM     15  O   UNL     1       0.002  -0.004   0.002  0.00  0.00    -0.237 OA
BRANCH  14  16
ATOM     16  O   UNL     1       1.143   1.900   0.001  0.00  0.00    -0.472 OA
ATOM     17  H   UNL     1       1.961   1.385  -0.009  0.00  0.00    +0.296 HD
ENDBRANCH  14  16
ENDBRANCH  13  14
ENDBRANCH   4  13
TORSDOF 4
