REMARK  Name = ZINC08768870
REMARK  5 active torsions:
REMARK  status: ('A' for Active; 'I' for Inactive)
REMARK    1  A    between atoms: C_1  and  C_2
REMARK    2  A    between atoms: C_3  and  S_15
REMARK    3  A    between atoms: C_4  and  C_14
REMARK    4  A    between atoms: C_7  and  C_9
REMARK    5  A    between atoms: S_15  and  N_18
REMARK                            x       y       z     vdW  Elec       q    Type
REMARK                         _______ _______ _______ _____ _____    ______ ____
ROOT
ATOM      1  C   UNL     1      -0.949   2.666   4.759  0.00  0.00    +0.069 C 
ATOM      2  C   UNL     1      -1.149   2.265   3.320  0.00  0.00    +0.087 A 
ATOM      3  C   UNL     1      -0.143   1.839   2.440  0.00  0.00    +0.149 A 
ATOM      4  C   UNL     1      -0.718   1.572   1.248  0.00  0.00    +0.071 A 
ATOM      5  N   UNL     1      -2.052   1.827   1.368  0.00  0.00    -0.202 N 
ATOM      6  N   UNL     1      -2.288   2.254   2.681  0.00  0.00    -0.167 NA
ATOM      7  C   UNL     1      -2.978   1.691   0.398  0.00  0.00    +0.251 C 
ATOM      8  O   UNL     1      -2.650   1.309  -0.700  0.00  0.00    -0.271 OA
ATOM      9  C   UNL     1      -0.013   1.086   0.008  0.00  0.00    +0.068 C 
ENDROOT
BRANCH   7  10
ATOM     10  C   UNL     1      -4.422   2.014   0.684  0.00  0.00    +0.080 C 
ATOM     11  C   UNL     1      -5.136   0.774   1.262  0.00  0.00    +0.013 C 
ATOM     12  C   UNL     1      -6.555   0.832   0.643  0.00  0.00    +0.001 C 
ATOM     13  C   UNL     1      -6.282   1.339  -0.795  0.00  0.00    +0.001 C 
ATOM     14  C   UNL     1      -5.150   2.373  -0.623  0.00  0.00    +0.013 C 
ENDBRANCH   7  10
BRANCH   3  15
ATOM     15  S   UNL     1       1.570   1.682   2.823  0.00  0.00    +0.064 S 
ATOM     16  O   UNL     1       1.657   1.510   4.230  0.00  0.00    -0.153 OA
ATOM     17  O   UNL     1       2.106   0.739   1.905  0.00  0.00    -0.153 OA
BRANCH  15  18
ATOM     18  N   UNL     1       2.284   3.136   2.478  0.00  0.00    -0.176 NA
ATOM     19  C   UNL     1       2.874   3.516   1.187  0.00  0.00    +0.109 C 
ATOM     20  C   UNL     1       3.438   4.944   1.343  0.00  0.00    +0.018 C 
ATOM     21  C   UNL     1       3.644   5.068   2.876  0.00  0.00    +0.018 C 
ATOM     22  C   UNL     1       2.439   4.261   3.418  0.00  0.00    +0.109 C 
ENDBRANCH  15  18
ENDBRANCH   3  15
TORSDOF 3
