REMARK  Name = ZINC20673699
REMARK  6 active torsions:
REMARK  status: ('A' for Active; 'I' for Inactive)
REMARK    1  A    between atoms: C_1  and  C_2
REMARK    2  A    between atoms: C_2  and  N_3
REMARK    3  A    between atoms: N_3  and  C_4
REMARK    4  A    between atoms: N_3  and  C_6
REMARK    5  A    between atoms: C_4  and  C_5
REMARK    6  A    between atoms: C_9  and  C_12
REMARK                            x       y       z     vdW  Elec       q    Type
REMARK                         _______ _______ _______ _____ _____    ______ ____
ROOT
ATOM      1  C   UNL     1      -2.721   2.389  -2.361  0.00  0.00    +0.010 A 
ATOM      2  C   UNL     1      -1.956   2.450  -3.535  0.00  0.00    +0.092 A 
ATOM      3  C   UNL     1      -2.523   2.896  -4.810  0.00  0.00    +0.263 A 
ATOM      4  O   UNL     1      -3.689   3.233  -4.900  0.00  0.00    -0.267 OA
ATOM      5  N   UNL     1      -1.700   2.919  -5.885  0.00  0.00    -0.294 N 
ATOM      6  H   UNL     1      -2.082   3.246  -6.864  0.00  0.00    +0.172 HD
ATOM      7  C   UNL     1      -0.398   2.537  -5.761  0.00  0.00    +0.200 A 
ATOM      8  N   UNL     1       0.128   2.134  -4.629  0.00  0.00    -0.196 NA
ATOM      9  C   UNL     1      -0.593   2.069  -3.495  0.00  0.00    +0.169 A 
ATOM     10  N   UNL     1      -0.045   1.653  -2.354  0.00  0.00    -0.231 NA
ATOM     11  C   UNL     1      -0.725   1.577  -1.226  0.00  0.00    +0.055 A 
ATOM     12  C   UNL     1      -2.076   1.944  -1.184  0.00  0.00    +0.047 A 
ATOM     13  C   UNL     1      -2.828   1.875   0.073  0.00  0.00    +0.165 C 
ATOM     14  O   UNL     1      -3.927   2.379   0.176  0.00  0.00    -0.292 OA
ATOM     15  C   UNL     1      -2.185   1.153   1.239  0.00  0.00    +0.080 C 
ATOM     16  C   UNL     1      -0.710   1.569   1.276  0.00  0.00    +0.014 C 
ATOM     17  C   UNL     1      -0.013   1.086   0.008  0.00  0.00    +0.056 C 
ATOM     18  N   UNL     1       0.401   2.576  -6.872  0.00  0.00    -0.301 N 
ATOM     19  C   UNL     1      -0.232   1.879  -7.999  0.00  0.00    +0.108 C 
ATOM     20  C   UNL     1       0.618   2.067  -9.258  0.00  0.00    +0.019 C 
ATOM     21  C   UNL     1       2.021   1.506  -9.009  0.00  0.00    +0.003 C 
ATOM     22  C   UNL     1       2.639   2.214  -7.801  0.00  0.00    +0.019 C 
ATOM     23  C   UNL     1       1.730   2.022  -6.584  0.00  0.00    +0.108 C 
ENDROOT
BRANCH   1  27
ATOM     24  C   UNL     1      -6.821   3.499  -2.342  0.00  0.00    +0.030 A 
ATOM     25  C   UNL     1      -5.844   4.455  -2.607  0.00  0.00    +0.024 A 
ATOM     26  C   UNL     1      -4.514   4.098  -2.614  0.00  0.00    +0.010 A 
ATOM     27  C   UNL     1      -4.146   2.775  -2.354  0.00  0.00    -0.016 A 
ATOM     28  C   UNL     1      -5.130   1.817  -2.094  0.00  0.00    +0.010 A 
ATOM     29  C   UNL     1      -6.457   2.181  -2.083  0.00  0.00    +0.024 A 
BRANCH  24  30
ATOM     30  N   UNL     1      -8.165   3.863  -2.336  0.00  0.00    -0.330 N 
BRANCH  30  32
ATOM     31  C   UNL     1      -9.465   2.810  -0.553  0.00  0.00    +0.024 C 
ATOM     32  C   UNL     1      -9.194   2.859  -2.058  0.00  0.00    +0.102 C 
ENDBRANCH  30  32
BRANCH  30  33
ATOM     33  C   UNL     1      -8.549   5.250  -2.609  0.00  0.00    +0.102 C 
ATOM     34  C   UNL     1      -8.771   5.432  -4.112  0.00  0.00    +0.024 C 
ENDBRANCH  30  33
ENDBRANCH  24  30
ENDBRANCH   1  27
TORSDOF 4
