REMARK  Name = ZINC12545375
REMARK  3 active torsions:
REMARK  status: ('A' for Active; 'I' for Inactive)
REMARK    1  A    between atoms: C_4  and  O_22
REMARK    2  A    between atoms: C_5  and  N_7
REMARK    3  A    between atoms: C_13  and  C_15
REMARK                            x       y       z     vdW  Elec       q    Type
REMARK                         _______ _______ _______ _____ _____    ______ ____
ROOT
ATOM      1  N   UNL     1       1.543   0.291   0.306  0.00  0.00    -0.324 N 
ATOM      2  C   UNL     1       1.740  -0.469  -0.935  0.00  0.00    +0.124 C 
ATOM      3  C   UNL     1       3.240  -0.613  -1.210  0.00  0.00    +0.126 C 
ATOM      4  N   UNL     1       3.880  -1.192  -0.019  0.00  0.00    -0.298 N 
ATOM      5  C   UNL     1       3.618  -0.565   1.286  0.00  0.00    +0.126 C 
ATOM      6  C   UNL     1       2.102  -0.423   1.462  0.00  0.00    +0.124 C 
ATOM      7  C   UNL     1       4.685  -2.268  -0.120  0.00  0.00    +0.219 C 
ATOM      8  O   UNL     1       5.279  -2.675   0.857  0.00  0.00    -0.275 OA
ENDROOT
BRANCH   1  13
ATOM      9  C   UNL     1      -2.060  -0.149   0.900  0.00  0.00    +0.002 A 
ATOM     10  C   UNL     1      -2.491   1.165   0.901  0.00  0.00    +0.004 A 
ATOM     11  C   UNL     1      -1.588   2.192   0.698  0.00  0.00    +0.047 A 
ATOM     12  C   UNL     1      -0.247   1.908   0.500  0.00  0.00    +0.138 A 
ATOM     13  C   UNL     1       0.189   0.584   0.505  0.00  0.00    +0.072 A 
ATOM     14  C   UNL     1      -0.723  -0.441   0.709  0.00  0.00    +0.027 A 
BRANCH  12  15
ATOM     15  O   UNL     1       0.642   2.917   0.301  0.00  0.00    -0.505 OA
ATOM     16  H   UNL     1       0.760   3.160  -0.628  0.00  0.00    +0.292 HD
ENDBRANCH  12  15
ENDBRANCH   1  13
BRANCH   7  17
ATOM     17  C   UNL     1       4.847  -2.966  -1.445  0.00  0.00    +0.079 C 
ATOM     18  C   UNL     1       5.273  -4.421  -1.213  0.00  0.00    +0.017 C 
ATOM     19  C   UNL     1       5.257  -5.151  -2.558  0.00  0.00    +0.027 C 
ATOM     20  C   UNL     1       6.002  -4.353  -3.588  0.00  0.00    -0.031 C 
ATOM     21  C   UNL     1       6.293  -3.098  -3.462  0.00  0.00    -0.030 C 
ATOM     22  C   UNL     1       5.931  -2.265  -2.267  0.00  0.00    +0.039 C 
ENDBRANCH   7  17
TORSDOF 3
