REMARK  Name = ZINC54973975
REMARK  10 active torsions:
REMARK  status: ('A' for Active; 'I' for Inactive)
REMARK    1  A    between atoms: C_1  and  C_2
REMARK    2  A    between atoms: C_2  and  C_3
REMARK    3  A    between atoms: C_2  and  C_4
REMARK    4  A    between atoms: C_4  and  C_6
REMARK    5  A    between atoms: C_4  and  N_14
REMARK    6  A    between atoms: C_9  and  O_12
REMARK    7  A    between atoms: O_12  and  C_13
REMARK    8  A    between atoms: N_20  and  C_23
REMARK    9  A    between atoms: C_26  and  O_29
REMARK   10  A    between atoms: O_29  and  C_30
REMARK                            x       y       z     vdW  Elec       q    Type
REMARK                         _______ _______ _______ _____ _____    ______ ____
ROOT
ATOM      1  N   UNL     1      -1.426  -1.998  -0.004  0.00  0.00    -0.292 N 
ATOM      2  C   UNL     1      -1.292  -2.677   1.152  0.00  0.00    +0.303 C 
ATOM      3  O   UNL     1      -1.096  -2.076   2.191  0.00  0.00    -0.253 OA
ATOM      4  N   UNL     1      -1.375  -4.022   1.157  0.00  0.00    -0.283 N 
ATOM      5  C   UNL     1      -1.348  -4.769   2.422  0.00  0.00    +0.128 C 
ATOM      6  C   UNL     1      -2.597  -5.656   2.494  0.00  0.00    +0.124 C 
ATOM      7  N   UNL     1      -2.716  -6.403   1.234  0.00  0.00    -0.327 N 
ATOM      8  C   UNL     1      -2.743  -5.656  -0.032  0.00  0.00    +0.124 C 
ATOM      9  C   UNL     1      -1.500  -4.768  -0.103  0.00  0.00    +0.128 C 
ATOM     10  H   UNL     1      -1.521  -2.479  -0.841  0.00  0.00    +0.151 HD
ENDROOT
BRANCH   7  11
ATOM     11  C   UNL     1      -2.802  -7.799   1.239  0.00  0.00    +0.030 A 
ATOM     12  C   UNL     1      -2.793  -8.500   0.040  0.00  0.00    +0.027 A 
ATOM     13  C   UNL     1      -2.878  -9.879   0.046  0.00  0.00    +0.047 A 
ATOM     14  C   UNL     1      -2.971 -10.563   1.248  0.00  0.00    +0.120 A 
ATOM     15  C   UNL     1      -2.981  -9.864   2.446  0.00  0.00    +0.047 A 
ATOM     16  C   UNL     1      -2.891  -8.486   2.443  0.00  0.00    +0.027 A 
BRANCH  14  17
ATOM     17  O   UNL     1      -3.055 -11.921   1.253  0.00  0.00    -0.495 OA
ATOM     18  C   UNL     1      -3.149 -12.560   2.527  0.00  0.00    +0.277 C 
ENDBRANCH  14  17
ENDBRANCH   7  11
BRANCH   1  19
ATOM     19  C   UNL     1      -1.430  -0.533   0.003  0.00  0.00    +0.107 C 
BRANCH  19  20
ATOM     20  C   UNL     1      -2.174  -0.026  -1.205  0.00  0.00    -0.027 A 
ATOM     21  C   UNL     1      -2.021  -0.658  -2.425  0.00  0.00    +0.009 A 
ATOM     22  C   UNL     1      -2.701  -0.195  -3.535  0.00  0.00    +0.046 A 
ATOM     23  C   UNL     1      -3.540   0.904  -3.424  0.00  0.00    +0.120 A 
ATOM     24  C   UNL     1      -3.692   1.537  -2.199  0.00  0.00    +0.046 A 
ATOM     25  C   UNL     1      -3.013   1.067  -1.091  0.00  0.00    +0.009 A 
BRANCH  23  26
ATOM     26  O   UNL     1      -4.210   1.362  -4.514  0.00  0.00    -0.495 OA
ATOM     27  C   UNL     1      -5.056   2.499  -4.326  0.00  0.00    +0.277 C 
ENDBRANCH  23  26
ENDBRANCH  19  20
BRANCH  19  29
ATOM     28  C   UNL     1       0.008   1.511  -0.025  0.00  0.00    +0.009 C 
ATOM     29  C   UNL     1       0.011  -0.019  -0.033  0.00  0.00    +0.008 C 
ATOM     30  C   UNL     1       0.767  -0.534   1.194  0.00  0.00    +0.009 C 
ENDBRANCH  19  29
ENDBRANCH   1  19
TORSDOF 6
