REMARK  Name = ZINC46893293
REMARK  7 active torsions:
REMARK  status: ('A' for Active; 'I' for Inactive)
REMARK    1  A    between atoms: C_3  and  N_24
REMARK    2  A    between atoms: C_6  and  C_7
REMARK    3  A    between atoms: N_9  and  C_10
REMARK    4  A    between atoms: C_13  and  O_18
REMARK    5  A    between atoms: C_14  and  C_16
REMARK    6  A    between atoms: O_18  and  C_19
REMARK    7  A    between atoms: C_19  and  C_20
REMARK                            x       y       z     vdW  Elec       q    Type
REMARK                         _______ _______ _______ _____ _____    ______ ____
ROOT
ATOM      1  C   UNL     1      -2.413  -2.877   0.100  0.00  0.00    +0.035 A 
ATOM      2  C   UNL     1      -3.655  -2.249   0.103  0.00  0.00    +0.027 A 
ATOM      3  C   UNL     1      -4.812  -2.996   0.199  0.00  0.00    +0.049 A 
ATOM      4  C   UNL     1      -4.745  -4.377   0.293  0.00  0.00    +0.138 A 
ATOM      5  C   UNL     1      -3.497  -5.016   0.290  0.00  0.00    +0.095 A 
ATOM      6  C   UNL     1      -2.330  -4.256   0.187  0.00  0.00    +0.045 A 
ENDROOT
BRANCH   1   9
ATOM      7  C   UNL     1      -1.179  -0.902   0.594  0.00  0.00    +0.248 C 
ATOM      8  O   UNL     1      -2.162  -0.438   1.139  0.00  0.00    -0.270 OA
ATOM      9  N   UNL     1      -1.244  -2.111   0.003  0.00  0.00    -0.281 N 
ATOM     10  H   UNL     1      -0.481  -2.452  -0.490  0.00  0.00    +0.155 HD
BRANCH   7  16
ATOM     11  C   UNL     1       0.157   1.114   1.190  0.00  0.00    +0.015 A 
ATOM     12  C   UNL     1       1.342   1.821   1.172  0.00  0.00    +0.033 A 
ATOM     13  C   UNL     1       2.458   1.291   0.550  0.00  0.00    +0.126 A 
ATOM     14  C   UNL     1       2.395   0.050  -0.058  0.00  0.00    +0.033 A 
ATOM     15  C   UNL     1       1.217  -0.668  -0.047  0.00  0.00    +0.015 A 
ATOM     16  C   UNL     1       0.087  -0.139   0.579  0.00  0.00    +0.037 A 
BRANCH  13  17
ATOM     17  N   UNL     1       3.725   2.055   0.534  0.00  0.00    +0.056 N 
ATOM     18  O   UNL     1       3.784   3.141   1.064  0.00  0.00    -0.126 OA
ATOM     19  O   UNL     1       4.702   1.595  -0.009  0.00  0.00    -0.126 OA
ENDBRANCH  13  17
ENDBRANCH   7  16
ENDBRANCH   1   9
BRANCH   5  20
ATOM     20  C   UNL     1      -3.420  -6.443   0.387  0.00  0.00    +0.103 C 
ATOM     21  N   UNL     1      -3.358  -7.575   0.464  0.00  0.00    -0.191 NA
ENDBRANCH   5  20
BRANCH   4  22
ATOM     22  O   UNL     1      -5.884  -5.109   0.387  0.00  0.00    -0.482 OA
BRANCH  22  23
ATOM     23  C   UNL     1      -7.119  -4.391   0.384  0.00  0.00    +0.342 C 
BRANCH  23  24
ATOM     24  C   UNL     1      -8.284  -5.377   0.497  0.00  0.00    +0.424 C 
ATOM     25  F   UNL     1      -8.168  -6.100   1.689  0.00  0.00    -0.167 F 
ATOM     26  F   UNL     1      -9.493  -4.673   0.495  0.00  0.00    -0.167 F 
ATOM     27  F   UNL     1      -8.255  -6.259  -0.588  0.00  0.00    -0.167 F 
ENDBRANCH  23  24
ENDBRANCH  22  23
ENDBRANCH   4  22
TORSDOF 7
