REMARK  Name = ZINC12204878
REMARK  3 active torsions:
REMARK  status: ('A' for Active; 'I' for Inactive)
REMARK    1  A    between atoms: C_6  and  C_7
REMARK    2  A    between atoms: C_13  and  C_15
REMARK    3  A    between atoms: N_17  and  C_20
REMARK                            x       y       z     vdW  Elec       q    Type
REMARK                         _______ _______ _______ _____ _____    ______ ____
ROOT
ATOM      1  C   UNL     1      -1.865  10.392   3.814  0.00  0.00    +0.107 C 
ATOM      2  C   UNL     1      -0.829  11.483   4.159  0.00  0.00    +0.029 C 
ATOM      3  C   UNL     1       0.504  10.691   4.215  0.00  0.00    +0.021 C 
ATOM      4  C   UNL     1       0.292   9.642   3.098  0.00  0.00    +0.109 C 
ATOM      5  N   UNL     1      -1.136   9.284   3.180  0.00  0.00    -0.289 N 
ATOM      6  C   UNL     1      -1.682   8.129   2.749  0.00  0.00    +0.269 C 
ATOM      7  O   UNL     1      -2.876   7.938   2.873  0.00  0.00    -0.268 OA
ENDROOT
BRANCH   1  13
ATOM      8  C   UNL     1      -2.591  11.058   1.513  0.00  0.00    +0.008 A 
ATOM      9  C   UNL     1      -3.533  11.559   0.635  0.00  0.00    +0.038 A 
ATOM     10  C   UNL     1      -4.774  11.957   1.104  0.00  0.00    +0.123 A 
ATOM     11  C   UNL     1      -5.070  11.848   2.452  0.00  0.00    +0.038 A 
ATOM     12  C   UNL     1      -4.129  11.341   3.328  0.00  0.00    +0.008 A 
ATOM     13  C   UNL     1      -2.891  10.944   2.858  0.00  0.00    -0.027 A 
ATOM     14  F   UNL     1      -5.693  12.453   0.247  0.00  0.00    -0.205 F 
ENDBRANCH   1  13
BRANCH   6  15
ATOM     15  C   UNL     1      -0.830   7.097   2.128  0.00  0.00    +0.167 A 
ATOM     16  C   UNL     1      -1.257   5.889   1.653  0.00  0.00    +0.143 A 
ATOM     17  N   UNL     1      -0.171   5.253   1.171  0.00  0.00    -0.248 N 
ATOM     18  N   UNL     1       0.923   6.108   1.373  0.00  0.00    -0.065 NA
ATOM     19  N   UNL     1       0.497   7.186   1.934  0.00  0.00    -0.125 NA
BRANCH  17  20
ATOM     20  C   UNL     1      -0.137   3.923   0.559  0.00  0.00    +0.109 C 
ATOM     21  C   UNL     1      -1.159   3.037   1.219  0.00  0.00    +0.027 C 
ATOM     22  C   UNL     1      -0.704   1.568   1.298  0.00  0.00    +0.002 C 
ATOM     23  C   UNL     1      -0.013   1.086   0.008  0.00  0.00    +0.000 C 
ATOM     24  C   UNL     1      -0.712   1.570  -1.233  0.00  0.00    +0.000 C 
ATOM     25  C   UNL     1      -0.034   2.875  -1.700  0.00  0.00    +0.002 C 
ATOM     26  C   UNL     1      -0.481   4.034  -0.941  0.00  0.00    +0.027 C 
ENDBRANCH  17  20
ENDBRANCH   6  15
TORSDOF 3
