REMARK  Name = ZINC00526258
REMARK  2 active torsions:
REMARK  status: ('A' for Active; 'I' for Inactive)
REMARK    1  A    between atoms: C_5  and  C_7
REMARK    2  A    between atoms: C_10  and  C_18
REMARK                            x       y       z     vdW  Elec       q    Type
REMARK                         _______ _______ _______ _____ _____    ______ ____
ROOT
ATOM      1  C   UNL     1       1.229  -2.186  -0.022  0.00  0.00    +0.107 C 
ATOM      2  C   UNL     1       1.463  -2.689  -1.451  0.00  0.00    +0.059 C 
ATOM      3  C   UNL     1       0.375  -2.137  -2.380  0.00  0.00    +0.143 C 
ATOM      4  N   UNL     1      -0.932  -2.373  -1.767  0.00  0.00    -0.226 N 
ATOM      5  C   UNL     1      -1.123  -2.637  -0.452  0.00  0.00    +0.215 A 
ATOM      6  N   UNL     1      -2.403  -2.797  -0.253  0.00  0.00    -0.202 NA
ATOM      7  C   UNL     1      -3.058  -2.643  -1.409  0.00  0.00    +0.247 A 
ATOM      8  N   UNL     1      -2.196  -2.382  -2.360  0.00  0.00    -0.156 NA
ATOM      9  N   UNL     1      -0.069  -2.702   0.456  0.00  0.00    -0.307 N 
ATOM     10  H   UNL     1      -0.179  -3.066   1.348  0.00  0.00    +0.149 HD
ENDROOT
BRANCH   1  15
ATOM     11  C   UNL     1      -0.017   1.378   0.010  0.00  0.00    +0.000 A 
ATOM     12  C   UNL     1       1.171   2.086   0.002  0.00  0.00    +0.001 A 
ATOM     13  C   UNL     1       2.377   1.412  -0.013  0.00  0.00    +0.020 A 
ATOM     14  C   UNL     1       2.397   0.029  -0.021  0.00  0.00    +0.046 A 
ATOM     15  C   UNL     1       1.208  -0.679  -0.013  0.00  0.00    -0.009 A 
ATOM     16  C   UNL     1       0.002  -0.004   0.002  0.00  0.00    +0.007 A 
ATOM     17 CL   UNL     1       3.912  -0.818  -0.041  0.00  0.00    -0.083 Cl
ENDBRANCH   1  15
BRANCH   3  18
ATOM     18  C   UNL     1       0.445  -2.837  -3.712  0.00  0.00    -0.023 A 
ATOM     19  C   UNL     1       0.273  -4.207  -3.783  0.00  0.00    +0.008 A 
ATOM     20  C   UNL     1       0.337  -4.850  -5.004  0.00  0.00    +0.038 A 
ATOM     21  C   UNL     1       0.574  -4.122  -6.158  0.00  0.00    +0.123 A 
ATOM     22  C   UNL     1       0.746  -2.750  -6.086  0.00  0.00    +0.038 A 
ATOM     23  C   UNL     1       0.677  -2.108  -4.864  0.00  0.00    +0.008 A 
ATOM     24  F   UNL     1       0.637  -4.749  -7.353  0.00  0.00    -0.205 F 
ENDBRANCH   3  18
TORSDOF 2
