REMARK  Name = ZINC40285333
REMARK  2 active torsions:
REMARK  status: ('A' for Active; 'I' for Inactive)
REMARK    1  A    between atoms: C_4  and  C_8
REMARK    2  A    between atoms: N_18  and  C_19
REMARK                            x       y       z     vdW  Elec       q    Type
REMARK                         _______ _______ _______ _____ _____    ______ ____
ROOT
ATOM      1  C   UNL     1       3.715  -0.707  -0.038  0.00  0.00    +0.085 C 
ATOM      2  C   UNL     1       3.821  -1.604   1.198  0.00  0.00    +0.110 C 
ATOM      3  C   UNL     1       2.974  -2.837   1.057  0.00  0.00    +0.219 C 
ATOM      4  O   UNL     1       2.411  -3.278   2.036  0.00  0.00    -0.275 OA
ATOM      5  N   UNL     1       2.820  -3.470  -0.127  0.00  0.00    -0.270 N 
ATOM      6  C   UNL     1       3.364  -2.872  -1.265  0.00  0.00    +0.133 A 
ATOM      7  C   UNL     1       3.794  -1.577  -1.267  0.00  0.00    +0.090 A 
ATOM      8  N   UNL     1       4.252  -1.295  -2.485  0.00  0.00    -0.238 NA
ATOM      9  C   UNL     1       4.133  -2.351  -3.248  0.00  0.00    +0.205 A 
ATOM     10  N   UNL     1       3.578  -3.364  -2.514  0.00  0.00    -0.284 N 
ATOM     11  H   UNL     1       2.346  -4.314  -0.184  0.00  0.00    +0.156 HD
ENDROOT
BRANCH   1  15
ATOM     12  C   UNL     1      -0.017   1.378   0.010  0.00  0.00    +0.006 A 
ATOM     13  C   UNL     1       1.170   2.086   0.002  0.00  0.00    +0.039 A 
ATOM     14  C   UNL     1       2.379   1.412  -0.013  0.00  0.00    +0.130 A 
ATOM     15  C   UNL     1       2.399   0.028  -0.021  0.00  0.00    +0.032 A 
ATOM     16  C   UNL     1       1.210  -0.681  -0.013  0.00  0.00    +0.130 A 
ATOM     17  C   UNL     1       0.002  -0.004   0.002  0.00  0.00    +0.039 A 
ATOM     18  F   UNL     1       1.228  -2.031  -0.020  0.00  0.00    -0.205 F 
ATOM     19  F   UNL     1       3.539   2.104  -0.022  0.00  0.00    -0.205 F 
ENDBRANCH   1  15
BRANCH  10  20
ATOM     20  C   UNL     1       3.288  -4.661  -2.963  0.00  0.00    +0.087 A 
ATOM     21  C   UNL     1       4.316  -5.513  -3.341  0.00  0.00    +0.067 A 
ATOM     22  C   UNL     1       4.026  -6.791  -3.783  0.00  0.00    +0.126 A 
ATOM     23  C   UNL     1       2.712  -7.221  -3.848  0.00  0.00    +0.041 A 
ATOM     24  C   UNL     1       1.685  -6.375  -3.473  0.00  0.00    +0.043 A 
ATOM     25  C   UNL     1       1.969  -5.098  -3.025  0.00  0.00    +0.147 A 
ATOM     26  F   UNL     1       0.966  -4.273  -2.652  0.00  0.00    -0.203 F 
ATOM     27  F   UNL     1       5.027  -7.621  -4.151  0.00  0.00    -0.205 F 
ENDBRANCH  10  20
TORSDOF 2
