REMARK  Name = ZINC13249609
REMARK  6 active torsions:
REMARK  status: ('A' for Active; 'I' for Inactive)
REMARK    1  A    between atoms: C_1  and  C_2
REMARK    2  A    between atoms: N_7  and  C_9
REMARK    3  A    between atoms: C_9  and  C_10
REMARK    4  A    between atoms: N_15  and  S_16
REMARK    5  A    between atoms: S_16  and  C_19
REMARK    6  A    between atoms: C_23  and  C_25
REMARK                            x       y       z     vdW  Elec       q    Type
REMARK                         _______ _______ _______ _____ _____    ______ ____
ROOT
ATOM      1  C   UNL     1       1.321  -3.966   2.518  0.00  0.00    +0.008 A 
ATOM      2  C   UNL     1       2.431  -4.702   2.467  0.00  0.00    +0.068 A 
ATOM      3  S   UNL     1       1.785  -6.364   2.568  0.00  0.00    -0.057 S 
ATOM      4  C   UNL     1       0.051  -5.945   2.674  0.00  0.00    +0.191 A 
ATOM      5  N   UNL     1       0.102  -4.569   2.629  0.00  0.00    -0.338 N 
ATOM      6  N   UNL     1      -0.990  -6.735   2.774  0.00  0.00    -0.103 NA
ATOM      7  H   UNL     1      -0.710  -4.041   2.671  0.00  0.00    +0.167 HD
ENDROOT
BRANCH   6   8
ATOM      8  S   UNL     1      -0.782  -8.377   2.816  0.00  0.00    +0.101 S 
ATOM      9  O   UNL     1      -0.271  -8.755   1.545  0.00  0.00    -0.146 OA
ATOM     10  O   UNL     1      -0.100  -8.669   4.028  0.00  0.00    -0.146 OA
BRANCH   8  11
ATOM     11  C   UNL     1      -2.382  -9.102   2.952  0.00  0.00    +0.113 A 
ATOM     12  C   UNL     1      -2.929  -9.339   4.201  0.00  0.00    +0.029 A 
ATOM     13  C   UNL     1      -4.185  -9.907   4.317  0.00  0.00    +0.003 A 
ATOM     14  C   UNL     1      -4.901 -10.242   3.187  0.00  0.00    +0.015 A 
ATOM     15  C   UNL     1      -4.356 -10.006   1.923  0.00  0.00    +0.065 A 
ATOM     16  C   UNL     1      -3.089  -9.426   1.813  0.00  0.00    +0.044 A 
BRANCH  15  17
ATOM     17  C   UNL     1      -5.116 -10.361   0.709  0.00  0.00    +0.387 C 
ATOM     18  O   UNL     1      -6.226 -10.864   0.809  0.00  0.00    -0.241 OA
ATOM     19  O   UNL     1      -4.636 -10.153  -0.396  0.00  0.00    -0.241 OA
ENDBRANCH  15  17
ENDBRANCH   8  11
ENDBRANCH   6   8
BRANCH   1  20
ATOM     20  C   UNL     1       1.413  -2.463   2.461  0.00  0.00    -0.024 C 
BRANCH  20  26
ATOM     21  C   UNL     1      -0.019   1.526   0.010  0.00  0.00    +0.005 C 
ATOM     22  C   UNL     1       0.002  -0.004   0.002  0.00  0.00    -0.031 C 
ATOM     23  C   UNL     1       0.721  -0.499  -1.257  0.00  0.00    -0.001 C 
ATOM     24  C   UNL     1       0.805  -2.027  -1.217  0.00  0.00    -0.018 C 
ATOM     25  C   UNL     1       1.518  -2.460   0.066  0.00  0.00    -0.078 C 
ATOM     26  N   UNL     1       0.768  -1.979   1.233  0.00  0.00    +0.384 N 
ATOM     27  C   UNL     1       0.744  -0.512   1.240  0.00  0.00    -0.075 C 
ATOM     28  H   UNL     1      -0.177  -2.330   1.192  0.00  0.00    -0.081 HD
ENDBRANCH  20  26
ENDBRANCH   1  20
TORSDOF 5
