REMARK  Name = ZINC12661014
REMARK  10 active torsions:
REMARK  status: ('A' for Active; 'I' for Inactive)
REMARK    1  A    between atoms: C_1  and  N_55
REMARK    2  A    between atoms: C_8  and  O_25
REMARK    3  A    between atoms: C_10  and  C_12
REMARK    4  A    between atoms: C_12  and  C_13
REMARK    5  A    between atoms: C_13  and  C_15
REMARK    6  A    between atoms: C_13  and  O_24
REMARK    7  A    between atoms: C_15  and  C_16
REMARK    8  A    between atoms: C_20  and  O_22
REMARK    9  A    between atoms: O_22  and  C_23
REMARK   10  A    between atoms: O_25  and  C_26
REMARK                            x       y       z     vdW  Elec       q    Type
REMARK                         _______ _______ _______ _____ _____    ______ ____
ROOT
ATOM      1  C   UNL     1       1.467  -1.497   0.522  0.00  0.00    -0.095 C 
ATOM      2  C   UNL     1       2.226   0.723  -0.088  0.00  0.00    -0.074 C 
ATOM      3  C   UNL     1       2.123   2.183   0.355  0.00  0.00    +0.017 C 
ATOM      4  C   UNL     1       0.695   2.653   0.252  0.00  0.00    -0.040 A 
ATOM      5  C   UNL     1       0.447   4.018   0.267  0.00  0.00    +0.053 A 
ATOM      6  C   UNL     1      -0.848   4.498   0.181  0.00  0.00    +0.170 A 
ATOM      7  C   UNL     1      -1.909   3.604   0.077  0.00  0.00    +0.208 A 
ATOM      8  C   UNL     1      -1.658   2.240   0.055  0.00  0.00    +0.167 A 
ATOM      9  C   UNL     1      -0.353   1.764   0.147  0.00  0.00    -0.012 A 
ATOM     10  C   UNL     1      -0.132   0.274   0.123  0.00  0.00    -0.032 C 
ATOM     11  O   UNL     1      -3.074   4.314   0.006  0.00  0.00    -0.449 OA
ATOM     12  C   UNL     1      -2.748   5.635   0.478  0.00  0.00    +0.467 C 
ATOM     13  O   UNL     1      -1.347   5.769   0.175  0.00  0.00    -0.452 OA
ATOM     14  N   UNL     1       1.204  -0.046   0.652  0.00  0.00    +0.383 N 
ATOM     15  H   UNL     1       1.242   0.212   1.645  0.00  0.00    -0.081 HD
ENDROOT
BRANCH   8  16
ATOM     16  O   UNL     1      -2.692   1.363  -0.052  0.00  0.00    -0.491 OA
ATOM     17  C   UNL     1      -3.033   0.920  -1.367  0.00  0.00    +0.277 C 
ENDBRANCH   8  16
BRANCH  10  18
ATOM     18  C   UNL     1      -1.184  -0.408   1.000  0.00  0.00    +0.021 C 
BRANCH  18  19
ATOM     19  C   UNL     1      -1.020   0.059   2.448  0.00  0.00    +0.118 C 
BRANCH  19  20
ATOM     20  O   UNL     1      -1.331   1.451   2.538  0.00  0.00    -0.392 OA
ATOM     21  H   UNL     1      -2.257   1.660   2.355  0.00  0.00    +0.210 HD
ENDBRANCH  19  20
BRANCH  19  22
ATOM     22  C   UNL     1      -1.968  -0.735   3.350  0.00  0.00    +0.066 C 
BRANCH  22  23
ATOM     23  C   UNL     1      -1.721  -0.363   4.789  0.00  0.00    -0.041 A 
ATOM     24  C   UNL     1      -0.797  -1.071   5.536  0.00  0.00    +0.004 A 
ATOM     25  C   UNL     1      -0.564  -0.729   6.855  0.00  0.00    +0.004 A 
ATOM     26  C   UNL     1      -1.261   0.314   7.434  0.00  0.00    +0.045 A 
ATOM     27  C   UNL     1      -2.192   1.022   6.688  0.00  0.00    +0.120 A 
ATOM     28  C   UNL     1      -2.420   0.681   5.362  0.00  0.00    +0.049 A 
BRANCH  27  29
ATOM     29  O   UNL     1      -2.879   2.049   7.254  0.00  0.00    -0.495 OA
ATOM     30  C   UNL     1      -2.592   2.345   8.623  0.00  0.00    +0.277 C 
ENDBRANCH  27  29
ENDBRANCH  22  23
ENDBRANCH  19  22
ENDBRANCH  18  19
ENDBRANCH  10  18
TORSDOF 7
