REMARK  Name = ZINC67581956
REMARK  9 active torsions:
REMARK  status: ('A' for Active; 'I' for Inactive)
REMARK    1  A    between atoms: C_1  and  C_2
REMARK    2  A    between atoms: C_2  and  N_3
REMARK    3  A    between atoms: N_3  and  C_4
REMARK    4  A    between atoms: N_3  and  C_6
REMARK    5  A    between atoms: C_4  and  C_5
REMARK    6  A    between atoms: C_6  and  C_7
REMARK    7  A    between atoms: C_12  and  N_13
REMARK    8  A    between atoms: C_18  and  C_30
REMARK    9  A    between atoms: C_21  and  C_24
REMARK                            x       y       z     vdW  Elec       q    Type
REMARK                         _______ _______ _______ _____ _____    ______ ____
ROOT
ATOM      1  N   UNL     1      -2.729  -1.367   2.265  0.00  0.00    -0.269 N 
ATOM      2  C   UNL     1      -3.536  -1.098   3.310  0.00  0.00    +0.307 C 
ATOM      3  O   UNL     1      -3.086  -1.091   4.440  0.00  0.00    -0.252 OA
ATOM      4  N   UNL     1      -4.842  -0.837   3.103  0.00  0.00    -0.280 N 
ATOM      5  C   UNL     1      -5.434  -0.952   1.761  0.00  0.00    +0.140 C 
ATOM      6  C   UNL     1      -6.697  -1.815   1.862  0.00  0.00    +0.133 C 
ATOM      7  O   UNL     1      -7.544  -1.291   2.887  0.00  0.00    -0.366 OA
ATOM      8  C   UNL     1      -6.967  -1.319   4.194  0.00  0.00    +0.166 C 
ATOM      9  C   UNL     1      -5.719  -0.435   4.214  0.00  0.00    +0.145 C 
ATOM     10  C   UNL     1      -6.306  -3.254   2.205  0.00  0.00    +0.039 C 
ATOM     11  H   UNL     1      -3.065  -1.287   1.359  0.00  0.00    +0.156 HD
ENDROOT
BRANCH   1  17
ATOM     12  C   UNL     1      -0.479  -1.708   1.454  0.00  0.00    -0.043 A 
ATOM     13  C   UNL     1       0.828  -2.094   1.678  0.00  0.00    +0.003 A 
ATOM     14  C   UNL     1       1.214  -2.540   2.928  0.00  0.00    +0.000 A 
ATOM     15  C   UNL     1       0.293  -2.602   3.958  0.00  0.00    +0.002 A 
ATOM     16  C   UNL     1      -1.015  -2.217   3.741  0.00  0.00    +0.023 A 
ATOM     17  C   UNL     1      -1.405  -1.763   2.487  0.00  0.00    +0.036 A 
BRANCH  12  18
ATOM     18  C   UNL     1      -0.899  -1.222   0.090  0.00  0.00    -0.041 C 
BRANCH  18  19
ATOM     19  N   UNL     1      -0.938   0.247   0.085  0.00  0.00    +0.382 N 
ATOM     20  H   UNL     1      -1.537   0.570   0.829  0.00  0.00    -0.081 HD
BRANCH  19  22
ATOM     21  C   UNL     1       0.355   2.291   0.464  0.00  0.00    -0.017 C 
ATOM     22  C   UNL     1       0.419   0.773   0.284  0.00  0.00    -0.082 C 
ENDBRANCH  19  22
BRANCH  19  23
ATOM     23  C   UNL     1      -1.462   0.718  -1.204  0.00  0.00    -0.082 C 
ATOM     24  C   UNL     1      -2.935   0.326  -1.330  0.00  0.00    -0.017 C 
ENDBRANCH  19  23
ENDBRANCH  18  19
ENDBRANCH  12  18
ENDBRANCH   1  17
BRANCH   8  25
ATOM     25  C   UNL     1      -7.968  -0.804   5.197  0.00  0.00    -0.017 A 
ATOM     26  C   UNL     1      -8.844   0.205   4.843  0.00  0.00    +0.006 A 
ATOM     27  C   UNL     1      -9.762   0.677   5.763  0.00  0.00    +0.000 A 
ATOM     28  C   UNL     1      -9.803   0.140   7.036  0.00  0.00    +0.000 A 
ATOM     29  C   UNL     1      -8.927  -0.870   7.390  0.00  0.00    +0.000 A 
ATOM     30  C   UNL     1      -8.012  -1.345   6.468  0.00  0.00    +0.006 A 
ENDBRANCH   8  25
TORSDOF 6
