REMARK  Name = ZINC40061016
REMARK  8 active torsions:
REMARK  status: ('A' for Active; 'I' for Inactive)
REMARK    1  A    between atoms: C_1  and  C_2
REMARK    2  A    between atoms: C_4  and  C_34
REMARK    3  A    between atoms: C_13  and  C_27
REMARK    4  A    between atoms: C_21  and  C_23
REMARK    5  A    between atoms: C_23  and  C_24
REMARK    6  A    between atoms: C_24  and  C_25
REMARK    7  A    between atoms: C_24  and  C_26
REMARK    8  A    between atoms: C_31  and  O_33
REMARK                            x       y       z     vdW  Elec       q    Type
REMARK                         _______ _______ _______ _____ _____    ______ ____
ROOT
ATOM      1  C   UNL     1      -0.523   1.450   0.038  0.00  0.00    +0.044 C 
ATOM      2  C   UNL     1      -0.237  -0.029   0.015  0.00  0.00    -0.047 A 
ATOM      3  C   UNL     1      -0.233  -0.708  -1.195  0.00  0.00    +0.007 A 
ATOM      4  C   UNL     1       0.027  -2.050  -1.231  0.00  0.00    -0.036 A 
ATOM      5  C   UNL     1       0.288  -2.735  -0.045  0.00  0.00    +0.067 A 
ATOM      6  C   UNL     1       0.282  -2.060   1.186  0.00  0.00    +0.140 A 
ATOM      7  C   UNL     1       0.022  -0.690   1.195  0.00  0.00    +0.050 A 
ATOM      8  O   UNL     1       0.518  -2.692   2.358  0.00  0.00    -0.450 OA
ATOM      9  C   UNL     1       1.000  -3.951   2.351  0.00  0.00    +0.199 A 
ATOM     10  C   UNL     1       1.049  -4.715   1.220  0.00  0.00    +0.072 A 
ATOM     11  C   UNL     1       0.580  -4.191  -0.067  0.00  0.00    +0.199 A 
ATOM     12  O   UNL     1       0.444  -4.884  -1.060  0.00  0.00    -0.287 OA
ATOM     13  C   UNL     1       1.628  -6.040   1.590  0.00  0.00    +0.152 C 
ATOM     14  N   UNL     1       1.912  -5.965   3.033  0.00  0.00    -0.230 N 
ATOM     15  C   UNL     1       1.543  -4.743   3.467  0.00  0.00    +0.289 C 
ATOM     16  O   UNL     1       1.645  -4.352   4.614  0.00  0.00    -0.266 OA
ATOM     17  C   UNL     1       2.464  -6.975   3.810  0.00  0.00    +0.191 A 
ATOM     18  N   UNL     1       2.858  -8.194   3.470  0.00  0.00    -0.125 NA
ATOM     19  N   UNL     1       3.344  -8.996   4.314  0.00  0.00    -0.145 NA
ATOM     20  C   UNL     1       3.490  -8.675   5.584  0.00  0.00    +0.104 A 
ATOM     21  S   UNL     1       2.853  -7.002   5.558  0.00  0.00    -0.035 S 
ATOM     22  C   UNL     1       0.030  -2.784  -2.547  0.00  0.00    +0.044 C 
ENDROOT
BRANCH  13  23
ATOM     23  C   UNL     1       0.634  -7.138   1.312  0.00  0.00    -0.019 A 
ATOM     24  C   UNL     1      -0.395  -7.381   2.203  0.00  0.00    +0.006 A 
ATOM     25  C   UNL     1      -1.308  -8.388   1.950  0.00  0.00    +0.004 A 
ATOM     26  C   UNL     1      -1.194  -9.154   0.806  0.00  0.00    +0.045 A 
ATOM     27  C   UNL     1      -0.163  -8.912  -0.090  0.00  0.00    +0.117 A 
ATOM     28  C   UNL     1       0.749  -7.898   0.163  0.00  0.00    +0.051 A 
BRANCH  27  29
ATOM     29  O   UNL     1      -0.049  -9.665  -1.216  0.00  0.00    -0.507 OA
ATOM     30  H   UNL     1      -0.528  -9.309  -1.976  0.00  0.00    +0.292 HD
ENDBRANCH  27  29
ENDBRANCH  13  23
BRANCH  20  31
ATOM     31  C   UNL     1       4.041  -9.483   6.730  0.00  0.00    +0.068 C 
BRANCH  31  32
ATOM     32  C   UNL     1       5.550  -9.251   6.838  0.00  0.00    -0.011 C 
ATOM     33  C   UNL     1       5.816  -7.791   7.208  0.00  0.00    +0.007 C 
ATOM     34  C   UNL     1       6.130 -10.165   7.920  0.00  0.00    +0.007 C 
ENDBRANCH  31  32
ENDBRANCH  20  31
TORSDOF 4
