REMARK  Name = ZINC67298601
REMARK  5 active torsions:
REMARK  status: ('A' for Active; 'I' for Inactive)
REMARK    1  A    between atoms: C_3  and  N_8
REMARK    2  A    between atoms: C_10  and  C_20
REMARK    3  A    between atoms: C_15  and  O_19
REMARK    4  A    between atoms: N_22  and  C_23
REMARK    5  A    between atoms: C_23  and  C_24
REMARK                            x       y       z     vdW  Elec       q    Type
REMARK                         _______ _______ _______ _____ _____    ______ ____
ROOT
ATOM      1  N   UNL     1       3.560   2.115  -0.018  0.00  0.00    -0.325 N 
ATOM      2  C   UNL     1       4.544   1.752   0.776  0.00  0.00    +0.212 A 
ATOM      3  C   UNL     1       5.860   2.417   0.714  0.00  0.00    +0.097 A 
ATOM      4  C   UNL     1       6.642   2.394   1.861  0.00  0.00    +0.030 A 
ATOM      5  C   UNL     1       6.142   1.709   2.998  0.00  0.00    +0.018 A 
ATOM      6  C   UNL     1       6.792   1.823   4.236  0.00  0.00    +0.015 A 
ATOM      7  C   UNL     1       6.279   1.194   5.332  0.00  0.00    +0.046 A 
ATOM      8  C   UNL     1       5.116   0.431   5.231  0.00  0.00    +0.120 A 
ATOM      9  C   UNL     1       4.471   0.292   4.011  0.00  0.00    +0.092 A 
ATOM     10  C   UNL     1       4.983   0.917   2.887  0.00  0.00    +0.141 A 
ATOM     11  O   UNL     1       4.383   0.756   1.684  0.00  0.00    -0.438 OA
ATOM     12  H   UNL     1       3.664   2.885  -0.599  0.00  0.00    +0.169 HD
ENDROOT
BRANCH   1  15
ATOM     13  C   UNL     1      -0.013   1.358  -0.012  0.00  0.00    +0.005 A 
ATOM     14  C   UNL     1       1.164   2.077  -0.005  0.00  0.00    +0.026 A 
ATOM     15  C   UNL     1       2.390   1.407  -0.024  0.00  0.00    +0.045 A 
ATOM     16  C   UNL     1       2.415   0.011  -0.050  0.00  0.00    +0.064 A 
ATOM     17  C   UNL     1       1.229  -0.698  -0.056  0.00  0.00    +0.125 A 
ATOM     18  C   UNL     1       0.017  -0.025  -0.037  0.00  0.00    +0.038 A 
ATOM     19  F   UNL     1       1.250  -2.048  -0.081  0.00  0.00    -0.205 F 
ENDBRANCH   1  15
BRANCH   3  20
ATOM     20  C   UNL     1       6.325   3.079  -0.515  0.00  0.00    +0.249 C 
ATOM     21  O   UNL     1       5.587   3.162  -1.478  0.00  0.00    -0.270 OA
ATOM     22  N   UNL     1       7.569   3.594  -0.574  0.00  0.00    -0.309 N 
ATOM     23  H   UNL     1       8.184   3.464   0.165  0.00  0.00    +0.149 HD
BRANCH  22  24
ATOM     24  C   UNL     1       7.994   4.351  -1.754  0.00  0.00    +0.136 C 
BRANCH  24  25
ATOM     25  C   UNL     1       9.438   4.820  -1.567  0.00  0.00    +0.135 C 
ATOM     26  C   UNL     1       9.855   5.720  -2.751  0.00  0.00    +0.035 C 
ATOM     27  C   UNL     1      11.323   5.278  -3.000  0.00  0.00    +0.031 C 
ATOM     28  C   UNL     1      11.239   3.770  -2.651  0.00  0.00    +0.160 C 
ATOM     29  O   UNL     1      10.318   3.690  -1.549  0.00  0.00    -0.375 OA
ENDBRANCH  24  25
ENDBRANCH  22  24
ENDBRANCH   3  20
BRANCH   8  30
ATOM     30  O   UNL     1       4.613  -0.179   6.333  0.00  0.00    -0.507 OA
ATOM     31  H   UNL     1       3.981   0.361   6.828  0.00  0.00    +0.292 HD
ENDBRANCH   8  30
TORSDOF 5
