REMARK  Name = ZINC67070342
REMARK  9 active torsions:
REMARK  status: ('A' for Active; 'I' for Inactive)
REMARK    1  A    between atoms: C_1  and  C_2
REMARK    2  A    between atoms: C_2  and  C_3
REMARK    3  A    between atoms: C_3  and  C_4
REMARK    4  A    between atoms: C_4  and  N_5
REMARK    5  A    between atoms: N_8  and  C_9
REMARK    6  A    between atoms: C_9  and  C_15
REMARK    7  A    between atoms: N_17  and  C_18
REMARK    8  A    between atoms: C_18  and  C_19
REMARK    9  A    between atoms: N_23  and  C_24
REMARK                            x       y       z     vdW  Elec       q    Type
REMARK                         _______ _______ _______ _____ _____    ______ ____
ROOT
ATOM      1  C   UNL     1       3.468  -6.054  -4.595  0.00  0.00    +0.112 C 
ATOM      2  C   UNL     1       2.490  -7.109  -5.118  0.00  0.00    +0.035 C 
ATOM      3  C   UNL     1       1.884  -6.631  -6.439  0.00  0.00    +0.003 C 
ATOM      4  C   UNL     1       2.999  -6.416  -7.464  0.00  0.00    +0.000 C 
ATOM      5  C   UNL     1       3.977  -5.362  -6.941  0.00  0.00    +0.003 C 
ATOM      6  C   UNL     1       4.583  -5.840  -5.620  0.00  0.00    +0.035 C 
ENDROOT
BRANCH   1  10
ATOM      7  N   UNL     1       1.202  -3.535  -3.171  0.00  0.00    -0.299 N 
ATOM      8  C   UNL     1       1.787  -4.718  -3.442  0.00  0.00    +0.300 C 
ATOM      9  O   UNL     1       1.442  -5.719  -2.843  0.00  0.00    -0.253 OA
ATOM     10  N   UNL     1       2.755  -4.793  -4.377  0.00  0.00    -0.285 N 
ATOM     11  H   UNL     1       1.477  -2.737  -3.648  0.00  0.00    +0.150 HD
ATOM     12  H   UNL     1       2.980  -4.011  -4.905  0.00  0.00    +0.151 HD
BRANCH   7  13
ATOM     13  C   UNL     1       0.150  -3.454  -2.154  0.00  0.00    +0.106 C 
BRANCH  13  14
ATOM     14  C   UNL     1      -0.342  -2.010  -2.043  0.00  0.00    +0.018 C 
BRANCH  14  16
ATOM     15  C   UNL     1      -1.932  -0.480  -0.871  0.00  0.00    +0.004 C 
ATOM     16  C   UNL     1      -1.440  -1.925  -0.982  0.00  0.00    -0.002 C 
ENDBRANCH  14  16
ENDBRANCH  13  14
ENDBRANCH   7  13
ENDBRANCH   1  10
BRANCH   1  17
ATOM     17  C   UNL     1       4.065  -6.525  -3.293  0.00  0.00    +0.237 C 
ATOM     18  O   UNL     1       4.012  -7.699  -2.991  0.00  0.00    -0.273 OA
ATOM     19  N   UNL     1       4.659  -5.642  -2.466  0.00  0.00    -0.306 N 
ATOM     20  H   UNL     1       4.769  -4.719  -2.741  0.00  0.00    +0.149 HD
BRANCH  19  21
ATOM     21  C   UNL     1       5.138  -6.078  -1.152  0.00  0.00    +0.180 C 
BRANCH  21  22
ATOM     22  C   UNL     1       5.756  -4.909  -0.430  0.00  0.00    +0.149 A 
ATOM     23  N   UNL     1       5.848  -3.703  -0.890  0.00  0.00    -0.157 NA
ATOM     24  N   UNL     1       6.484  -2.913   0.079  0.00  0.00    -0.254 N 
ATOM     25  C   UNL     1       6.761  -3.714   1.129  0.00  0.00    +0.176 A 
ATOM     26  N   UNL     1       6.309  -4.947   0.826  0.00  0.00    -0.303 N 
ATOM     27  S   UNL     1       7.536  -3.246   2.582  0.00  0.00    -0.011 S 
ATOM     28  H   UNL     1       6.687  -1.968   0.007  0.00  0.00    +0.191 HD
BRANCH  26  29
ATOM     29  C   UNL     1       6.397  -6.128   1.689  0.00  0.00    +0.091 C 
ATOM     30  C   UNL     1       7.367  -6.069   2.870  0.00  0.00    +0.027 C 
ATOM     31  C   UNL     1       5.859  -6.003   3.115  0.00  0.00    +0.027 C 
ENDBRANCH  26  29
ENDBRANCH  21  22
ENDBRANCH  19  21
ENDBRANCH   1  17
TORSDOF 8
