REMARK  Name = ZINC44489650
REMARK  7 active torsions:
REMARK  status: ('A' for Active; 'I' for Inactive)
REMARK    1  A    between atoms: C_1  and  C_2
REMARK    2  A    between atoms: C_2  and  C_4
REMARK    3  A    between atoms: C_2  and  N_11
REMARK    4  A    between atoms: C_9  and  O_10
REMARK    5  A    between atoms: N_11  and  C_12
REMARK    6  A    between atoms: C_13  and  C_15
REMARK    7  A    between atoms: C_20  and  O_21
REMARK                            x       y       z     vdW  Elec       q    Type
REMARK                         _______ _______ _______ _____ _____    ______ ____
ROOT
ATOM      1  N   UNL     1      -1.309  -0.943   0.032  0.00  0.00    -0.294 N 
ATOM      2  C   UNL     1      -2.228  -1.130  -1.093  0.00  0.00    +0.133 C 
ATOM      3  C   UNL     1      -1.675  -1.326   1.272  0.00  0.00    +0.250 C 
ATOM      4  O   UNL     1      -0.884  -1.245   2.191  0.00  0.00    -0.270 OA
ENDROOT
BRANCH   3   5
ATOM      5  C   UNL     1      -3.036  -1.843   1.512  0.00  0.00    +0.078 A 
ATOM      6  C   UNL     1      -3.566  -2.837   0.685  0.00  0.00    +0.018 A 
ATOM      7  C   UNL     1      -4.836  -3.317   0.915  0.00  0.00    +0.016 A 
ATOM      8  C   UNL     1      -5.593  -2.817   1.964  0.00  0.00    +0.021 A 
ATOM      9  C   UNL     1      -5.081  -1.834   2.788  0.00  0.00    +0.061 A 
ATOM     10  C   UNL     1      -3.801  -1.344   2.575  0.00  0.00    +0.130 A 
ATOM     11 BR   UNL     1      -7.336  -3.485   2.267  0.00  0.00    -0.050 Br
BRANCH  10  12
ATOM     12  O   UNL     1      -3.295  -0.383   3.387  0.00  0.00    -0.506 OA
ATOM     13  H   UNL     1      -3.480   0.519   3.091  0.00  0.00    +0.292 HD
ENDBRANCH  10  12
ENDBRANCH   3   5
BRANCH   1  15
ATOM     14  C   UNL     1      -0.164   1.113  -0.634  0.00  0.00    +0.033 C 
ATOM     15  C   UNL     1       0.008  -0.341  -0.189  0.00  0.00    +0.107 C 
BRANCH  15  16
ATOM     16  C   UNL     1       0.738  -1.110  -1.260  0.00  0.00    +0.014 A 
ATOM     17  C   UNL     1       0.872  -0.575  -2.527  0.00  0.00    +0.009 A 
ATOM     18  C   UNL     1       1.542  -1.280  -3.509  0.00  0.00    +0.001 A 
ATOM     19  C   UNL     1       2.079  -2.523  -3.227  0.00  0.00    +0.004 A 
ATOM     20  C   UNL     1       1.948  -3.062  -1.962  0.00  0.00    +0.046 A 
ATOM     21  C   UNL     1       1.281  -2.354  -0.973  0.00  0.00    +0.122 A 
BRANCH  21  22
ATOM     22  O   UNL     1       1.156  -2.880   0.274  0.00  0.00    -0.506 OA
ATOM     23  H   UNL     1       0.362  -3.419   0.395  0.00  0.00    +0.292 HD
ENDBRANCH  21  22
ENDBRANCH  15  16
ENDBRANCH   1  15
TORSDOF 5
