REMARK  Name = ZINC36659375
REMARK  5 active torsions:
REMARK  status: ('A' for Active; 'I' for Inactive)
REMARK    1  A    between atoms: C_1  and  S_2
REMARK    2  A    between atoms: S_2  and  C_5
REMARK    3  A    between atoms: C_8  and  C_11
REMARK    4  A    between atoms: C_11  and  C_12
REMARK    5  A    between atoms: C_18  and  C_20
REMARK                            x       y       z     vdW  Elec       q    Type
REMARK                         _______ _______ _______ _____ _____    ______ ____
ROOT
ATOM      1  C   UNL     1       3.297  -0.235  -5.815  0.00  0.00    +0.223 A 
ATOM      2  N   UNL     1       4.420   0.407  -5.676  0.00  0.00    -0.111 NA
ATOM      3  N   UNL     1       4.430   1.431  -6.455  0.00  0.00    -0.092 NA
ATOM      4  C   UNL     1       3.305   1.477  -7.123  0.00  0.00    +0.314 A 
ATOM      5  O   UNL     1       2.566   0.421  -6.737  0.00  0.00    -0.409 OA
ATOM      6  N   UNL     1       2.944   2.434  -8.059  0.00  0.00    -0.234 N 
ATOM      7  C   UNL     1       3.790   3.441  -8.354  0.00  0.00    +0.259 C 
ATOM      8  O   UNL     1       4.871   3.509  -7.800  0.00  0.00    -0.269 OA
ATOM      9  H   UNL     1       2.082   2.380  -8.501  0.00  0.00    +0.160 HD
ENDROOT
BRANCH   7  10
ATOM     10  C   UNL     1       3.407   4.457  -9.348  0.00  0.00    +0.122 A 
ATOM     11  C   UNL     1       4.260   5.502  -9.677  0.00  0.00    +0.031 A 
ATOM     12  C   UNL     1       3.808   6.461 -10.620  0.00  0.00    +0.018 A 
ATOM     13  C   UNL     1       4.690   7.419 -11.140  0.00  0.00    +0.011 A 
ATOM     14  C   UNL     1       4.250   8.308 -12.078  0.00  0.00    +0.001 A 
ATOM     15  C   UNL     1       2.933   8.278 -12.516  0.00  0.00    +0.004 A 
ATOM     16  C   UNL     1       2.043   7.357 -12.004  0.00  0.00    +0.047 A 
ATOM     17  C   UNL     1       2.466   6.448 -11.044  0.00  0.00    +0.139 A 
ATOM     18  O   UNL     1       1.591   5.567 -10.502  0.00  0.00    -0.422 OA
ATOM     19  C   UNL     1       2.105   4.402 -10.037  0.00  0.00    +0.350 A 
ATOM     20  O   UNL     1       1.513   3.349 -10.180  0.00  0.00    -0.244 OA
ENDBRANCH   7  10
BRANCH   1  21
ATOM     21  C   UNL     1       2.890  -1.488  -5.084  0.00  0.00    +0.132 C 
BRANCH  21  25
ATOM     22  C   UNL     1       0.845  -0.437  -1.483  0.00  0.00    +0.088 A 
ATOM     23  C   UNL     1       0.135  -0.613  -2.656  0.00  0.00    +0.027 A 
ATOM     24  C   UNL     1       0.796  -0.953  -3.821  0.00  0.00    +0.006 A 
ATOM     25  C   UNL     1       2.169  -1.117  -3.814  0.00  0.00    -0.038 A 
ATOM     26  C   UNL     1       2.880  -0.941  -2.641  0.00  0.00    +0.006 A 
ATOM     27  C   UNL     1       2.219  -0.596  -1.477  0.00  0.00    +0.027 A 
BRANCH  22  29
ATOM     28  C   UNL     1      -0.022   1.810   0.012  0.00  0.00    +0.200 C 
ATOM     29  S   UNL     1       0.002  -0.004   0.002  0.00  0.00    -0.006 S 
ATOM     30  O   UNL     1       0.835  -0.488   1.046  0.00  0.00    -0.170 OA
ATOM     31  O   UNL     1      -1.315  -0.510  -0.168  0.00  0.00    -0.170 OA
ENDBRANCH  22  29
ENDBRANCH  21  25
ENDBRANCH   1  21
TORSDOF 4
