REMARK  Name = ZINC05461067
REMARK  6 active torsions:
REMARK  status: ('A' for Active; 'I' for Inactive)
REMARK    1  A    between atoms: C_1  and  C_2
REMARK    2  A    between atoms: C_9  and  C_11
REMARK    3  A    between atoms: C_15  and  S_17
REMARK    4  A    between atoms: S_17  and  N_20
REMARK    5  A    between atoms: C_22  and  C_29
REMARK    6  A    between atoms: C_25  and  C_28
REMARK                            x       y       z     vdW  Elec       q    Type
REMARK                         _______ _______ _______ _____ _____    ______ ____
ROOT
ATOM      1  C   UNL     1      -2.563   1.417   3.128  0.00  0.00    +0.004 A 
ATOM      2  C   UNL     1      -2.350   2.675   3.689  0.00  0.00    +0.010 A 
ATOM      3  C   UNL     1      -1.431   3.534   3.122  0.00  0.00    +0.003 A 
ATOM      4  C   UNL     1      -0.716   3.146   2.003  0.00  0.00    +0.028 A 
ATOM      5  C   UNL     1      -0.927   1.900   1.439  0.00  0.00    +0.106 A 
ATOM      6  C   UNL     1      -1.844   1.033   1.998  0.00  0.00    +0.038 A 
ENDROOT
BRANCH   1  15
ATOM      7  C   UNL     1      -5.088  -3.541   2.990  0.00  0.00    +0.047 C 
ATOM      8  C   UNL     1      -5.419  -2.528   4.056  0.00  0.00    -0.008 A 
ATOM      9  C   UNL     1      -6.347  -2.813   5.009  0.00  0.00    +0.008 A 
ATOM     10  C   UNL     1      -6.645  -1.859   5.996  0.00  0.00    +0.018 A 
ATOM     11  C   UNL     1      -6.015  -0.666   6.003  0.00  0.00    +0.093 A 
ATOM     12  N   UNL     1      -5.082  -0.366   5.052  0.00  0.00    -0.306 N 
ATOM     13  C   UNL     1      -4.769  -1.277   4.075  0.00  0.00    +0.141 A 
ATOM     14  N   UNL     1      -3.845  -0.744   3.290  0.00  0.00    -0.228 NA
ATOM     15  C   UNL     1      -3.551   0.489   3.733  0.00  0.00    +0.090 A 
ATOM     16  C   UNL     1      -4.310   0.740   4.836  0.00  0.00    +0.121 A 
ENDBRANCH   1  15
BRANCH   5  17
ATOM     17  S   UNL     1      -0.017   1.417   0.010  0.00  0.00    +0.061 S 
ATOM     18  O   UNL     1       0.002  -0.004   0.002  0.00  0.00    -0.153 OA
ATOM     19  O   UNL     1       1.172   2.195   0.003  0.00  0.00    -0.153 OA
BRANCH  17  20
ATOM     20  N   UNL     1      -0.897   1.885  -1.312  0.00  0.00    -0.176 NA
ATOM     21  C   UNL     1      -1.885   0.979  -1.914  0.00  0.00    +0.112 C 
ATOM     22  C   UNL     1      -3.232   1.712  -2.000  0.00  0.00    +0.002 C 
ATOM     23  C   UNL     1      -3.044   3.027  -2.758  0.00  0.00    +0.009 C 
ATOM     24  C   UNL     1      -2.058   3.919  -1.999  0.00  0.00    +0.002 C 
ATOM     25  C   UNL     1      -0.702   3.213  -1.909  0.00  0.00    +0.112 C 
ATOM     26  C   UNL     1      -2.591   4.183  -0.589  0.00  0.00    +0.009 C 
ATOM     27  C   UNL     1      -4.242   0.834  -2.742  0.00  0.00    +0.009 C 
ENDBRANCH  17  20
ENDBRANCH   5  17
TORSDOF 3
