REMARK  Name = ZINC64773098
REMARK  5 active torsions:
REMARK  status: ('A' for Active; 'I' for Inactive)
REMARK    1  A    between atoms: C_3  and  C_8
REMARK    2  A    between atoms: C_5  and  O_7
REMARK    3  A    between atoms: C_16  and  S_22
REMARK    4  A    between atoms: S_22  and  C_23
REMARK    5  A    between atoms: C_23  and  C_24
REMARK                            x       y       z     vdW  Elec       q    Type
REMARK                         _______ _______ _______ _____ _____    ______ ____
ROOT
ATOM      1  C   UNL     1       3.671   2.190  -0.021  0.00  0.00    +0.047 C 
ATOM      2  C   UNL     1       3.725   3.090  -1.259  0.00  0.00    +0.105 C 
ATOM      3  C   UNL     1       4.838   4.090  -1.147  0.00  0.00    +0.219 C 
ATOM      4  O   UNL     1       5.239   4.616  -2.164  0.00  0.00    -0.275 OA
ATOM      5  N   UNL     1       5.412   4.435   0.013  0.00  0.00    -0.273 N 
ATOM      6  C   UNL     1       5.058   3.822   1.181  0.00  0.00    +0.117 C 
ATOM      7  N   UNL     1       5.837   3.874   2.223  0.00  0.00    -0.212 NA
ATOM      8  C   UNL     1       5.577   3.190   3.345  0.00  0.00    +0.182 C 
ATOM      9  N   UNL     1       4.531   2.382   3.451  0.00  0.00    -0.154 NA
ATOM     10  C   UNL     1       3.640   2.264   2.477  0.00  0.00    +0.249 C 
ATOM     11  O   UNL     1       2.719   1.481   2.602  0.00  0.00    -0.273 OA
ATOM     12  C   UNL     1       3.748   3.077   1.225  0.00  0.00    +0.148 C 
ATOM     13  H   UNL     1       6.090   5.130   0.024  0.00  0.00    +0.156 HD
ENDROOT
BRANCH   1  16
ATOM     14  C   UNL     1      -0.017   1.377   0.010  0.00  0.00    +0.004 A 
ATOM     15  C   UNL     1       1.171   2.086   0.002  0.00  0.00    +0.004 A 
ATOM     16  C   UNL     1       2.379   1.415  -0.013  0.00  0.00    -0.039 A 
ATOM     17  C   UNL     1       2.403   0.033  -0.021  0.00  0.00    +0.049 A 
ATOM     18  C   UNL     1       1.214  -0.680  -0.013  0.00  0.00    +0.117 A 
ATOM     19  C   UNL     1       0.002  -0.004   0.002  0.00  0.00    +0.045 A 
BRANCH  18  20
ATOM     20  O   UNL     1       1.235  -2.039  -0.021  0.00  0.00    -0.507 OA
ATOM     21  H   UNL     1       1.249  -2.437   0.860  0.00  0.00    +0.292 HD
ENDBRANCH  18  20
ENDBRANCH   1  16
BRANCH   8  22
ATOM     22  S   UNL     1       6.659   3.369   4.723  0.00  0.00    -0.084 S 
BRANCH  22  23
ATOM     23  C   UNL     1       5.940   2.288   5.990  0.00  0.00    +0.112 C 
BRANCH  23  24
ATOM     24  C   UNL     1       6.780   2.349   7.239  0.00  0.00    -0.037 A 
ATOM     25  C   UNL     1       7.833   1.468   7.407  0.00  0.00    +0.006 A 
ATOM     26  C   UNL     1       8.604   1.523   8.552  0.00  0.00    +0.020 A 
ATOM     27  C   UNL     1       8.323   2.460   9.531  0.00  0.00    +0.041 A 
ATOM     28  C   UNL     1       7.270   3.341   9.362  0.00  0.00    +0.020 A 
ATOM     29  C   UNL     1       6.503   3.289   8.213  0.00  0.00    +0.006 A 
ATOM     30 CL   UNL     1       9.291   2.530  10.970  0.00  0.00    -0.084 Cl
ENDBRANCH  23  24
ENDBRANCH  22  23
ENDBRANCH   8  22
TORSDOF 5
