REMARK  Name = ZINC45074504
REMARK  5 active torsions:
REMARK  status: ('A' for Active; 'I' for Inactive)
REMARK    1  A    between atoms: C_1  and  C_2
REMARK    2  A    between atoms: C_3  and  C_19
REMARK    3  A    between atoms: C_4  and  N_8
REMARK    4  A    between atoms: N_5  and  C_7
REMARK    5  A    between atoms: C_12  and  C_14
REMARK                            x       y       z     vdW  Elec       q    Type
REMARK                         _______ _______ _______ _____ _____    ______ ____
ROOT
ATOM      1  N   UNL     1       0.223  -3.603  -1.103  0.00  0.00    -0.312 N 
ATOM      2  C   UNL     1       0.214  -4.198  -2.451  0.00  0.00    +0.107 C 
ATOM      3  C   UNL     1      -0.537  -5.543  -2.286  0.00  0.00    +0.021 C 
ATOM      4  C   UNL     1      -0.044  -6.006  -0.890  0.00  0.00    +0.024 C 
ATOM      5  C   UNL     1       0.089  -4.680  -0.111  0.00  0.00    +0.078 C 
ENDROOT
BRANCH   1   9
ATOM      6  C   UNL     1       2.131   0.954  -0.232  0.00  0.00    +0.068 C 
ATOM      7  C   UNL     1       1.176  -0.196  -0.422  0.00  0.00    +0.072 A 
ATOM      8  C   UNL     1       1.534  -1.532  -0.734  0.00  0.00    +0.076 A 
ATOM      9  C   UNL     1       0.343  -2.260  -0.819  0.00  0.00    +0.130 A 
ATOM     10  N   UNL     1      -0.664  -1.400  -0.571  0.00  0.00    -0.253 N 
ATOM     11  N   UNL     1      -0.121  -0.136  -0.324  0.00  0.00    -0.174 NA
ATOM     12  C   UNL     1      -2.091  -1.736  -0.557  0.00  0.00    +0.174 C 
BRANCH   8  13
ATOM     13  C   UNL     1       2.844  -2.033  -0.922  0.00  0.00    +0.264 C 
ATOM     14  O   UNL     1       3.803  -1.313  -0.728  0.00  0.00    -0.296 OA
ENDBRANCH   8  13
ENDBRANCH   1   9
BRANCH   5  15
ATOM     15  C   UNL     1       1.329  -4.721   0.784  0.00  0.00    +0.009 C 
ATOM     16  C   UNL     1       1.228  -5.900   1.773  0.00  0.00    +0.005 C 
ATOM     17  C   UNL     1       1.851  -5.352   3.081  0.00  0.00    +0.000 C 
ATOM     18  C   UNL     1       1.355  -3.885   3.108  0.00  0.00    +0.000 C 
ATOM     19  C   UNL     1       1.410  -3.440   1.633  0.00  0.00    +0.005 C 
ENDBRANCH   5  15
TORSDOF 3
