REMARK  Name = ZINC00187223
REMARK  3 active torsions:
REMARK  status: ('A' for Active; 'I' for Inactive)
REMARK    1  A    between atoms: C_1  and  C_2
REMARK    2  A    between atoms: C_2  and  C_3
REMARK    3  A    between atoms: C_2  and  C_4
REMARK                            x       y       z     vdW  Elec       q    Type
REMARK                         _______ _______ _______ _____ _____    ______ ____
ROOT
ATOM      1  C   UNL     1      -0.018   1.503   0.010  0.00  0.00    +0.221 C 
ATOM      2  O   UNL     1       1.024   2.123   0.004  0.00  0.00    -0.275 OA
ATOM      3  N   UNL     1      -1.195   2.161   0.019  0.00  0.00    -0.264 N 
ATOM      4  C   UNL     1      -1.213   3.547   0.027  0.00  0.00    +0.166 A 
ATOM      5  N   UNL     1      -0.203   4.383   0.033  0.00  0.00    -0.222 NA
ATOM      6  C   UNL     1      -0.370   5.725   0.035  0.00  0.00    +0.116 A 
ATOM      7  C   UNL     1       0.627   6.730   0.036  0.00  0.00    +0.152 A 
ATOM      8  C   UNL     1       0.284   8.058   0.045  0.00  0.00    +0.079 A 
ATOM      9  C   UNL     1      -1.045   8.463   0.054  0.00  0.00    +0.127 A 
ATOM     10  C   UNL     1      -2.045   7.506   0.053  0.00  0.00    +0.055 A 
ATOM     11  C   UNL     1      -1.710   6.174   0.044  0.00  0.00    +0.046 A 
ATOM     12  S   UNL     1      -2.620   4.649   0.040  0.00  0.00    -0.052 S 
ATOM     13  F   UNL     1      -1.358   9.777   0.062  0.00  0.00    -0.205 F 
ATOM     14  F   UNL     1       1.931   6.377   0.028  0.00  0.00    -0.203 F 
ATOM     15  H   UNL     1      -2.028   1.664   0.021  0.00  0.00    +0.157 HD
ENDROOT
BRANCH   1  17
ATOM     16  C   UNL     1      -0.724  -0.517  -1.243  0.00  0.00    +0.017 C 
ATOM     17  C   UNL     1       0.002  -0.004   0.002  0.00  0.00    +0.069 C 
ATOM     18  C   UNL     1       1.451  -0.494  -0.015  0.00  0.00    +0.017 C 
ENDBRANCH   1  17
TORSDOF 1
