REMARK  Name = ZINC40457514
REMARK  4 active torsions:
REMARK  status: ('A' for Active; 'I' for Inactive)
REMARK    1  A    between atoms: C_1  and  C_2
REMARK    2  A    between atoms: C_7  and  C_10
REMARK    3  A    between atoms: C_11  and  C_13
REMARK    4  A    between atoms: C_14  and  C_15
REMARK                            x       y       z     vdW  Elec       q    Type
REMARK                         _______ _______ _______ _____ _____    ______ ____
ROOT
ATOM      1  C   UNL     1      -2.921  -2.283  -1.613  0.00  0.00    +0.069 C 
ATOM      2  C   UNL     1      -3.685  -3.112  -2.377  0.00  0.00    +0.034 C 
ENDROOT
BRANCH   1  11
ATOM      3  C   UNL     1      -0.006   1.521   0.004  0.00  0.00    +0.039 C 
ATOM      4  C   UNL     1       0.010  -0.009  -0.000  0.00  0.00    +0.133 C 
ATOM      5  C   UNL     1      -1.430  -0.536   0.011  0.00  0.00    +0.139 C 
ATOM      6  N   UNL     1      -1.389  -1.995   0.196  0.00  0.00    -0.293 N 
ATOM      7  C   UNL     1      -0.583  -2.530   1.305  0.00  0.00    +0.139 C 
ATOM      8  C   UNL     1       0.816  -1.906   1.231  0.00  0.00    +0.133 C 
ATOM      9  O   UNL     1       0.694  -0.483   1.162  0.00  0.00    -0.371 OA
ATOM     10  C   UNL     1       1.614  -2.292   2.477  0.00  0.00    +0.039 C 
ATOM     11  C   UNL     1      -2.068  -2.818  -0.627  0.00  0.00    +0.240 C 
ATOM     12  O   UNL     1      -1.946  -4.026  -0.519  0.00  0.00    -0.271 OA
ENDBRANCH   1  11
BRANCH   2  13
ATOM     13  C   UNL     1      -4.537  -2.577  -3.361  0.00  0.00    +0.085 A 
ATOM     14  C   UNL     1      -5.447  -1.547  -3.193  0.00  0.00    +0.156 A 
ATOM     15  N   UNL     1      -6.052  -1.341  -4.359  0.00  0.00    -0.209 NA
ATOM     16  C   UNL     1      -5.581  -2.175  -5.252  0.00  0.00    +0.179 A 
ATOM     17  N   UNL     1      -4.621  -2.981  -4.706  0.00  0.00    -0.292 N 
ATOM     18  C   UNL     1      -4.033  -3.905  -5.537  0.00  0.00    +0.101 A 
ATOM     19  C   UNL     1      -4.391  -3.998  -6.818  0.00  0.00    +0.067 A 
ATOM     20  S   UNL     1      -5.649  -2.735  -6.938  0.00  0.00    -0.058 S 
ATOM     21 CL   UNL     1      -5.747  -0.678  -1.720  0.00  0.00    -0.060 Cl
ENDBRANCH   2  13
TORSDOF 2
