REMARK  Name = ZINC62185389
REMARK  4 active torsions:
REMARK  status: ('A' for Active; 'I' for Inactive)
REMARK    1  A    between atoms: C_1  and  N_2
REMARK    2  A    between atoms: N_5  and  S_15
REMARK    3  A    between atoms: C_7  and  C_9
REMARK    4  A    between atoms: S_15  and  C_18
REMARK                            x       y       z     vdW  Elec       q    Type
REMARK                         _______ _______ _______ _____ _____    ______ ____
ROOT
ATOM      1  S   UNL     1       2.091  -3.845  -0.115  0.00  0.00    +0.061 S 
ATOM      2  O   UNL     1       2.008  -4.521   1.132  0.00  0.00    -0.153 OA
ATOM      3  O   UNL     1       1.891  -4.509  -1.355  0.00  0.00    -0.153 OA
ENDROOT
BRANCH   1   4
ATOM      4  C   UNL     1       3.693  -3.115  -0.187  0.00  0.00    +0.108 A 
ATOM      5  C   UNL     1       4.260  -2.819  -1.415  0.00  0.00    +0.030 A 
ATOM      6  C   UNL     1       5.516  -2.246  -1.482  0.00  0.00    +0.030 A 
ATOM      7  C   UNL     1       6.210  -1.968  -0.314  0.00  0.00    +0.067 A 
ATOM      8  C   UNL     1       5.638  -2.267   0.924  0.00  0.00    +0.069 A 
ATOM      9  C   UNL     1       4.375  -2.836   0.981  0.00  0.00    +0.056 A 
ATOM     10  N   UNL     1       6.556  -1.879   1.896  0.00  0.00    -0.306 N 
ATOM     11  H   UNL     1       6.437  -1.963   2.855  0.00  0.00    +0.170 HD
ATOM     12  C   UNL     1       7.638  -1.368   1.278  0.00  0.00    +0.325 A 
ATOM     13  O   UNL     1       8.627  -0.935   1.840  0.00  0.00    -0.247 OA
ATOM     14  N   UNL     1       7.459  -1.407  -0.056  0.00  0.00    -0.306 N 
ATOM     15  H   UNL     1       8.092  -1.099  -0.723  0.00  0.00    +0.170 HD
ENDBRANCH   1   4
BRANCH   1  20
ATOM     16  C   UNL     1      -0.018   1.465   0.010  0.00  0.00    +0.105 C 
ATOM     17  N   UNL     1       0.002  -0.004   0.002  0.00  0.00    -0.296 NA
ATOM     18  C   UNL     1       0.592  -0.516  -1.242  0.00  0.00    +0.102 C 
ATOM     19  C   UNL     1       0.430  -2.039  -1.292  0.00  0.00    +0.125 C 
ATOM     20  N   UNL     1       0.991  -2.608  -0.057  0.00  0.00    -0.174 NA
ATOM     21  C   UNL     1       0.549  -2.051   1.230  0.00  0.00    +0.133 C 
ATOM     22  C   UNL     1       0.706  -0.527   1.180  0.00  0.00    +0.102 C 
BRANCH  22  23
ATOM     23  C   UNL     1       0.118   0.080   2.428  0.00  0.00    -0.029 A 
ATOM     24  C   UNL     1      -1.249   0.251   2.535  0.00  0.00    +0.005 A 
ATOM     25  C   UNL     1      -1.788   0.808   3.680  0.00  0.00    +0.000 A 
ATOM     26  C   UNL     1      -0.960   1.193   4.718  0.00  0.00    +0.000 A 
ATOM     27  C   UNL     1       0.408   1.021   4.611  0.00  0.00    +0.000 A 
ATOM     28  C   UNL     1       0.947   0.460   3.468  0.00  0.00    +0.005 A 
ENDBRANCH  22  23
ENDBRANCH   1  20
TORSDOF 3
