REMARK  Name = ZINC36026758
REMARK  10 active torsions:
REMARK  status: ('A' for Active; 'I' for Inactive)
REMARK    1  A    between atoms: C_1  and  C_2
REMARK    2  A    between atoms: C_2  and  C_3
REMARK    3  A    between atoms: C_3  and  C_5
REMARK    4  A    between atoms: C_3  and  N_6
REMARK    5  A    between atoms: C_9  and  C_25
REMARK    6  A    between atoms: N_20  and  C_21
REMARK    7  A    between atoms: C_21  and  C_22
REMARK    8  A    between atoms: C_21  and  C_23
REMARK    9  A    between atoms: C_21  and  C_24
REMARK   10  A    between atoms: C_25  and  C_26
REMARK                            x       y       z     vdW  Elec       q    Type
REMARK                         _______ _______ _______ _____ _____    ______ ____
ROOT
ATOM      1  N   UNL     1      -2.218  -0.215  -1.103  0.00  0.00    -0.311 N 
ATOM      2  C   UNL     1      -1.923  -0.817  -2.274  0.00  0.00    +0.201 C 
ATOM      3  O   UNL     1      -1.122  -1.714  -2.427  0.00  0.00    -0.277 OA
ATOM      4  C   UNL     1      -2.759  -0.183  -3.364  0.00  0.00    +0.023 C 
ATOM      5  N   UNL     1      -3.242   1.091  -2.778  0.00  0.00    +0.401 N 
ATOM      6  C   UNL     1      -3.240   0.811  -1.325  0.00  0.00    +0.006 C 
ATOM      7  C   UNL     1      -4.612   0.293  -0.895  0.00  0.00    +0.025 C 
ATOM      8  C   UNL     1      -4.586  -0.028   0.603  0.00  0.00    +0.109 C 
ATOM      9  N   UNL     1      -4.124   1.159   1.334  0.00  0.00    -0.286 N 
ATOM     10  C   UNL     1      -2.849   1.777   0.944  0.00  0.00    +0.109 C 
ATOM     11  C   UNL     1      -2.888   2.084  -0.557  0.00  0.00    +0.025 C 
ATOM     12  C   UNL     1      -4.855   1.673   2.343  0.00  0.00    +0.303 C 
ATOM     13  O   UNL     1      -4.512   2.711   2.876  0.00  0.00    -0.253 OA
ATOM     14  N   UNL     1      -5.968   1.036   2.760  0.00  0.00    -0.294 N 
ATOM     15  H   UNL     1      -2.611   1.847  -3.000  0.00  0.00    -0.082 HD
ATOM     16  H   UNL     1      -6.281   0.248   2.290  0.00  0.00    +0.151 HD
ATOM     17  H   UNL     1      -4.176   1.299  -3.098  0.00  0.00    -0.082 HD
ENDROOT
BRANCH  14  18
ATOM     18  C   UNL     1      -6.703   1.535   3.925  0.00  0.00    +0.028 C 
ATOM     19  C   UNL     1      -7.175   2.966   3.656  0.00  0.00    +0.031 C 
ATOM     20  C   UNL     1      -7.915   0.639   4.185  0.00  0.00    +0.031 C 
ATOM     21  C   UNL     1      -5.787   1.522   5.151  0.00  0.00    +0.031 C 
ENDBRANCH  14  18
BRANCH   1  22
ATOM     22  C   UNL     1      -1.615  -0.541   0.192  0.00  0.00    +0.071 C 
ATOM     23  C   UNL     1      -1.584  -2.060   0.372  0.00  0.00    +0.028 C 
BRANCH  22  25
ATOM     24  C   UNL     1      -0.226   1.536   0.187  0.00  0.00    +0.005 C 
ATOM     25  C   UNL     1      -0.187   0.008   0.242  0.00  0.00    +0.019 C 
ENDBRANCH  22  25
ENDBRANCH   1  22
BRANCH   4  26
ATOM     26  C   UNL     1      -1.903   0.088  -4.603  0.00  0.00    +0.028 C 
BRANCH  26  27
ATOM     27  C   UNL     1      -2.772   0.638  -5.704  0.00  0.00    -0.048 A 
ATOM     28  C   UNL     1      -3.386  -0.223  -6.595  0.00  0.00    +0.003 A 
ATOM     29  C   UNL     1      -4.184   0.281  -7.605  0.00  0.00    +0.000 A 
ATOM     30  C   UNL     1      -4.368   1.646  -7.724  0.00  0.00    +0.000 A 
ATOM     31  C   UNL     1      -3.755   2.507  -6.833  0.00  0.00    +0.000 A 
ATOM     32  C   UNL     1      -2.961   2.002  -5.820  0.00  0.00    +0.003 A 
ENDBRANCH  26  27
ENDBRANCH   4  26
TORSDOF 5
