REMARK  Name = ZINC02554046
REMARK  3 active torsions:
REMARK  status: ('A' for Active; 'I' for Inactive)
REMARK    1  A    between atoms: C_2  and  N_18
REMARK    2  A    between atoms: N_4  and  C_6
REMARK    3  A    between atoms: C_6  and  C_7
REMARK                            x       y       z     vdW  Elec       q    Type
REMARK                         _______ _______ _______ _____ _____    ______ ____
ROOT
ATOM      1  C   UNL     1      -2.522   4.254  -1.115  0.00  0.00    +0.050 A 
ATOM      2  C   UNL     1      -2.189   4.816  -2.335  0.00  0.00    +0.169 A 
ATOM      3  C   UNL     1      -3.073   4.734  -3.400  0.00  0.00    +0.197 A 
ATOM      4  C   UNL     1      -4.294   4.099  -3.239  0.00  0.00    +0.199 A 
ATOM      5  C   UNL     1      -4.629   3.542  -2.015  0.00  0.00    +0.197 A 
ATOM      6  C   UNL     1      -3.742   3.620  -0.953  0.00  0.00    +0.169 A 
ATOM      7  F   UNL     1      -4.067   3.077   0.240  0.00  0.00    -0.202 F 
ATOM      8  F   UNL     1      -5.819   2.924  -1.857  0.00  0.00    -0.199 F 
ATOM      9  F   UNL     1      -5.158   4.024  -4.275  0.00  0.00    -0.199 F 
ATOM     10  F   UNL     1      -2.746   5.278  -4.593  0.00  0.00    -0.199 F 
ATOM     11  F   UNL     1      -1.001   5.439  -2.491  0.00  0.00    -0.202 F 
ENDROOT
BRANCH   1  12
ATOM     12  C   UNL     1      -1.558   4.338   0.040  0.00  0.00    +0.184 C 
BRANCH  12  16
ATOM     13  C   UNL     1      -0.013   1.076   0.008  0.00  0.00    +0.167 A 
ATOM     14  C   UNL     1       1.109   1.911   0.002  0.00  0.00    +0.163 A 
ATOM     15  C   UNL     1       0.674   3.193   0.013  0.00  0.00    +0.141 A 
ATOM     16  N   UNL     1      -0.675   3.169   0.025  0.00  0.00    -0.265 N 
ATOM     17  N   UNL     1      -1.083   1.829   0.017  0.00  0.00    -0.177 NA
BRANCH  14  18
ATOM     18  N   UNL     1       2.522   1.472  -0.015  0.00  0.00    +0.059 N 
ATOM     19  O   UNL     1       2.791   0.283  -0.024  0.00  0.00    -0.126 OA
ATOM     20  O   UNL     1       3.417   2.298  -0.019  0.00  0.00    -0.126 OA
ENDBRANCH  14  18
ENDBRANCH  12  16
ENDBRANCH   1  12
TORSDOF 3
