REMARK  Name = ZINC13543936
REMARK  8 active torsions:
REMARK  status: ('A' for Active; 'I' for Inactive)
REMARK    1  A    between atoms: C_1  and  C_2
REMARK    2  A    between atoms: N_4  and  C_21
REMARK    3  A    between atoms: N_8  and  N_9
REMARK    4  A    between atoms: N_9  and  C_10
REMARK    5  A    between atoms: C_13  and  N_16
REMARK    6  A    between atoms: N_16  and  C_17
REMARK    7  A    between atoms: C_18  and  C_20
REMARK    8  A    between atoms: C_21  and  N_23
REMARK                            x       y       z     vdW  Elec       q    Type
REMARK                         _______ _______ _______ _____ _____    ______ ____
ROOT
ATOM      1  C   UNL     1      -0.160   1.390   0.001  0.00  0.00    +0.070 C 
ATOM      2  C   UNL     1      -0.089  -0.115   0.011  0.00  0.00    +0.089 C 
ATOM      3  N   UNL     1      -0.070  -0.888  -1.031  0.00  0.00    -0.173 NA
ATOM      4  N   UNL     1      -0.000  -2.232  -0.667  0.00  0.00    -0.134 N 
ATOM      5  C   UNL     1       0.027  -2.348   0.676  0.00  0.00    +0.294 C 
ATOM      6  O   UNL     1       0.086  -3.380   1.322  0.00  0.00    -0.266 OA
ATOM      7  C   UNL     1      -0.024  -0.975   1.203  0.00  0.00    +0.168 C 
ATOM      8  N   UNL     1      -0.015  -0.597   2.469  0.00  0.00    -0.175 NA
ENDROOT
BRANCH   8   9
ATOM      9  N   UNL     1       0.046  -1.481   3.406  0.00  0.00    -0.237 N 
ATOM     10  H   UNL     1       0.086  -2.424   3.181  0.00  0.00    +0.174 HD
BRANCH   9  11
ATOM     11  C   UNL     1       0.056  -1.082   4.743  0.00  0.00    +0.048 A 
ATOM     12  C   UNL     1      -0.007   0.269   5.066  0.00  0.00    +0.026 A 
ATOM     13  C   UNL     1       0.002   0.663   6.388  0.00  0.00    +0.025 A 
ATOM     14  C   UNL     1       0.073  -0.290   7.396  0.00  0.00    +0.036 A 
ATOM     15  C   UNL     1       0.136  -1.640   7.074  0.00  0.00    +0.025 A 
ATOM     16  C   UNL     1       0.122  -2.035   5.753  0.00  0.00    +0.026 A 
BRANCH  14  17
ATOM     17  N   UNL     1       0.083   0.111   8.737  0.00  0.00    -0.275 N 
ATOM     18  C   UNL     1       0.179   1.533   9.077  0.00  0.00    +0.138 C 
ATOM     19  C   UNL     1       0.004  -0.812   9.717  0.00  0.00    +0.216 C 
ATOM     20  O   UNL     1       0.020  -1.993   9.440  0.00  0.00    -0.276 OA
ATOM     21  C   UNL     1      -0.105  -0.376  11.155  0.00  0.00    +0.109 C 
ENDBRANCH  14  17
ENDBRANCH   9  11
ENDBRANCH   8   9
BRANCH   4  22
ATOM     22  C   UNL     1       0.034  -3.265  -1.532  0.00  0.00    +0.158 C 
ATOM     23  S   UNL     1       0.119  -4.871  -0.945  0.00  0.00    -0.017 S 
BRANCH  22  24
ATOM     24  N   UNL     1       0.002  -3.034  -2.859  0.00  0.00    -0.339 N 
ATOM     25  H   UNL     1      -0.046  -2.124  -3.192  0.00  0.00    +0.144 HD
ATOM     26  H   UNL     1       0.026  -3.777  -3.482  0.00  0.00    +0.144 HD
ENDBRANCH  22  24
ENDBRANCH   4  22
TORSDOF 5
