REMARK  Name = ZINC46618318
REMARK  6 active torsions:
REMARK  status: ('A' for Active; 'I' for Inactive)
REMARK    1  A    between atoms: C_1  and  C_2
REMARK    2  A    between atoms: C_2  and  C_3
REMARK    3  A    between atoms: C_2  and  N_18
REMARK    4  A    between atoms: N_5  and  C_6
REMARK    5  A    between atoms: C_19  and  C_21
REMARK    6  A    between atoms: C_22  and  C_23
REMARK                            x       y       z     vdW  Elec       q    Type
REMARK                         _______ _______ _______ _____ _____    ______ ____
ROOT
ATOM      1  C   UNL     1       0.685  -0.510   1.234  0.00  0.00    +0.233 C 
ATOM      2  O   UNL     1       1.692  -1.173   1.098  0.00  0.00    -0.274 OA
ATOM      3  N   UNL     1       0.238  -0.211   2.469  0.00  0.00    -0.311 N 
ATOM      4  H   UNL     1      -0.567   0.320   2.578  0.00  0.00    +0.149 HD
ENDROOT
BRANCH   3   5
ATOM      5  C   UNL     1       0.967  -0.686   3.648  0.00  0.00    +0.076 C 
ATOM      6  C   UNL     1       2.096   0.293   3.978  0.00  0.00    +0.041 C 
ATOM      7  C   UNL     1       2.877  -0.225   5.189  0.00  0.00    +0.108 C 
ATOM      8  N   UNL     1       1.937  -0.456   6.295  0.00  0.00    -0.317 N 
ATOM      9  C   UNL     1       0.765  -1.310   6.058  0.00  0.00    +0.108 C 
ATOM     10  C   UNL     1       0.007  -0.780   4.837  0.00  0.00    +0.041 C 
ATOM     11  C   UNL     1       2.153   0.121   7.540  0.00  0.00    +0.099 A 
ATOM     12  C   UNL     1       3.331   0.822   7.781  0.00  0.00    +0.042 A 
ATOM     13  C   UNL     1       3.532   1.392   9.025  0.00  0.00    +0.005 A 
ATOM     14  C   UNL     1       2.546   1.241   9.991  0.00  0.00    +0.018 A 
ATOM     15  C   UNL     1       1.401   0.533   9.684  0.00  0.00    +0.084 A 
ATOM     16  N   UNL     1       1.234   0.004   8.486  0.00  0.00    -0.350 N 
ATOM     17  H   UNL     1       0.418  -0.485   8.295  0.00  0.00    +0.166 HD
ENDBRANCH   3   5
BRANCH   1  19
ATOM     18  C   UNL     1      -0.115   1.508   0.035  0.00  0.00    +0.038 C 
ATOM     19  C   UNL     1      -0.064  -0.021   0.022  0.00  0.00    +0.156 C 
BRANCH  19  20
ATOM     20  N   UNL     1       0.620  -0.476  -1.192  0.00  0.00    -0.301 N 
ATOM     21  C   UNL     1      -0.070  -0.618  -2.341  0.00  0.00    +0.237 C 
ATOM     22  O   UNL     1      -1.260  -0.367  -2.371  0.00  0.00    -0.271 OA
ATOM     23  H   UNL     1       1.569  -0.676  -1.168  0.00  0.00    +0.150 HD
BRANCH  21  24
ATOM     24  C   UNL     1       0.614  -1.072  -3.554  0.00  0.00    +0.068 C 
ATOM     25  C   UNL     1      -0.076  -1.213  -4.703  0.00  0.00    +0.013 C 
BRANCH  25  26
ATOM     26  C   UNL     1       0.611  -1.670  -5.922  0.00  0.00    -0.025 A 
ATOM     27  C   UNL     1       1.978  -1.964  -5.890  0.00  0.00    +0.008 A 
ATOM     28  C   UNL     1       2.614  -2.392  -7.037  0.00  0.00    +0.001 A 
ATOM     29  C   UNL     1       1.904  -2.530  -8.216  0.00  0.00    +0.000 A 
ATOM     30  C   UNL     1       0.551  -2.241  -8.256  0.00  0.00    +0.001 A 
ATOM     31  C   UNL     1      -0.101  -1.818  -7.117  0.00  0.00    +0.008 A 
ENDBRANCH  25  26
ENDBRANCH  21  24
ENDBRANCH  19  20
ENDBRANCH   1  19
TORSDOF 5
