REMARK  Name = ZINC14471711
REMARK  4 active torsions:
REMARK  status: ('A' for Active; 'I' for Inactive)
REMARK    1  A    between atoms: C_3  and  C_10
REMARK    2  A    between atoms: C_5  and  N_7
REMARK    3  A    between atoms: C_21  and  S_26
REMARK    4  A    between atoms: S_26  and  N_29
REMARK                            x       y       z     vdW  Elec       q    Type
REMARK                         _______ _______ _______ _____ _____    ______ ____
ROOT
ATOM      1  C   UNL     1      -1.777   0.708   1.662  0.00  0.00    +0.105 C 
ATOM      2  C   UNL     1      -0.534   1.541   1.404  0.00  0.00    +0.029 C 
ATOM      3  C   UNL     1       0.723   1.190   2.211  0.00  0.00    +0.033 C 
ATOM      4  C   UNL     1       1.835   1.610   1.248  0.00  0.00    -0.030 C 
ATOM      5  C   UNL     1       1.393   1.564  -0.003  0.00  0.00    -0.023 C 
ATOM      6  C   UNL     1      -0.013   1.086   0.008  0.00  0.00    +0.049 C 
ATOM      7  C   UNL     1      -1.001   1.536  -0.995  0.00  0.00    -0.018 A 
ATOM      8  C   UNL     1      -0.639   1.940  -2.262  0.00  0.00    +0.034 A 
ATOM      9  C   UNL     1      -1.602   2.337  -3.170  0.00  0.00    +0.106 A 
ATOM     10  C   UNL     1      -2.937   2.331  -2.809  0.00  0.00    +0.030 A 
ATOM     11  C   UNL     1      -3.302   1.887  -1.582  0.00  0.00    +0.025 A 
ATOM     12  C   UNL     1      -2.347   1.508  -0.646  0.00  0.00    +0.031 A 
ATOM     13  N   UNL     1      -2.758   1.128   0.637  0.00  0.00    -0.336 N 
ATOM     14  H   UNL     1      -3.702   1.139   0.858  0.00  0.00    +0.147 HD
ENDROOT
BRANCH   1  17
ATOM     15  C   UNL     1      -3.570   2.376   4.536  0.00  0.00    +0.003 A 
ATOM     16  C   UNL     1      -3.073   2.121   3.271  0.00  0.00    +0.005 A 
ATOM     17  C   UNL     1      -2.314   0.989   3.042  0.00  0.00    -0.025 A 
ATOM     18  C   UNL     1      -2.044   0.116   4.080  0.00  0.00    +0.038 A 
ATOM     19  C   UNL     1      -2.537   0.373   5.345  0.00  0.00    +0.127 A 
ATOM     20  C   UNL     1      -3.299   1.504   5.573  0.00  0.00    +0.033 A 
BRANCH  19  21
ATOM     21  N   UNL     1      -2.247  -0.561   6.456  0.00  0.00    +0.056 N 
ATOM     22  O   UNL     1      -1.575  -1.556   6.255  0.00  0.00    -0.126 OA
ATOM     23  O   UNL     1      -2.681  -0.334   7.571  0.00  0.00    -0.126 OA
ENDBRANCH  19  21
ENDBRANCH   1  17
BRANCH   9  24
ATOM     24  S   UNL     1      -1.129   2.853  -4.787  0.00  0.00    +0.061 S 
ATOM     25  O   UNL     1      -2.170   3.695  -5.266  0.00  0.00    -0.153 OA
ATOM     26  O   UNL     1       0.221   3.288  -4.697  0.00  0.00    -0.153 OA
BRANCH  24  27
ATOM     27  N   UNL     1      -1.129   1.506  -5.751  0.00  0.00    -0.177 NA
ATOM     28  C   UNL     1       0.090   0.739  -5.869  0.00  0.00    +0.109 C 
ATOM     29  C   UNL     1       0.945   1.285  -7.032  0.00  0.00    +0.017 C 
ATOM     30  C   UNL     1       0.322   0.952  -8.322  0.00  0.00    +0.001 C 
ATOM     31  C   UNL     1      -1.054   1.576  -8.536  0.00  0.00    +0.001 C 
ATOM     32  C   UNL     1      -2.106   0.696  -7.907  0.00  0.00    +0.017 C 
ATOM     33  C   UNL     1      -2.372   1.142  -6.458  0.00  0.00    +0.109 C 
ENDBRANCH  24  27
ENDBRANCH   9  24
TORSDOF 4
