REMARK  Name = ZINC03036164
REMARK  4 active torsions:
REMARK  status: ('A' for Active; 'I' for Inactive)
REMARK    1  A    between atoms: C_1  and  C_2
REMARK    2  A    between atoms: C_5  and  C_8
REMARK    3  A    between atoms: N_12  and  C_23
REMARK    4  A    between atoms: N_16  and  C_17
REMARK                            x       y       z     vdW  Elec       q    Type
REMARK                         _______ _______ _______ _____ _____    ______ ____
ROOT
ATOM      1  C   UNL     1      -0.076   5.774   0.034  0.00  0.00    +0.193 C 
ATOM      2  C   UNL     1      -0.272   6.254   1.441  0.00  0.00    +0.241 C 
ATOM      3  O   UNL     1       0.682   6.265   2.189  0.00  0.00    -0.273 OA
ATOM      4  N   UNL     1      -1.454   6.670   1.904  0.00  0.00    -0.288 N 
ATOM      5  C   UNL     1      -2.659   6.695   1.086  0.00  0.00    +0.204 C 
ATOM      6  C   UNL     1      -2.326   6.663  -0.375  0.00  0.00    +0.234 C 
ATOM      7  O   UNL     1      -3.163   7.035  -1.171  0.00  0.00    -0.274 OA
ATOM      8  N   UNL     1      -1.145   6.242  -0.838  0.00  0.00    -0.282 N 
ENDROOT
BRANCH   1  13
ATOM      9  C   UNL     1       0.002  -0.004   0.002  0.00  0.00    +0.044 C 
ATOM     10  C   UNL     1      -0.018   1.503   0.010  0.00  0.00    -0.050 A 
ATOM     11  C   UNL     1      -1.225   2.178   0.020  0.00  0.00    +0.004 A 
ATOM     12  C   UNL     1      -1.244   3.560   0.033  0.00  0.00    +0.006 A 
ATOM     13  C   UNL     1      -0.056   4.267   0.025  0.00  0.00    -0.018 A 
ATOM     14  C   UNL     1       1.151   3.592   0.010  0.00  0.00    +0.006 A 
ATOM     15  C   UNL     1       1.169   2.210   0.003  0.00  0.00    +0.004 A 
ENDBRANCH   1  13
BRANCH   8  16
ATOM     16  C   UNL     1      -0.916   6.251  -2.285  0.00  0.00    +0.077 C 
ATOM     17  C   UNL     1      -1.054   7.679  -2.814  0.00  0.00    +0.022 C 
ATOM     18  C   UNL     1      -0.815   7.689  -4.325  0.00  0.00    +0.002 C 
ATOM     19  C   UNL     1      -1.845   6.789  -5.011  0.00  0.00    +0.000 C 
ATOM     20  C   UNL     1      -1.706   5.360  -4.481  0.00  0.00    +0.002 C 
ATOM     21  C   UNL     1      -1.946   5.351  -2.970  0.00  0.00    +0.022 C 
ENDBRANCH   8  16
BRANCH   4  22
ATOM     22  C   UNL     1      -1.542   7.123   3.295  0.00  0.00    +0.077 C 
ATOM     23  C   UNL     1      -0.601   8.310   3.505  0.00  0.00    +0.022 C 
ATOM     24  C   UNL     1      -0.692   8.782   4.958  0.00  0.00    +0.002 C 
ATOM     25  C   UNL     1      -0.289   7.640   5.892  0.00  0.00    +0.000 C 
ATOM     26  C   UNL     1      -1.230   6.452   5.681  0.00  0.00    +0.002 C 
ATOM     27  C   UNL     1      -1.139   5.980   4.229  0.00  0.00    +0.022 C 
ENDBRANCH   4  22
TORSDOF 3
