REMARK  Name = ZINC09395871
REMARK  10 active torsions:
REMARK  status: ('A' for Active; 'I' for Inactive)
REMARK    1  A    between atoms: C_1  and  C_2
REMARK    2  A    between atoms: C_2  and  C_3
REMARK    3  A    between atoms: C_3  and  N_4
REMARK    4  A    between atoms: C_17  and  S_18
REMARK    5  A    between atoms: S_18  and  C_19
REMARK    6  A    between atoms: C_19  and  C_21
REMARK    7  A    between atoms: C_19  and  C_22
REMARK    8  A    between atoms: N_24  and  C_25
REMARK    9  A    between atoms: C_30  and  C_35
REMARK   10  A    between atoms: C_32  and  C_34
REMARK                            x       y       z     vdW  Elec       q    Type
REMARK                         _______ _______ _______ _____ _____    ______ ____
ROOT
ATOM      1  N   UNL     1       2.385   1.467  -0.013  0.00  0.00    -0.277 N 
ATOM      2  C   UNL     1       2.475   0.121  -0.021  0.00  0.00    +0.263 A 
ATOM      3  O   UNL     1       3.562  -0.426  -0.034  0.00  0.00    -0.267 OA
ATOM      4  C   UNL     1       1.234  -0.675  -0.013  0.00  0.00    +0.064 A 
ATOM      5  C   UNL     1       1.269  -2.068  -0.022  0.00  0.00    +0.015 A 
ATOM      6  C   UNL     1       0.087  -2.779  -0.015  0.00  0.00    +0.001 A 
ATOM      7  C   UNL     1      -1.129  -2.115   0.001  0.00  0.00    +0.002 A 
ATOM      8  C   UNL     1      -1.176  -0.735   0.009  0.00  0.00    +0.027 A 
ATOM      9  C   UNL     1       0.002  -0.004   0.002  0.00  0.00    +0.064 A 
ATOM     10  N   UNL     1      -0.017   1.389   0.010  0.00  0.00    -0.256 N 
ATOM     11  C   UNL     1       1.152   2.100   0.002  0.00  0.00    +0.240 A 
ATOM     12  N   UNL     1       0.845   3.378   0.012  0.00  0.00    -0.109 NA
ATOM     13  N   UNL     1      -0.551   3.490   0.026  0.00  0.00    -0.120 NA
ATOM     14  C   UNL     1      -1.056   2.281   0.019  0.00  0.00    +0.198 A 
ENDROOT
BRANCH   1  15
ATOM     15  C   UNL     1       3.609   2.272  -0.020  0.00  0.00    +0.128 C 
BRANCH  15  17
ATOM     16  C   UNL     1       5.300   3.400  -1.473  0.00  0.00    +0.005 C 
ATOM     17  C   UNL     1       4.022   2.559  -1.465  0.00  0.00    +0.018 C 
ENDBRANCH  15  17
ENDBRANCH   1  15
BRANCH  14  18
ATOM     18  S   UNL     1      -2.770   1.873   0.024  0.00  0.00    -0.073 S 
BRANCH  18  19
ATOM     19  C   UNL     1      -3.603   3.485   0.036  0.00  0.00    +0.137 C 
ATOM     20  C   UNL     1      -3.302   4.225  -1.269  0.00  0.00    +0.029 C 
BRANCH  19  21
ATOM     21  C   UNL     1      -5.091   3.280   0.165  0.00  0.00    +0.226 C 
ATOM     22  O   UNL     1      -5.582   2.207  -0.118  0.00  0.00    -0.275 OA
ATOM     23  N   UNL     1      -5.875   4.288   0.595  0.00  0.00    -0.311 N 
ATOM     24  H   UNL     1      -5.482   5.145   0.821  0.00  0.00    +0.149 HD
BRANCH  23  25
ATOM     25  C   UNL     1      -7.321   4.088   0.720  0.00  0.00    +0.076 C 
ATOM     26  C   UNL     1      -7.990   4.340  -0.633  0.00  0.00    +0.022 C 
ATOM     27  C   UNL     1      -9.500   4.132  -0.502  0.00  0.00    +0.002 C 
ATOM     28  C   UNL     1     -10.062   5.108   0.534  0.00  0.00    +0.003 C 
ATOM     29  C   UNL     1      -9.393   4.856   1.887  0.00  0.00    -0.009 C 
ATOM     30  C   UNL     1      -7.883   5.064   1.756  0.00  0.00    +0.009 C 
ATOM     31  C   UNL     1      -7.603   6.500   1.308  0.00  0.00    +0.009 C 
ATOM     32  C   UNL     1      -9.954   5.832   2.923  0.00  0.00    +0.008 C 
ENDBRANCH  23  25
ENDBRANCH  19  21
ENDBRANCH  18  19
ENDBRANCH  14  18
TORSDOF 6
