REMARK  Name = ZINC63209773
REMARK  10 active torsions:
REMARK  status: ('A' for Active; 'I' for Inactive)
REMARK    1  A    between atoms: C_1  and  C_2
REMARK    2  A    between atoms: C_2  and  N_3
REMARK    3  A    between atoms: C_4  and  C_31
REMARK    4  A    between atoms: C_7  and  C_10
REMARK    5  A    between atoms: C_8  and  C_9
REMARK    6  A    between atoms: C_10  and  C_12
REMARK    7  A    between atoms: C_12  and  S_13
REMARK    8  A    between atoms: S_13  and  C_14
REMARK    9  A    between atoms: C_17  and  C_22
REMARK   10  A    between atoms: N_18  and  C_19
REMARK                            x       y       z     vdW  Elec       q    Type
REMARK                         _______ _______ _______ _____ _____    ______ ____
ROOT
ATOM      1  C   UNL     1       2.445  -2.715   8.258  0.00  0.00    +0.193 A 
ATOM      2  N   UNL     1       3.686  -2.882   7.823  0.00  0.00    -0.122 NA
ATOM      3  N   UNL     1       4.363  -3.568   8.672  0.00  0.00    -0.129 NA
ATOM      4  C   UNL     1       3.597  -3.885   9.706  0.00  0.00    +0.163 A 
ATOM      5  N   UNL     1       2.349  -3.338   9.464  0.00  0.00    -0.299 N 
ENDROOT
BRANCH   4   6
ATOM      6  C   UNL     1       3.980  -4.628  10.833  0.00  0.00    +0.025 C 
ATOM      7  C   UNL     1       5.235  -5.175  11.096  0.00  0.00    +0.006 A 
ATOM      8  C   UNL     1       6.449  -5.167  10.375  0.00  0.00    +0.010 A 
ATOM      9  C   UNL     1       7.539  -5.797  10.884  0.00  0.00    +0.001 A 
ATOM     10  C   UNL     1       7.494  -6.459  12.113  0.00  0.00    +0.002 A 
ATOM     11  C   UNL     1       6.362  -6.508  12.858  0.00  0.00    +0.026 A 
ATOM     12  C   UNL     1       5.183  -5.872  12.392  0.00  0.00    +0.043 A 
ATOM     13  N   UNL     1       3.978  -5.775  12.918  0.00  0.00    -0.380 N 
ATOM     14  C   UNL     1       3.118  -4.997  12.021  0.00  0.00    +0.152 C 
ATOM     15  H   UNL     1       3.704  -6.155  13.768  0.00  0.00    +0.160 HD
ENDBRANCH   4   6
BRANCH   5  16
ATOM     16  C   UNL     1       1.167  -3.417  10.327  0.00  0.00    +0.091 C 
ATOM     17  C   UNL     1      -0.189  -3.092   9.698  0.00  0.00    +0.027 C 
ATOM     18  C   UNL     1       0.457  -2.107  10.673  0.00  0.00    +0.027 C 
ENDBRANCH   5  16
BRANCH   1  19
ATOM     19  S   UNL     1       1.159  -1.841   7.430  0.00  0.00    -0.078 S 
BRANCH  19  20
ATOM     20  C   UNL     1       1.936  -1.265   5.896  0.00  0.00    +0.156 C 
BRANCH  20  21
ATOM     21  C   UNL     1       0.930  -0.492   5.082  0.00  0.00    +0.171 C 
ATOM     22  O   UNL     1      -0.202  -0.344   5.498  0.00  0.00    -0.291 OA
BRANCH  21  26
ATOM     23  N   UNL     1       1.112   1.179   1.891  0.00  0.00    -0.330 N 
ATOM     24  C   UNL     1       2.509   0.724   1.881  0.00  0.00    +0.075 C 
ATOM     25  C   UNL     1       2.668  -0.047   3.206  0.00  0.00    +0.062 C 
ATOM     26  C   UNL     1       1.301   0.057   3.846  0.00  0.00    +0.014 C 
ATOM     27  C   UNL     1       0.502   0.770   3.028  0.00  0.00    +0.010 C 
ATOM     28  C   UNL     1      -0.938   1.080   3.347  0.00  0.00    +0.061 C 
ATOM     29  C   UNL     1       3.461   1.921   1.837  0.00  0.00    +0.028 C 
BRANCH  23  31
ATOM     30  C   UNL     1       0.662   3.455   1.119  0.00  0.00    +0.024 C 
ATOM     31  C   UNL     1       0.476   1.964   0.831  0.00  0.00    +0.102 C 
ENDBRANCH  23  31
ENDBRANCH  21  26
ENDBRANCH  20  21
ENDBRANCH  19  20
ENDBRANCH   1  19
TORSDOF 7
