REMARK  Name = ZINC19802044
REMARK  6 active torsions:
REMARK  status: ('A' for Active; 'I' for Inactive)
REMARK    1  A    between atoms: C_1  and  C_2
REMARK    2  A    between atoms: C_3  and  C_23
REMARK    3  A    between atoms: C_4  and  C_16
REMARK    4  A    between atoms: C_10  and  C_14
REMARK    5  A    between atoms: C_10  and  C_15
REMARK    6  A    between atoms: C_19  and  O_22
REMARK                            x       y       z     vdW  Elec       q    Type
REMARK                         _______ _______ _______ _____ _____    ______ ____
ROOT
ATOM      1  C   UNL     1      -0.018   1.503   0.010  0.00  0.00    +0.061 C 
ATOM      2  C   UNL     1       0.002  -0.004   0.002  0.00  0.00    +0.019 C 
ATOM      3  C   UNL     1      -1.153  -0.686   0.004  0.00  0.00    +0.058 C 
ATOM      4  C   UNL     1      -1.173  -2.187  -0.010  0.00  0.00    +0.096 C 
ATOM      5  C   UNL     1       0.165  -2.749   0.402  0.00  0.00    +0.024 C 
ATOM      6  C   UNL     1       1.274  -1.979   0.378  0.00  0.00    +0.016 C 
ATOM      7  N   UNL     1       1.201  -0.669  -0.013  0.00  0.00    -0.320 N 
ATOM      8  C   UNL     1       2.618  -2.541   0.770  0.00  0.00    +0.058 C 
ATOM      9  C   UNL     1       2.430  -3.633   1.825  0.00  0.00    -0.023 C 
ATOM     10  C   UNL     1       1.520  -4.720   1.244  0.00  0.00    +0.086 C 
ATOM     11  C   UNL     1       0.223  -4.092   0.811  0.00  0.00    +0.162 C 
ATOM     12  O   UNL     1      -0.793  -4.759   0.814  0.00  0.00    -0.292 OA
ATOM     13  C   UNL     1       1.782  -3.034   3.075  0.00  0.00    +0.011 C 
ATOM     14  C   UNL     1       3.788  -4.239   2.186  0.00  0.00    +0.011 C 
ATOM     15  H   UNL     1       2.004  -0.206  -0.300  0.00  0.00    +0.152 HD
ENDROOT
BRANCH   4  16
ATOM     16  C   UNL     1      -1.502  -2.665  -1.400  0.00  0.00    -0.035 A 
ATOM     17  C   UNL     1      -0.677  -2.331  -2.458  0.00  0.00    +0.008 A 
ATOM     18  C   UNL     1      -0.978  -2.768  -3.734  0.00  0.00    +0.046 A 
ATOM     19  C   UNL     1      -2.108  -3.542  -3.953  0.00  0.00    +0.117 A 
ATOM     20  C   UNL     1      -2.934  -3.876  -2.889  0.00  0.00    +0.046 A 
ATOM     21  C   UNL     1      -2.626  -3.441  -1.615  0.00  0.00    +0.008 A 
BRANCH  19  22
ATOM     22  O   UNL     1      -2.406  -3.972  -5.207  0.00  0.00    -0.507 OA
ATOM     23  H   UNL     1      -2.018  -4.829  -5.432  0.00  0.00    +0.292 HD
ENDBRANCH  19  22
ENDBRANCH   4  16
BRANCH   3  24
ATOM     24  C   UNL     1      -2.393   0.031   0.019  0.00  0.00    +0.097 C 
ATOM     25  N   UNL     1      -3.375   0.601   0.032  0.00  0.00    -0.191 NA
ENDBRANCH   3  24
TORSDOF 3
