REMARK  Name = ZINC15955663
REMARK  5 active torsions:
REMARK  status: ('A' for Active; 'I' for Inactive)
REMARK    1  A    between atoms: C_11  and  C_27
REMARK    2  A    between atoms: N_19  and  C_23
REMARK    3  A    between atoms: C_23  and  C_24
REMARK    4  A    between atoms: C_24  and  C_25
REMARK    5  A    between atoms: C_25  and  O_26
REMARK                            x       y       z     vdW  Elec       q    Type
REMARK                         _______ _______ _______ _____ _____    ______ ____
ROOT
ATOM      1  C   UNL     1      -0.705   0.656   0.248  0.00  0.00    +0.001 A 
ATOM      2  C   UNL     1       0.350  -0.239   0.320  0.00  0.00    +0.002 A 
ATOM      3  C   UNL     1       1.671   0.172   0.302  0.00  0.00    +0.026 A 
ATOM      4  C   UNL     1       1.904   1.542   0.206  0.00  0.00    +0.047 A 
ATOM      5  C   UNL     1       0.820   2.455   0.132  0.00  0.00    +0.003 A 
ATOM      6  C   UNL     1      -0.505   2.011   0.152  0.00  0.00    +0.010 A 
ATOM      7  C   UNL     1       1.413   3.774   0.043  0.00  0.00    -0.015 A 
ATOM      8  C   UNL     1       2.753   3.607   0.066  0.00  0.00    +0.046 A 
ATOM      9  N   UNL     1       3.055   2.275   0.162  0.00  0.00    -0.356 N 
ATOM     10  H   UNL     1       3.952   1.907   0.193  0.00  0.00    +0.166 HD
ATOM     11  C   UNL     1       3.738   4.752  -0.004  0.00  0.00    +0.154 C 
ATOM     12  N   UNL     1       2.981   5.965  -0.378  0.00  0.00    -0.276 N 
ATOM     13  C   UNL     1       1.712   6.216   0.304  0.00  0.00    +0.167 C 
ATOM     14  C   UNL     1       0.716   5.106  -0.061  0.00  0.00    +0.069 C 
ATOM     15  C   UNL     1       1.142   7.546  -0.070  0.00  0.00    +0.237 C 
ATOM     16  O   UNL     1       0.128   7.907   0.490  0.00  0.00    -0.274 OA
ATOM     17  N   UNL     1       1.676   8.360  -0.978  0.00  0.00    -0.291 N 
ATOM     18  C   UNL     1       2.888   8.057  -1.721  0.00  0.00    +0.203 C 
ATOM     19  C   UNL     1       3.498   6.761  -1.297  0.00  0.00    +0.234 C 
ATOM     20  O   UNL     1       4.528   6.416  -1.838  0.00  0.00    -0.274 OA
ENDROOT
BRANCH  11  21
ATOM     21  C   UNL     1       4.390   4.950   1.341  0.00  0.00    -0.020 A 
ATOM     22  C   UNL     1       3.609   5.101   2.472  0.00  0.00    +0.006 A 
ATOM     23  C   UNL     1       4.206   5.282   3.705  0.00  0.00    +0.002 A 
ATOM     24  C   UNL     1       5.584   5.312   3.809  0.00  0.00    +0.020 A 
ATOM     25  C   UNL     1       6.366   5.161   2.677  0.00  0.00    +0.041 A 
ATOM     26  C   UNL     1       5.767   4.974   1.444  0.00  0.00    +0.025 A 
ATOM     27 CL   UNL     1       8.096   5.199   2.807  0.00  0.00    -0.084 Cl
ENDBRANCH  11  21
BRANCH  17  28
ATOM     28  C   UNL     1       1.003   9.633  -1.245  0.00  0.00    +0.110 C 
BRANCH  28  29
ATOM     29  C   UNL     1       1.558  10.709  -0.308  0.00  0.00    +0.047 C 
BRANCH  29  30
ATOM     30  C   UNL     1       0.855  12.039  -0.586  0.00  0.00    +0.157 C 
BRANCH  30  31
ATOM     31  O   UNL     1       1.372  13.043   0.289  0.00  0.00    -0.395 OA
ATOM     32  H   UNL     1       0.971  13.915   0.168  0.00  0.00    +0.209 HD
ENDBRANCH  30  31
ENDBRANCH  29  30
ENDBRANCH  28  29
ENDBRANCH  17  28
TORSDOF 5
