REMARK  Name = ZINC62641664
REMARK  4 active torsions:
REMARK  status: ('A' for Active; 'I' for Inactive)
REMARK    1  A    between atoms: C_1  and  C_2
REMARK    2  A    between atoms: C_3  and  N_14
REMARK    3  A    between atoms: C_7  and  N_8
REMARK    4  A    between atoms: C_15  and  C_17
REMARK                            x       y       z     vdW  Elec       q    Type
REMARK                         _______ _______ _______ _____ _____    ______ ____
ROOT
ATOM      1  N   UNL     1       0.176  -0.007  -2.403  0.00  0.00    -0.277 N 
ATOM      2  C   UNL     1       0.056  -0.652  -3.580  0.00  0.00    +0.303 C 
ATOM      3  O   UNL     1      -0.161  -1.846  -3.598  0.00  0.00    -0.265 OA
ATOM      4  H   UNL     1       0.241   0.961  -2.385  0.00  0.00    +0.155 HD
ENDROOT
BRANCH   2   5
ATOM      5  C   UNL     1       0.191   0.102  -4.862  0.00  0.00    +0.302 C 
ATOM      6  O   UNL     1       0.297   1.311  -4.847  0.00  0.00    -0.265 OA
ATOM      7  N   UNL     1       0.195  -0.560  -6.036  0.00  0.00    -0.290 N 
ATOM      8  C   UNL     1       0.184   0.204  -7.251  0.00  0.00    +0.112 C 
ATOM      9  C   UNL     1      -0.582  -0.461  -8.355  0.00  0.00    +0.007 C 
ATOM     10  C   UNL     1      -1.925  -1.005  -7.897  0.00  0.00    +0.008 C 
ATOM     11  C   UNL     1      -1.871  -2.415  -7.345  0.00  0.00    -0.009 C 
ATOM     12  C   UNL     1      -1.118  -3.350  -8.296  0.00  0.00    +0.007 C 
ATOM     13  C   UNL     1       0.296  -2.788  -8.457  0.00  0.00    -0.009 C 
ATOM     14  C   UNL     1       0.200  -1.444  -9.179  0.00  0.00    +0.008 C 
ATOM     15  C   UNL     1       0.996  -2.647  -7.125  0.00  0.00    +0.026 C 
ATOM     16  C   UNL     1       0.215  -2.012  -6.011  0.00  0.00    +0.077 C 
ATOM     17  C   UNL     1      -1.237  -2.507  -5.964  0.00  0.00    +0.026 C 
ENDBRANCH   2   5
BRANCH   1  20
ATOM     18  C   UNL     1      -0.580   1.324  -0.006  0.00  0.00    +0.047 C 
ATOM     19  C   UNL     1      -0.154  -0.121  -0.016  0.00  0.00    -0.008 A 
ATOM     20  C   UNL     1       0.208  -0.732  -1.209  0.00  0.00    +0.038 A 
ATOM     21  C   UNL     1       0.600  -2.064  -1.215  0.00  0.00    +0.024 A 
ATOM     22  C   UNL     1       0.631  -2.782  -0.034  0.00  0.00    +0.004 A 
ATOM     23  C   UNL     1       0.271  -2.177   1.155  0.00  0.00    +0.024 A 
ATOM     24  C   UNL     1      -0.116  -0.843   1.168  0.00  0.00    +0.041 A 
BRANCH  24  25
ATOM     25  N   UNL     1      -0.474  -0.230   2.374  0.00  0.00    -0.271 N 
ATOM     26  C   UNL     1      -1.836  -0.210   2.921  0.00  0.00    +0.114 C 
ATOM     27  C   UNL     1      -1.677   0.167   4.410  0.00  0.00    +0.029 C 
ATOM     28  C   UNL     1      -0.341   0.946   4.397  0.00  0.00    +0.098 C 
ATOM     29  C   UNL     1       0.386   0.412   3.183  0.00  0.00    +0.220 C 
ATOM     30  O   UNL     1       1.572   0.546   2.969  0.00  0.00    -0.275 OA
ENDBRANCH  24  25
ENDBRANCH   1  20
TORSDOF 3
