REMARK  Name = ZINC02568809
REMARK  2 active torsions:
REMARK  status: ('A' for Active; 'I' for Inactive)
REMARK    1  A    between atoms: C_4  and  C_8
REMARK    2  A    between atoms: N_9  and  N_10
REMARK                            x       y       z     vdW  Elec       q    Type
REMARK                         _______ _______ _______ _____ _____    ______ ____
ROOT
ATOM      1  C   UNL     1       3.695  -0.682  -0.038  0.00  0.00    +0.141 C 
ATOM      2  N   UNL     1       3.716  -1.980  -0.046  0.00  0.00    -0.188 NA
ENDROOT
BRANCH   1   6
ATOM      3  C   UNL     1      -0.017   1.379   0.010  0.00  0.00    +0.003 A 
ATOM      4  C   UNL     1       1.168   2.095   0.002  0.00  0.00    +0.021 A 
ATOM      5  C   UNL     1       2.378   1.431  -0.013  0.00  0.00    +0.051 A 
ATOM      6  C   UNL     1       2.406   0.034  -0.021  0.00  0.00    +0.031 A 
ATOM      7  C   UNL     1       1.205  -0.682  -0.013  0.00  0.00    +0.051 A 
ATOM      8  C   UNL     1       0.002  -0.004   0.002  0.00  0.00    +0.021 A 
ATOM      9 CL   UNL     1       1.226  -2.417  -0.023  0.00  0.00    -0.083 Cl
ATOM     10 CL   UNL     1       3.863   2.331  -0.024  0.00  0.00    -0.083 Cl
ENDBRANCH   1   6
BRANCH   2  11
ATOM     11  N   UNL     1       4.941  -2.660  -0.062  0.00  0.00    -0.217 N 
ATOM     12  C   UNL     1       4.963  -4.025  -0.069  0.00  0.00    +0.166 C 
ATOM     13  N   UNL     1       3.934  -4.862  -0.069  0.00  0.00    -0.157 NA
ATOM     14  C   UNL     1       4.039  -6.162  -0.077  0.00  0.00    +0.248 C 
ATOM     15  O   UNL     1       3.068  -6.893  -0.076  0.00  0.00    -0.273 OA
ATOM     16  C   UNL     1       5.465  -6.701  -0.086  0.00  0.00    +0.174 C 
ATOM     17  S   UNL     1       6.387  -5.106  -0.090  0.00  0.00    -0.082 S 
ATOM     18  H   UNL     1       5.773  -2.161  -0.068  0.00  0.00    +0.176 HD
ENDBRANCH   2  11
TORSDOF 2
