REMARK  Name = ZINC56941633
REMARK  4 active torsions:
REMARK  status: ('A' for Active; 'I' for Inactive)
REMARK    1  A    between atoms: C_1  and  C_2
REMARK    2  A    between atoms: C_2  and  C_4
REMARK    3  A    between atoms: C_2  and  N_12
REMARK    4  A    between atoms: C_19  and  O_22
REMARK                            x       y       z     vdW  Elec       q    Type
REMARK                         _______ _______ _______ _____ _____    ______ ____
ROOT
ATOM      1  N   UNL     1       0.711  -0.489   1.189  0.00  0.00    -0.293 N 
ATOM      2  C   UNL     1       2.054  -0.600   1.174  0.00  0.00    +0.303 C 
ATOM      3  O   UNL     1       2.670  -0.385   0.148  0.00  0.00    -0.253 OA
ATOM      4  N   UNL     1       2.714  -0.949   2.296  0.00  0.00    -0.283 N 
ATOM      5  C   UNL     1       4.183  -0.962   2.326  0.00  0.00    +0.109 C 
ATOM      6  C   UNL     1       4.659  -0.106   3.505  0.00  0.00    +0.022 C 
ATOM      7  C   UNL     1       3.998  -0.605   4.792  0.00  0.00    +0.034 C 
ATOM      8  C   UNL     1       2.479  -0.465   4.676  0.00  0.00    +0.132 C 
ATOM      9  C   UNL     1       1.978  -1.319   3.513  0.00  0.00    +0.140 C 
ATOM     10  H   UNL     1       0.213  -0.731   1.986  0.00  0.00    +0.151 HD
ENDROOT
BRANCH   1  12
ATOM     11  C   UNL     1      -0.018   1.528   0.013  0.00  0.00    +0.033 C 
ATOM     12  C   UNL     1       0.002  -0.002   0.003  0.00  0.00    +0.102 C 
BRANCH  12  13
ATOM     13  C   UNL     1      -1.412  -0.523   0.013  0.00  0.00    -0.026 A 
ATOM     14  C   UNL     1      -2.122  -0.568   1.198  0.00  0.00    +0.008 A 
ATOM     15  C   UNL     1      -3.419  -1.045   1.209  0.00  0.00    +0.040 A 
ATOM     16  C   UNL     1      -4.008  -1.478   0.033  0.00  0.00    +0.142 A 
ATOM     17  C   UNL     1      -3.295  -1.431  -1.154  0.00  0.00    +0.076 A 
ATOM     18  C   UNL     1      -1.999  -0.949  -1.163  0.00  0.00    +0.028 A 
ATOM     19 CL   UNL     1      -4.031  -1.973  -2.630  0.00  0.00    -0.081 Cl
ATOM     20  F   UNL     1      -5.276  -1.944   0.043  0.00  0.00    -0.204 F 
ENDBRANCH  12  13
ENDBRANCH   1  12
BRANCH   8  21
ATOM     21  O   UNL     1       1.865  -0.902   5.890  0.00  0.00    -0.390 OA
ATOM     22  H   UNL     1       0.900  -0.841   5.887  0.00  0.00    +0.210 HD
ENDBRANCH   8  21
TORSDOF 3
