REMARK  Name = ZINC00115279
REMARK  6 active torsions:
REMARK  status: ('A' for Active; 'I' for Inactive)
REMARK    1  A    between atoms: C_1  and  C_2
REMARK    2  A    between atoms: C_2  and  O_3
REMARK    3  A    between atoms: O_3  and  C_4
REMARK    4  A    between atoms: C_9  and  C_10
REMARK    5  A    between atoms: C_11  and  O_22
REMARK    6  A    between atoms: C_16  and  C_21
REMARK                            x       y       z     vdW  Elec       q    Type
REMARK                         _______ _______ _______ _____ _____    ______ ____
ROOT
ATOM      1  C   UNL     1       1.843   1.831  -1.192  0.00  0.00    +0.184 A 
ATOM      2  C   UNL     1       1.310   1.376  -0.010  0.00  0.00    +0.208 A 
ATOM      3  C   UNL     1       1.969   1.673   1.209  0.00  0.00    +0.234 A 
ATOM      4  O   UNL     1       1.524   1.291   2.279  0.00  0.00    -0.283 OA
ATOM      5  C   UNL     1       3.217   2.456   1.133  0.00  0.00    +0.068 A 
ATOM      6  C   UNL     1       3.932   2.789   2.282  0.00  0.00    +0.018 A 
ATOM      7  C   UNL     1       5.090   3.528   2.173  0.00  0.00    -0.050 A 
ATOM      8  C   UNL     1       5.543   3.939   0.927  0.00  0.00    +0.007 A 
ATOM      9  C   UNL     1       4.845   3.616  -0.216  0.00  0.00    +0.047 A 
ATOM     10  C   UNL     1       3.674   2.872  -0.128  0.00  0.00    +0.140 A 
ATOM     11  O   UNL     1       2.978   2.548  -1.238  0.00  0.00    -0.451 OA
ATOM     12  C   UNL     1       5.868   3.891   3.412  0.00  0.00    +0.044 C 
ENDROOT
BRANCH   1  18
ATOM     13  C   UNL     1       1.859   1.008  -3.546  0.00  0.00    +0.131 A 
ATOM     14  C   UNL     1       1.193   0.716  -4.725  0.00  0.00    +0.046 A 
ATOM     15  C   UNL     1      -0.167   0.940  -4.826  0.00  0.00    +0.004 A 
ATOM     16  C   UNL     1      -0.875   1.452  -3.751  0.00  0.00    +0.001 A 
ATOM     17  C   UNL     1      -0.229   1.743  -2.568  0.00  0.00    +0.015 A 
ATOM     18  C   UNL     1       1.146   1.521  -2.453  0.00  0.00    +0.063 A 
BRANCH  13  19
ATOM     19  O   UNL     1       3.196   0.793  -3.447  0.00  0.00    -0.492 OA
BRANCH  19  21
ATOM     20  C   UNL     1       5.346   0.096  -4.302  0.00  0.00    +0.048 C 
ATOM     21  C   UNL     1       3.856   0.269  -4.601  0.00  0.00    +0.226 C 
ENDBRANCH  19  21
ENDBRANCH  13  19
ENDBRANCH   1  18
BRANCH   2  22
ATOM     22  O   UNL     1       0.157   0.653  -0.009  0.00  0.00    -0.501 OA
ATOM     23  H   UNL     1       0.291  -0.302  -0.085  0.00  0.00    +0.292 HD
ENDBRANCH   2  22
TORSDOF 4
