REMARK  Name = ZINC13197828
REMARK  7 active torsions:
REMARK  status: ('A' for Active; 'I' for Inactive)
REMARK    1  A    between atoms: C_1  and  N_2
REMARK    2  A    between atoms: N_2  and  C_3
REMARK    3  A    between atoms: N_2  and  S_12
REMARK    4  A    between atoms: C_3  and  C_4
REMARK    5  A    between atoms: S_12  and  C_15
REMARK    6  A    between atoms: C_18  and  O_23
REMARK    7  A    between atoms: C_19  and  C_21
REMARK                            x       y       z     vdW  Elec       q    Type
REMARK                         _______ _______ _______ _____ _____    ______ ____
ROOT
ATOM      1  S   UNL     1      -0.017   1.417   0.010  0.00  0.00    +0.061 S 
ATOM      2  O   UNL     1       0.002  -0.004   0.002  0.00  0.00    -0.153 OA
ATOM      3  O   UNL     1       1.172   2.195   0.003  0.00  0.00    -0.153 OA
ENDROOT
BRANCH   1   4
ATOM      4  C   UNL     1      -0.927   1.900   1.439  0.00  0.00    +0.106 A 
ATOM      5  C   UNL     1      -0.714   3.148   2.003  0.00  0.00    +0.032 A 
ATOM      6  C   UNL     1      -1.424   3.541   3.120  0.00  0.00    +0.048 A 
ATOM      7  C   UNL     1      -2.349   2.681   3.693  0.00  0.00    +0.131 A 
ATOM      8  C   UNL     1      -2.564   1.415   3.130  0.00  0.00    +0.106 A 
ATOM      9  C   UNL     1      -1.842   1.033   1.995  0.00  0.00    +0.047 A 
BRANCH   8  10
ATOM     10  C   UNL     1      -3.545   0.493   3.729  0.00  0.00    +0.390 C 
ATOM     11  O   UNL     1      -4.170   0.829   4.716  0.00  0.00    -0.240 OA
ATOM     12  O   UNL     1      -3.748  -0.722   3.184  0.00  0.00    -0.240 OA
ENDBRANCH   8  10
BRANCH   7  13
ATOM     13  O   UNL     1      -3.043   3.063   4.794  0.00  0.00    -0.506 OA
ATOM     14  H   UNL     1      -2.612   2.837   5.629  0.00  0.00    +0.292 HD
ENDBRANCH   7  13
ENDBRANCH   1   4
BRANCH   1  16
ATOM     15  C   UNL     1      -1.883   0.973  -1.897  0.00  0.00    +0.132 C 
ATOM     16  N   UNL     1      -0.897   1.885  -1.312  0.00  0.00    -0.175 NA
BRANCH  16  17
ATOM     17  C   UNL     1      -0.691   3.213  -1.897  0.00  0.00    +0.144 C 
BRANCH  17  18
ATOM     18  C   UNL     1       0.291   3.113  -3.035  0.00  0.00    -0.030 A 
ATOM     19  C   UNL     1       1.644   3.268  -2.796  0.00  0.00    +0.006 A 
ATOM     20  C   UNL     1       2.547   3.171  -3.838  0.00  0.00    +0.022 A 
ATOM     21  C   UNL     1       2.096   2.930  -5.123  0.00  0.00    +0.059 A 
ATOM     22  C   UNL     1       0.741   2.781  -5.364  0.00  0.00    +0.060 A 
ATOM     23  C   UNL     1      -0.161   2.873  -4.319  0.00  0.00    +0.026 A 
ATOM     24 CL   UNL     1       0.173   2.478  -6.976  0.00  0.00    -0.082 Cl
ATOM     25 CL   UNL     1       3.228   2.815  -6.434  0.00  0.00    -0.082 Cl
ENDBRANCH  17  18
ENDBRANCH  16  17
ENDBRANCH   1  16
TORSDOF 6
