REMARK  Name = ZINC35482424
REMARK  3 active torsions:
REMARK  status: ('A' for Active; 'I' for Inactive)
REMARK    1  A    between atoms: C_5  and  S_8
REMARK    2  A    between atoms: S_8  and  N_11
REMARK    3  A    between atoms: C_15  and  C_17
REMARK                            x       y       z     vdW  Elec       q    Type
REMARK                         _______ _______ _______ _____ _____    ______ ____
ROOT
ATOM      1  S   UNL     1       0.391  -3.275  -0.950  0.00  0.00    +0.063 S 
ATOM      2  O   UNL     1       1.713  -2.859  -1.264  0.00  0.00    -0.153 OA
ATOM      3  O   UNL     1      -0.758  -2.604  -1.449  0.00  0.00    -0.153 OA
ENDROOT
BRANCH   1   8
ATOM      4  C   UNL     1       1.149  -7.181  -1.531  0.00  0.00    +0.049 A 
ATOM      5  C   UNL     1       0.053  -7.596  -2.268  0.00  0.00    +0.077 A 
ATOM      6  C   UNL     1      -0.946  -6.684  -2.605  0.00  0.00    +0.144 A 
ATOM      7  C   UNL     1      -0.841  -5.364  -2.201  0.00  0.00    +0.077 A 
ATOM      8  C   UNL     1       0.257  -4.955  -1.464  0.00  0.00    +0.127 A 
ATOM      9  C   UNL     1       1.249  -5.860  -1.131  0.00  0.00    +0.069 A 
ATOM     10 CL   UNL     1       2.623  -5.336  -0.207  0.00  0.00    -0.081 Cl
ATOM     11  O   UNL     1      -2.017  -7.103  -3.331  0.00  0.00    -0.481 OA
ATOM     12  C   UNL     1      -1.780  -8.141  -4.285  0.00  0.00    +0.325 C 
ATOM     13  C   UNL     1      -0.962  -9.236  -3.649  0.00  0.00    +0.255 C 
ATOM     14  O   UNL     1      -1.105 -10.387  -4.003  0.00  0.00    -0.272 OA
ATOM     15  N   UNL     1      -0.068  -8.929  -2.684  0.00  0.00    -0.280 N 
ATOM     16  H   UNL     1       0.481  -9.621  -2.284  0.00  0.00    +0.155 HD
ENDBRANCH   1   8
BRANCH   1  17
ATOM     17  N   UNL     1       0.269  -3.258   0.701  0.00  0.00    -0.165 NA
ATOM     18  C   UNL     1       1.401  -3.241   1.646  0.00  0.00    +0.110 C 
ATOM     19  C   UNL     1       0.826  -2.617   2.942  0.00  0.00    +0.019 C 
ATOM     20  C   UNL     1      -0.608  -3.209   2.964  0.00  0.00    +0.031 C 
ATOM     21  C   UNL     1      -0.985  -3.250   1.468  0.00  0.00    +0.166 C 
BRANCH  21  22
ATOM     22  C   UNL     1      -1.798  -2.033   1.108  0.00  0.00    +0.235 C 
ATOM     23  O   UNL     1      -1.246  -1.034   0.700  0.00  0.00    -0.274 OA
ATOM     24  N   UNL     1      -3.139  -2.055   1.241  0.00  0.00    -0.296 N 
ATOM     25  C   UNL     1      -3.832  -3.254   1.740  0.00  0.00    +0.136 C 
ATOM     26  C   UNL     1      -4.773  -2.832   2.874  0.00  0.00    +0.179 C 
ATOM     27  O   UNL     1      -5.605  -1.761   2.421  0.00  0.00    -0.377 OA
ATOM     28  C   UNL     1      -4.890  -0.575   2.066  0.00  0.00    +0.179 C 
ATOM     29  C   UNL     1      -3.954  -0.880   0.896  0.00  0.00    +0.136 C 
ENDBRANCH  21  22
ENDBRANCH   1  17
TORSDOF 3
