REMARK  Name = ZINC06441976
REMARK  7 active torsions:
REMARK  status: ('A' for Active; 'I' for Inactive)
REMARK    1  A    between atoms: C_1  and  C_2
REMARK    2  A    between atoms: C_7  and  C_15
REMARK    3  A    between atoms: C_13  and  C_14
REMARK    4  A    between atoms: C_15  and  C_17
REMARK    5  A    between atoms: C_15  and  N_28
REMARK    6  A    between atoms: N_21  and  C_22
REMARK    7  A    between atoms: C_36  and  C_38
REMARK                            x       y       z     vdW  Elec       q    Type
REMARK                         _______ _______ _______ _____ _____    ______ ____
ROOT
ATOM      1  C   UNL     1      -3.729   6.022   0.070  0.00  0.00    +0.179 C 
ENDROOT
BRANCH   1   8
ATOM      2  C   UNL     1       2.385   0.901   0.031  0.00  0.00    +0.044 C 
ATOM      3  C   UNL     1       1.095   1.679   0.026  0.00  0.00    -0.046 A 
ATOM      4  C   UNL     1      -0.116   1.001  -0.035  0.00  0.00    +0.004 A 
ATOM      5  C   UNL     1      -1.297   1.687  -0.045  0.00  0.00    +0.010 A 
ATOM      6  C   UNL     1      -1.288   3.084   0.018  0.00  0.00    -0.001 A 
ATOM      7  C   UNL     1      -2.535   3.851   0.015  0.00  0.00    +0.021 A 
ATOM      8  C   UNL     1      -2.464   5.204   0.072  0.00  0.00    +0.045 A 
ATOM      9  C   UNL     1      -1.210   5.848   0.133  0.00  0.00    +0.255 A 
ATOM     10  O   UNL     1      -1.169   7.065   0.183  0.00  0.00    -0.268 OA
ATOM     11  N   UNL     1      -0.059   5.152   0.136  0.00  0.00    -0.322 N 
ATOM     12  H   UNL     1       0.786   5.627   0.179  0.00  0.00    +0.169 HD
ATOM     13  C   UNL     1      -0.063   3.775   0.080  0.00  0.00    +0.052 A 
ATOM     14  C   UNL     1       1.128   3.055   0.084  0.00  0.00    -0.024 A 
ATOM     15  C   UNL     1       2.448   3.778   0.150  0.00  0.00    +0.046 C 
ENDBRANCH   1   8
BRANCH   1  16
ATOM     16  N   UNL     1      -3.771   6.862   1.274  0.00  0.00    -0.312 N 
ATOM     17  C   UNL     1      -4.952   7.614   1.321  0.00  0.00    +0.034 A 
ATOM     18  C   UNL     1      -5.636   8.271   0.299  0.00  0.00    +0.023 A 
ATOM     19  C   UNL     1      -6.794   8.967   0.576  0.00  0.00    +0.002 A 
ATOM     20  C   UNL     1      -7.285   9.018   1.868  0.00  0.00    +0.000 A 
ATOM     21  C   UNL     1      -6.613   8.367   2.886  0.00  0.00    +0.005 A 
ATOM     22  C   UNL     1      -5.456   7.667   2.615  0.00  0.00    -0.025 A 
ATOM     23  C   UNL     1      -4.530   6.868   3.510  0.00  0.00    +0.059 C 
ATOM     24  C   UNL     1      -3.709   6.036   2.499  0.00  0.00    +0.076 C 
ATOM     25  C   UNL     1      -2.263   5.878   2.974  0.00  0.00    +0.028 C 
ENDBRANCH   1  16
BRANCH   1  26
ATOM     26  C   UNL     1      -3.758   6.899  -1.156  0.00  0.00    +0.177 A 
ATOM     27  N   UNL     1      -3.057   7.989  -1.355  0.00  0.00    -0.111 NA
ATOM     28  N   UNL     1      -3.361   8.450  -2.519  0.00  0.00    -0.023 NA
ATOM     29  N   UNL     1      -4.237   7.683  -3.068  0.00  0.00    -0.044 NA
ATOM     30  N   UNL     1      -4.504   6.713  -2.260  0.00  0.00    -0.224 N 
BRANCH  30  31
ATOM     31  C   UNL     1      -5.445   5.615  -2.500  0.00  0.00    +0.111 C 
ATOM     32  C   UNL     1      -5.008   4.830  -3.738  0.00  0.00    +0.027 C 
ATOM     33  C   UNL     1      -5.991   3.684  -3.988  0.00  0.00    +0.002 C 
ATOM     34  C   UNL     1      -7.393   4.254  -4.214  0.00  0.00    +0.000 C 
ATOM     35  C   UNL     1      -7.829   5.040  -2.975  0.00  0.00    +0.002 C 
ATOM     36  C   UNL     1      -6.847   6.186  -2.726  0.00  0.00    +0.027 C 
ENDBRANCH  30  31
ENDBRANCH   1  26
TORSDOF 4
