REMARK  Name = ZINC63525526
REMARK  3 active torsions:
REMARK  status: ('A' for Active; 'I' for Inactive)
REMARK    1  A    between atoms: C_1  and  C_2
REMARK    2  A    between atoms: C_5  and  C_8
REMARK    3  A    between atoms: C_11  and  C_21
REMARK                            x       y       z     vdW  Elec       q    Type
REMARK                         _______ _______ _______ _____ _____    ______ ____
ROOT
ATOM      1  C   UNL     1       0.059  -4.275  -0.021  0.00  0.00    +0.108 C 
ATOM      2  C   UNL     1       1.290  -4.780   0.706  0.00  0.00    +0.014 C 
ATOM      3  C   UNL     1       2.499  -4.263   0.803  0.00  0.00    +0.064 C 
ATOM      4  N   UNL     1       3.312  -5.104   1.493  0.00  0.00    -0.157 NA
ATOM      5  N   UNL     1       2.760  -6.137   1.894  0.00  0.00    -0.160 NA
ATOM      6  C   UNL     1       1.348  -6.069   1.494  0.00  0.00    +0.244 C 
ATOM      7  N   UNL     1       0.972  -7.155   0.605  0.00  0.00    -0.288 N 
ATOM      8  C   UNL     1      -0.240  -7.353   0.132  0.00  0.00    +0.225 C 
ATOM      9  O   UNL     1      -0.327  -8.277  -0.649  0.00  0.00    -0.275 OA
ATOM     10  C   UNL     1      -1.499  -6.656   0.383  0.00  0.00    +0.165 C 
ATOM     11  S   UNL     1      -1.396  -4.921   0.871  0.00  0.00    -0.139 S 
ATOM     12  C   UNL     1       2.918  -2.934   0.231  0.00  0.00    +0.067 C 
ATOM     13  H   UNL     1       1.665  -7.780   0.340  0.00  0.00    +0.151 HD
ENDROOT
BRANCH   1  18
ATOM     14  C   UNL     1      -0.018   1.503   0.010  0.00  0.00    +0.044 C 
ATOM     15  C   UNL     1       0.002  -0.004   0.002  0.00  0.00    -0.050 A 
ATOM     16  C   UNL     1       0.006  -0.689  -1.199  0.00  0.00    +0.003 A 
ATOM     17  C   UNL     1       0.025  -2.071  -1.206  0.00  0.00    +0.005 A 
ATOM     18  C   UNL     1       0.040  -2.768  -0.013  0.00  0.00    -0.030 A 
ATOM     19  C   UNL     1       0.037  -2.084   1.188  0.00  0.00    +0.005 A 
ATOM     20  C   UNL     1       0.023  -0.702   1.195  0.00  0.00    +0.003 A 
ENDBRANCH   1  18
TORSDOF 1
