REMARK  Name = ZINC39527506
REMARK  2 active torsions:
REMARK  status: ('A' for Active; 'I' for Inactive)
REMARK    1  A    between atoms: C_8  and  C_12
REMARK    2  A    between atoms: C_18  and  C_20
REMARK                            x       y       z     vdW  Elec       q    Type
REMARK                         _______ _______ _______ _____ _____    ______ ____
ROOT
ATOM      1  C   UNL     1       2.632  -4.207  -0.182  0.00  0.00    +0.223 C 
ATOM      2  O   UNL     1       1.734  -4.763   0.414  0.00  0.00    -0.275 OA
ATOM      3  N   UNL     1       3.705  -4.911  -0.591  0.00  0.00    -0.294 N 
ATOM      4  C   UNL     1       4.913  -4.347  -1.222  0.00  0.00    +0.108 C 
ATOM      5  C   UNL     1       6.031  -5.379  -0.931  0.00  0.00    +0.021 C 
ATOM      6  C   UNL     1       5.258  -6.719  -1.052  0.00  0.00    +0.029 C 
ATOM      7  C   UNL     1       3.870  -6.368  -0.477  0.00  0.00    +0.113 C 
ENDROOT
BRANCH   1  15
ATOM      8  C   UNL     1      -0.321   1.109  -1.301  0.00  0.00    +0.000 A 
ATOM      9  C   UNL     1       0.641   1.916  -0.723  0.00  0.00    +0.004 A 
ATOM     10  C   UNL     1       1.761   1.350  -0.149  0.00  0.00    +0.046 A 
ATOM     11  C   UNL     1       1.925  -0.032  -0.149  0.00  0.00    +0.124 A 
ATOM     12  C   UNL     1       0.959  -0.837  -0.725  0.00  0.00    -0.005 A 
ATOM     13  C   UNL     1      -0.162  -0.263  -1.302  0.00  0.00    +0.007 A 
ATOM     14  C   UNL     1       1.092  -2.339  -0.736  0.00  0.00    +0.055 C 
ATOM     15  C   UNL     1       2.547  -2.729  -0.464  0.00  0.00    +0.117 C 
ATOM     16  C   UNL     1       3.038  -1.940   0.756  0.00  0.00    +0.242 C 
ATOM     17  O   UNL     1       3.043  -0.551   0.421  0.00  0.00    -0.491 OA
ENDBRANCH   1  15
BRANCH   7  18
ATOM     18  C   UNL     1       2.797  -7.068  -1.271  0.00  0.00    +0.010 A 
ATOM     19  C   UNL     1       2.088  -8.179  -0.953  0.00  0.00    +0.013 A 
ATOM     20  C   UNL     1       1.142  -8.648  -1.844  0.00  0.00    +0.008 A 
ATOM     21  C   UNL     1       0.951  -7.984  -3.011  0.00  0.00    +0.045 A 
ATOM     22  S   UNL     1       2.126  -6.647  -2.870  0.00  0.00    -0.100 S 
ENDBRANCH   7  18
TORSDOF 2
