REMARK  Name = ZINC38922750
REMARK  6 active torsions:
REMARK  status: ('A' for Active; 'I' for Inactive)
REMARK    1  A    between atoms: C_1  and  C_2
REMARK    2  A    between atoms: C_5  and  C_29
REMARK    3  A    between atoms: C_6  and  C_8
REMARK    4  A    between atoms: C_10  and  C_13
REMARK    5  A    between atoms: N_18  and  C_20
REMARK    6  A    between atoms: C_20  and  C_21
REMARK                            x       y       z     vdW  Elec       q    Type
REMARK                         _______ _______ _______ _____ _____    ______ ____
ROOT
ATOM      1  C   UNL     1      -0.459  -2.187   6.237  0.00  0.00    +0.104 C 
ATOM      2  C   UNL     1      -1.715  -2.796   6.902  0.00  0.00    +0.110 C 
ATOM      3  C   UNL     1      -1.264  -3.134   8.306  0.00  0.00    +0.217 C 
ATOM      4  O   UNL     1      -2.006  -3.370   9.236  0.00  0.00    -0.276 OA
ATOM      5  N   UNL     1       0.078  -3.135   8.372  0.00  0.00    -0.296 N 
ATOM      6  C   UNL     1       0.677  -2.819   7.070  0.00  0.00    +0.121 C 
ENDROOT
BRANCH   1   9
ATOM      7  C   UNL     1      -0.199  -2.496   2.630  0.00  0.00    +0.202 A 
ATOM      8  N   UNL     1      -0.269  -1.791   3.773  0.00  0.00    -0.191 NA
ATOM      9  C   UNL     1      -0.362  -2.599   4.790  0.00  0.00    +0.233 A 
ATOM     10  O   UNL     1      -0.355  -3.858   4.335  0.00  0.00    -0.337 OA
ATOM     11  N   UNL     1      -0.254  -3.772   2.921  0.00  0.00    -0.056 NA
BRANCH   7  17
ATOM     12  C   UNL     1      -1.679  -2.363  -2.137  0.00  0.00    +0.044 C 
ATOM     13  C   UNL     1      -0.794  -1.857  -1.027  0.00  0.00    -0.050 A 
ATOM     14  C   UNL     1       0.127  -0.856  -1.280  0.00  0.00    +0.003 A 
ATOM     15  C   UNL     1       0.942  -0.387  -0.266  0.00  0.00    +0.004 A 
ATOM     16  C   UNL     1       0.840  -0.916   1.005  0.00  0.00    -0.040 A 
ATOM     17  C   UNL     1      -0.086  -1.924   1.265  0.00  0.00    +0.026 A 
ATOM     18  C   UNL     1      -0.908  -2.389   0.241  0.00  0.00    +0.015 A 
ATOM     19  C   UNL     1       1.730  -0.404   2.108  0.00  0.00    +0.044 C 
ENDBRANCH   7  17
ENDBRANCH   1   9
BRANCH   5  20
ATOM     20  C   UNL     1       0.845  -3.415   9.589  0.00  0.00    +0.145 C 
BRANCH  20  21
ATOM     21  C   UNL     1       1.124  -4.894   9.678  0.00  0.00    +0.005 A 
ATOM     22  C   UNL     1       0.345  -5.696  10.491  0.00  0.00    +0.011 A 
ATOM     23  C   UNL     1       0.599  -7.051  10.573  0.00  0.00    +0.039 A 
ATOM     24  C   UNL     1       1.634  -7.608   9.841  0.00  0.00    +0.126 A 
ATOM     25  C   UNL     1       2.414  -6.806   9.027  0.00  0.00    +0.077 A 
ATOM     26  C   UNL     1       2.155  -5.449   8.941  0.00  0.00    +0.131 A 
ATOM     27  F   UNL     1       2.913  -4.666   8.141  0.00  0.00    -0.205 F 
ATOM     28  F   UNL     1       1.883  -8.934   9.922  0.00  0.00    -0.205 F 
ENDBRANCH  20  21
ENDBRANCH   5  20
TORSDOF 4
