REMARK  Name = ZINC35393392
REMARK  11 active torsions:
REMARK  status: ('A' for Active; 'I' for Inactive)
REMARK    1  A    between atoms: C_1  and  C_2
REMARK    2  A    between atoms: C_5  and  C_8
REMARK    3  A    between atoms: C_10  and  O_25
REMARK    4  A    between atoms: N_12  and  C_13
REMARK    5  A    between atoms: C_16  and  N_19
REMARK    6  A    between atoms: C_20  and  C_22
REMARK    7  A    between atoms: C_22  and  C_23
REMARK    8  A    between atoms: C_22  and  C_24
REMARK    9  A    between atoms: O_25  and  C_26
REMARK   10  A    between atoms: C_26  and  C_27
REMARK   11  A    between atoms: C_26  and  C_28
REMARK                            x       y       z     vdW  Elec       q    Type
REMARK                         _______ _______ _______ _____ _____    ______ ____
ROOT
ATOM      1  C   UNL     1       0.056  -4.293  -0.014  0.00  0.00    +0.167 A 
ATOM      2  N   UNL     1      -0.297  -5.076  -1.014  0.00  0.00    -0.174 NA
ATOM      3  C   UNL     1      -0.147  -6.353  -0.661  0.00  0.00    +0.338 A 
ATOM      4  N   UNL     1       0.303  -6.411   0.570  0.00  0.00    -0.108 NA
ATOM      5  N   UNL     1       0.451  -5.088   1.016  0.00  0.00    -0.209 N 
ENDROOT
BRANCH   1  10
ATOM      6  C   UNL     1      -0.034   1.462  -0.017  0.00  0.00    +0.044 C 
ATOM      7  C   UNL     1      -0.010  -0.045  -0.017  0.00  0.00    -0.050 A 
ATOM      8  C   UNL     1       0.841  -0.720   0.840  0.00  0.00    +0.004 A 
ATOM      9  C   UNL     1       0.868  -2.100   0.846  0.00  0.00    +0.012 A 
ATOM     10  C   UNL     1       0.033  -2.814  -0.015  0.00  0.00    +0.019 A 
ATOM     11  C   UNL     1      -0.824  -2.127  -0.876  0.00  0.00    +0.012 A 
ATOM     12  C   UNL     1      -0.844  -0.748  -0.868  0.00  0.00    +0.004 A 
ENDBRANCH   1  10
BRANCH   5  13
ATOM     13  C   UNL     1       0.910  -4.671   2.272  0.00  0.00    +0.068 A 
ATOM     14  C   UNL     1       0.246  -3.658   2.953  0.00  0.00    +0.029 A 
ATOM     15  C   UNL     1       0.698  -3.247   4.191  0.00  0.00    +0.025 A 
ATOM     16  C   UNL     1       1.817  -3.845   4.755  0.00  0.00    +0.034 A 
ATOM     17  C   UNL     1       2.481  -4.858   4.075  0.00  0.00    +0.025 A 
ATOM     18  C   UNL     1       2.025  -5.274   2.840  0.00  0.00    +0.029 A 
BRANCH  16  19
ATOM     19  N   UNL     1       2.276  -3.428   6.010  0.00  0.00    -0.285 N 
ATOM     20  C   UNL     1       3.599  -3.402   6.270  0.00  0.00    +0.220 C 
ATOM     21  O   UNL     1       4.386  -3.819   5.447  0.00  0.00    -0.275 OA
ATOM     22  H   UNL     1       1.643  -3.157   6.693  0.00  0.00    +0.155 HD
BRANCH  20  23
ATOM     23  C   UNL     1       4.098  -2.856   7.582  0.00  0.00    +0.069 C 
ATOM     24  C   UNL     1       3.512  -3.676   8.733  0.00  0.00    +0.017 C 
ATOM     25  C   UNL     1       5.625  -2.941   7.622  0.00  0.00    +0.017 C 
ENDBRANCH  20  23
ENDBRANCH  16  19
ENDBRANCH   5  13
BRANCH   3  26
ATOM     26  O   UNL     1      -0.419  -7.424  -1.451  0.00  0.00    -0.459 OA
BRANCH  26  27
ATOM     27  C   UNL     1      -0.193  -8.718  -0.889  0.00  0.00    +0.171 C 
ATOM     28  C   UNL     1      -1.171  -9.720  -1.506  0.00  0.00    +0.052 C 
ATOM     29  C   UNL     1       1.243  -9.159  -1.184  0.00  0.00    +0.052 C 
ENDBRANCH  26  27
ENDBRANCH   3  26
TORSDOF 6
