REMARK  Name = ZINC63162012
REMARK  8 active torsions:
REMARK  status: ('A' for Active; 'I' for Inactive)
REMARK    1  A    between atoms: C_1  and  C_2
REMARK    2  A    between atoms: C_6  and  N_9
REMARK    3  A    between atoms: C_7  and  C_8
REMARK    4  A    between atoms: C_10  and  C_12
REMARK    5  A    between atoms: C_12  and  N_13
REMARK    6  A    between atoms: N_13  and  C_14
REMARK    7  A    between atoms: N_17  and  C_18
REMARK    8  A    between atoms: C_20  and  C_26
REMARK                            x       y       z     vdW  Elec       q    Type
REMARK                         _______ _______ _______ _____ _____    ______ ____
ROOT
ATOM      1  N   UNL     1      -0.208  -6.335   3.413  0.00  0.00    -0.280 N 
ATOM      2  C   UNL     1       1.018  -7.132   3.323  0.00  0.00    +0.134 C 
ATOM      3  C   UNL     1      -1.408  -6.924   3.241  0.00  0.00    +0.307 C 
ATOM      4  O   UNL     1      -2.426  -6.263   3.316  0.00  0.00    -0.252 OA
ATOM      5  N   UNL     1      -1.480  -8.245   2.986  0.00  0.00    -0.265 N 
ATOM      6  H   UNL     1      -0.675  -8.786   2.997  0.00  0.00    +0.157 HD
ENDROOT
BRANCH   5   7
ATOM      7  C   UNL     1      -2.719  -8.838   2.704  0.00  0.00    +0.100 A 
ATOM      8  C   UNL     1      -2.928  -9.472   1.509  0.00  0.00    +0.042 A 
ATOM      9  C   UNL     1      -4.176 -10.057   1.253  0.00  0.00    +0.073 A 
ATOM     10  C   UNL     1      -5.158  -9.991   2.181  0.00  0.00    +0.098 A 
ATOM     11  N   UNL     1      -4.953  -9.361   3.368  0.00  0.00    -0.327 N 
ATOM     12  H   UNL     1      -5.669  -9.325   4.021  0.00  0.00    +0.168 HD
ATOM     13  C   UNL     1      -3.765  -8.793   3.651  0.00  0.00    +0.270 A 
ATOM     14  O   UNL     1      -3.594  -8.236   4.724  0.00  0.00    -0.266 OA
BRANCH   9  15
ATOM     15  C   UNL     1      -4.424 -10.759  -0.057  0.00  0.00    +0.419 C 
ATOM     16  F   UNL     1      -5.731 -11.257  -0.080  0.00  0.00    -0.166 F 
ATOM     17  F   UNL     1      -4.251  -9.854  -1.111  0.00  0.00    -0.166 F 
ATOM     18  F   UNL     1      -3.519 -11.817  -0.198  0.00  0.00    -0.166 F 
ENDBRANCH   9  15
ENDBRANCH   5   7
BRANCH   1  19
ATOM     19  C   UNL     1      -0.129  -4.899   3.691  0.00  0.00    +0.205 C 
BRANCH  19  21
ATOM     20  N   UNL     1       0.050  -2.796   2.402  0.00  0.00    -0.284 N 
ATOM     21  C   UNL     1      -0.033  -4.141   2.392  0.00  0.00    +0.235 C 
ATOM     22  O   UNL     1      -0.030  -4.741   1.339  0.00  0.00    -0.274 OA
ATOM     23  H   UNL     1       0.129  -2.321   3.244  0.00  0.00    +0.155 HD
BRANCH  20  29
ATOM     24  C   UNL     1       1.202   1.242  -0.155  0.00  0.00    +0.044 C 
ATOM     25  C   UNL     1       0.573  -0.125  -0.070  0.00  0.00    -0.046 A 
ATOM     26  C   UNL     1      -0.031  -0.678  -1.185  0.00  0.00    +0.004 A 
ATOM     27  C   UNL     1      -0.609  -1.932  -1.111  0.00  0.00    +0.002 A 
ATOM     28  C   UNL     1      -0.583  -2.637   0.077  0.00  0.00    +0.023 A 
ATOM     29  C   UNL     1       0.023  -2.085   1.197  0.00  0.00    +0.037 A 
ATOM     30  C   UNL     1       0.607  -0.827   1.119  0.00  0.00    -0.026 A 
ATOM     31  C   UNL     1       1.271  -0.226   2.331  0.00  0.00    +0.046 C 
ENDBRANCH  20  29
ENDBRANCH  19  21
ENDBRANCH   1  19
TORSDOF 5
