REMARK  Name = ZINC21982176
REMARK  8 active torsions:
REMARK  status: ('A' for Active; 'I' for Inactive)
REMARK    1  A    between atoms: C_1  and  C_2
REMARK    2  A    between atoms: C_2  and  C_31
REMARK    3  A    between atoms: C_6  and  S_24
REMARK    4  A    between atoms: C_8  and  C_9
REMARK    5  A    between atoms: C_9  and  O_11
REMARK    6  A    between atoms: O_11  and  C_12
REMARK    7  A    between atoms: C_12  and  C_13
REMARK    8  A    between atoms: S_24  and  C_27
REMARK                            x       y       z     vdW  Elec       q    Type
REMARK                         _______ _______ _______ _____ _____    ______ ____
ROOT
ATOM      1  C   UNL     1       0.818   0.169   2.357  0.00  0.00    +0.011 C 
ATOM      2  C   UNL     1       1.074  -0.472   0.991  0.00  0.00    -0.024 C 
ATOM      3  C   UNL     1       2.460  -0.067   0.494  0.00  0.00    +0.044 C 
ATOM      4  C   UNL     1       2.489   1.434   0.230  0.00  0.00    -0.013 A 
ATOM      5  C   UNL     1       1.313   2.179   0.001  0.00  0.00    +0.053 A 
ATOM      6  C   UNL     1       1.451   3.545  -0.230  0.00  0.00    +0.136 A 
ATOM      7  S   UNL     1       3.159   3.801  -0.136  0.00  0.00    -0.063 S 
ATOM      8  C   UNL     1       3.673   2.132   0.202  0.00  0.00    +0.102 A 
ATOM      9  C   UNL     1      -0.018   1.511   0.010  0.00  0.00    +0.166 C 
ATOM     10  O   UNL     1      -1.055   2.142   0.019  0.00  0.00    -0.292 OA
ATOM     11  C   UNL     1       0.002  -0.004   0.002  0.00  0.00    +0.086 C 
ATOM     12  C   UNL     1       1.011  -1.994   1.125  0.00  0.00    +0.011 C 
ENDROOT
BRANCH   6  13
ATOM     13  S   UNL     1       0.186   4.731  -0.543  0.00  0.00    +0.001 S 
ATOM     14  O   UNL     1       0.828   5.758  -1.287  0.00  0.00    -0.169 OA
ATOM     15  O   UNL     1      -0.880   3.982  -1.112  0.00  0.00    -0.169 OA
ATOM     16  C   UNL     1      -0.289   5.350   1.094  0.00  0.00    +0.201 C 
ENDBRANCH   6  13
BRANCH   8  17
ATOM     17  C   UNL     1       5.033   1.623   0.403  0.00  0.00    +0.346 C 
ATOM     18  O   UNL     1       5.213   0.442   0.628  0.00  0.00    -0.244 OA
BRANCH  17  19
ATOM     19  O   UNL     1       6.084   2.465   0.339  0.00  0.00    -0.457 OA
BRANCH  19  20
ATOM     20  C   UNL     1       7.402   1.891   0.548  0.00  0.00    +0.280 C 
BRANCH  20  21
ATOM     21  C   UNL     1       8.460   2.991   0.439  0.00  0.00    +0.248 C 
ATOM     22  C   UNL     1       9.860   2.376   0.565  0.00  0.00    +0.277 C 
ATOM     23  O   UNL     1      10.823   3.431   0.473  0.00  0.00    -0.485 OA
ATOM     24  C   UNL     1      10.581   4.548   1.213  0.00  0.00    +0.162 A 
ATOM     25  C   UNL     1      11.613   5.442   1.454  0.00  0.00    +0.049 A 
ATOM     26  C   UNL     1      11.381   6.583   2.198  0.00  0.00    +0.004 A 
ATOM     27  C   UNL     1      10.119   6.837   2.703  0.00  0.00    +0.004 A 
ATOM     28  C   UNL     1       9.087   5.949   2.468  0.00  0.00    +0.049 A 
ATOM     29  C   UNL     1       9.313   4.801   1.723  0.00  0.00    +0.163 A 
ATOM     30  O   UNL     1       8.287   3.935   1.502  0.00  0.00    -0.478 OA
ENDBRANCH  20  21
ENDBRANCH  19  20
ENDBRANCH  17  19
ENDBRANCH   8  17
TORSDOF 5
