REMARK  Name = ZINC64286608
REMARK  5 active torsions:
REMARK  status: ('A' for Active; 'I' for Inactive)
REMARK    1  A    between atoms: C_1  and  C_2
REMARK    2  A    between atoms: C_5  and  C_16
REMARK    3  A    between atoms: C_7  and  N_8
REMARK    4  A    between atoms: C_9  and  C_11
REMARK    5  A    between atoms: C_19  and  C_21
REMARK                            x       y       z     vdW  Elec       q    Type
REMARK                         _______ _______ _______ _____ _____    ______ ____
ROOT
ATOM      1  C   UNL     1      -0.022   1.495   0.005  0.00  0.00    +0.045 C 
ATOM      2  C   UNL     1      -0.010  -0.012   0.002  0.00  0.00    -0.029 A 
ATOM      3  C   UNL     1      -0.016  -0.698  -1.198  0.00  0.00    +0.006 A 
ATOM      4  C   UNL     1      -0.005  -2.078  -1.209  0.00  0.00    +0.009 A 
ATOM      5  C   UNL     1       0.012  -2.786  -0.005  0.00  0.00    -0.010 A 
ATOM      6  C   UNL     1       0.018  -2.094   1.205  0.00  0.00    +0.032 A 
ATOM      7  C   UNL     1       0.013  -0.707   1.206  0.00  0.00    +0.037 A 
ENDROOT
BRANCH   5   8
ATOM      8  C   UNL     1       0.023  -4.264  -0.014  0.00  0.00    +0.021 A 
ATOM      9  C   UNL     1       0.024  -5.127  -1.097  0.00  0.00    +0.017 A 
ATOM     10  C   UNL     1       0.035  -6.474  -0.865  0.00  0.00    +0.027 A 
ATOM     11  C   UNL     1       0.044  -6.923   0.448  0.00  0.00    +0.089 A 
ATOM     12  S   UNL     1       0.045  -5.393   1.368  0.00  0.00    -0.078 S 
BRANCH  11  13
ATOM     13  C   UNL     1       0.056  -8.268   0.939  0.00  0.00    +0.106 C 
ATOM     14  N   UNL     1       0.065  -9.336   1.328  0.00  0.00    -0.190 NA
ENDBRANCH  11  13
ENDBRANCH   5   8
BRANCH   7  15
ATOM     15  N   UNL     1       0.025  -0.008   2.416  0.00  0.00    -0.280 N 
ATOM     16  C   UNL     1       0.532  -0.587   3.523  0.00  0.00    +0.265 C 
ATOM     17  O   UNL     1       1.069  -1.675   3.449  0.00  0.00    -0.268 OA
ATOM     18  H   UNL     1      -0.331   0.893   2.460  0.00  0.00    +0.155 HD
BRANCH  16  19
ATOM     19  C   UNL     1       0.435   0.099   4.821  0.00  0.00    +0.130 C 
ATOM     20  N   UNL     1      -0.110   1.257   5.071  0.00  0.00    -0.149 NA
ATOM     21  N   UNL     1      -0.053   1.612   6.295  0.00  0.00    -0.161 NA
ATOM     22  C   UNL     1       0.537   0.760   7.077  0.00  0.00    +0.114 C 
ATOM     23  C   UNL     1       0.942  -0.389   6.169  0.00  0.00    +0.111 C 
ENDBRANCH  16  19
ENDBRANCH   7  15
TORSDOF 4
