REMARK  Name = ZINC40490523
REMARK  6 active torsions:
REMARK  status: ('A' for Active; 'I' for Inactive)
REMARK    1  A    between atoms: C_1  and  C_2
REMARK    2  A    between atoms: C_2  and  C_3
REMARK    3  A    between atoms: C_2  and  C_4
REMARK    4  A    between atoms: C_2  and  C_5
REMARK    5  A    between atoms: C_17  and  C_20
REMARK    6  A    between atoms: C_20  and  O_21
REMARK                            x       y       z     vdW  Elec       q    Type
REMARK                         _______ _______ _______ _____ _____    ______ ____
ROOT
ATOM      1  C   UNL     1       0.707  -0.490  -1.238  0.00  0.00    +0.068 A 
ATOM      2  C   UNL     1       2.036  -0.472  -1.446  0.00  0.00    +0.139 A 
ATOM      3  N   UNL     1       2.274  -1.006  -2.706  0.00  0.00    -0.212 N 
ATOM      4  C   UNL     1       1.036  -1.321  -3.194  0.00  0.00    +0.197 A 
ATOM      5  N   UNL     1       0.118  -1.020  -2.320  0.00  0.00    -0.224 NA
ATOM      6  S   UNL     1       1.413  -1.993  -4.795  0.00  0.00    -0.013 S 
ATOM      7  C   UNL     1       3.188  -1.812  -4.716  0.00  0.00    +0.184 A 
ATOM      8  N   UNL     1       3.357  -1.280  -3.535  0.00  0.00    -0.142 NA
ATOM      9  N   UNL     1       4.141  -2.150  -5.663  0.00  0.00    -0.308 N 
ATOM     10  C   UNL     1       5.569  -1.925  -5.402  0.00  0.00    +0.107 C 
ATOM     11  C   UNL     1       6.324  -3.239  -5.624  0.00  0.00    +0.019 C 
ATOM     12  C   UNL     1       6.018  -3.768  -7.027  0.00  0.00    +0.009 C 
ATOM     13  C   UNL     1       4.518  -4.045  -7.154  0.00  0.00    +0.032 C 
ATOM     14  C   UNL     1       3.743  -2.745  -6.946  0.00  0.00    +0.112 C 
ENDROOT
BRANCH   1  16
ATOM     15  C   UNL     1      -0.019   1.526   0.010  0.00  0.00    +0.017 C 
ATOM     16  C   UNL     1       0.002  -0.004   0.002  0.00  0.00    +0.006 C 
ATOM     17  C   UNL     1       0.742  -0.511   1.242  0.00  0.00    +0.017 C 
ATOM     18  C   UNL     1      -1.433  -0.534   0.013  0.00  0.00    +0.017 C 
ENDBRANCH   1  16
BRANCH  13  19
ATOM     19  C   UNL     1       4.218  -4.605  -8.546  0.00  0.00    +0.160 C 
BRANCH  19  20
ATOM     20  O   UNL     1       2.839  -4.972  -8.624  0.00  0.00    -0.395 OA
ATOM     21  H   UNL     1       2.577  -5.336  -9.481  0.00  0.00    +0.209 HD
ENDBRANCH  19  20
ENDBRANCH  13  19
TORSDOF 3
