REMARK  Name = ZINC33697658
REMARK  8 active torsions:
REMARK  status: ('A' for Active; 'I' for Inactive)
REMARK    1  A    between atoms: C_1  and  O_2
REMARK    2  A    between atoms: O_2  and  C_3
REMARK    3  A    between atoms: C_6  and  C_11
REMARK    4  A    between atoms: C_8  and  O_9
REMARK    5  A    between atoms: O_9  and  C_10
REMARK    6  A    between atoms: N_19  and  C_22
REMARK    7  A    between atoms: C_30  and  N_34
REMARK    8  A    between atoms: C_31  and  C_32
REMARK                            x       y       z     vdW  Elec       q    Type
REMARK                         _______ _______ _______ _____ _____    ______ ____
ROOT
ATOM      1  C   UNL     1      -4.987  -2.627   0.035  0.00  0.00    +0.075 C 
ATOM      2  C   UNL     1      -5.703  -2.278  -1.264  0.00  0.00    +0.110 C 
ATOM      3  C   UNL     1      -7.194  -2.653  -1.228  0.00  0.00    +0.152 C 
ATOM      4  C   UNL     1      -7.162  -4.150  -1.313  0.00  0.00    +0.240 C 
ATOM      5  O   UNL     1      -7.958  -4.931  -0.838  0.00  0.00    -0.274 OA
ATOM      6  N   UNL     1      -6.052  -4.443  -2.034  0.00  0.00    -0.209 N 
ATOM      7  C   UNL     1      -5.215  -3.368  -2.245  0.00  0.00    +0.232 C 
ATOM      8  O   UNL     1      -4.297  -3.276  -3.031  0.00  0.00    -0.274 OA
ATOM      9  S   UNL     1      -8.081  -1.980   0.169  0.00  0.00    -0.096 S 
ATOM     10  C   UNL     1      -6.944  -2.045   1.511  0.00  0.00    +0.074 C 
ATOM     11  C   UNL     1      -5.662  -2.292   1.302  0.00  0.00    +0.064 C 
ENDROOT
BRANCH   6  12
ATOM     12  C   UNL     1      -5.775  -5.728  -2.525  0.00  0.00    +0.044 A 
ATOM     13  C   UNL     1      -4.615  -5.959  -3.253  0.00  0.00    +0.027 A 
ATOM     14  C   UNL     1      -4.344  -7.224  -3.735  0.00  0.00    +0.040 A 
ATOM     15  C   UNL     1      -5.228  -8.262  -3.494  0.00  0.00    +0.124 A 
ATOM     16  C   UNL     1      -6.386  -8.034  -2.769  0.00  0.00    +0.040 A 
ATOM     17  C   UNL     1      -6.657  -6.771  -2.280  0.00  0.00    +0.027 A 
ATOM     18  F   UNL     1      -4.962  -9.499  -3.967  0.00  0.00    -0.205 F 
ENDBRANCH   6  12
BRANCH   1  22
ATOM     19  C   UNL     1      -1.201  -0.638   0.010  0.00  0.00    +0.162 A 
ATOM     20  C   UNL     1      -2.374   0.099   0.019  0.00  0.00    +0.050 A 
ATOM     21  C   UNL     1      -3.596  -0.546   0.027  0.00  0.00    +0.008 A 
ATOM     22  C   UNL     1      -3.652  -1.928   0.026  0.00  0.00    -0.035 A 
ATOM     23  C   UNL     1      -2.485  -2.669   0.017  0.00  0.00    +0.053 A 
ATOM     24  C   UNL     1      -1.257  -2.028   0.003  0.00  0.00    +0.162 A 
BRANCH  19  26
ATOM     25  C   UNL     1      -0.017   1.425   0.010  0.00  0.00    +0.277 C 
ATOM     26  O   UNL     1       0.002  -0.004   0.002  0.00  0.00    -0.491 OA
ENDBRANCH  19  26
BRANCH  24  27
ATOM     27  O   UNL     1      -0.108  -2.756  -0.012  0.00  0.00    -0.491 OA
ATOM     28  C   UNL     1      -0.242  -4.179  -0.018  0.00  0.00    +0.277 C 
ENDBRANCH  24  27
ENDBRANCH   1  22
BRANCH  10  29
ATOM     29  N   UNL     1      -7.395  -1.827   2.791  0.00  0.00    -0.352 N 
ATOM     30  H   UNL     1      -8.333  -1.639   2.950  0.00  0.00    +0.143 HD
ATOM     31  H   UNL     1      -6.774  -1.861   3.536  0.00  0.00    +0.143 HD
ENDBRANCH  10  29
BRANCH  11  32
ATOM     32  C   UNL     1      -4.825  -2.212   2.461  0.00  0.00    +0.098 C 
ATOM     33  N   UNL     1      -4.161  -2.147   3.381  0.00  0.00    -0.191 NA
ENDBRANCH  11  32
TORSDOF 6
