REMARK  Name = ZINC58176280
REMARK  9 active torsions:
REMARK  status: ('A' for Active; 'I' for Inactive)
REMARK    1  A    between atoms: C_1  and  C_2
REMARK    2  A    between atoms: C_4  and  C_22
REMARK    3  A    between atoms: C_5  and  C_21
REMARK    4  A    between atoms: C_6  and  S_9
REMARK    5  A    between atoms: C_7  and  C_8
REMARK    6  A    between atoms: S_9  and  N_12
REMARK    7  A    between atoms: C_15  and  N_18
REMARK    8  A    between atoms: N_18  and  C_19
REMARK    9  A    between atoms: N_18  and  C_20
REMARK                            x       y       z     vdW  Elec       q    Type
REMARK                         _______ _______ _______ _____ _____    ______ ____
ROOT
ATOM      1  S   UNL     1      -0.494  -2.545   2.859  0.00  0.00    +0.061 S 
ATOM      2  O   UNL     1      -1.070  -1.462   3.577  0.00  0.00    -0.153 OA
ATOM      3  O   UNL     1      -1.141  -3.803   2.729  0.00  0.00    -0.153 OA
ENDROOT
BRANCH   1   9
ATOM      4  C   UNL     1       0.556  -3.384  -2.192  0.00  0.00    +0.044 C 
ATOM      5  C   UNL     1       0.289  -2.403  -1.079  0.00  0.00    -0.045 A 
ATOM      6  C   UNL     1       0.279  -1.046  -1.342  0.00  0.00    +0.007 A 
ATOM      7  C   UNL     1       0.034  -0.146  -0.321  0.00  0.00    -0.045 A 
ATOM      8  C   UNL     1      -0.202  -0.604   0.962  0.00  0.00    -0.021 A 
ATOM      9  C   UNL     1      -0.194  -1.961   1.224  0.00  0.00    +0.112 A 
ATOM     10  C   UNL     1       0.047  -2.861   0.202  0.00  0.00    -0.021 A 
ATOM     11  C   UNL     1       0.052  -4.341   0.487  0.00  0.00    +0.046 C 
ATOM     12  C   UNL     1      -0.469   0.377   2.075  0.00  0.00    +0.046 C 
ATOM     13  C   UNL     1       0.025   1.333  -0.607  0.00  0.00    +0.044 C 
ENDBRANCH   1   9
BRANCH   1  14
ATOM     14  N   UNL     1       0.981  -2.840   3.552  0.00  0.00    -0.177 NA
ATOM     15  C   UNL     1       1.589  -4.176   3.478  0.00  0.00    +0.108 C 
ATOM     16  C   UNL     1       3.001  -4.043   2.899  0.00  0.00    +0.002 C 
ATOM     17  C   UNL     1       3.797  -3.036   3.732  0.00  0.00    -0.067 C 
ATOM     18  C   UNL     1       3.117  -1.667   3.666  0.00  0.00    +0.002 C 
ATOM     19  C   UNL     1       1.709  -1.771   4.248  0.00  0.00    +0.108 C 
BRANCH  17  20
ATOM     20  N   UNL     1       5.162  -2.931   3.200  0.00  0.00    +0.378 N 
ATOM     21  C   UNL     1       5.926  -1.964   4.000  0.00  0.00    -0.096 C 
ATOM     22  C   UNL     1       5.815  -4.245   3.265  0.00  0.00    -0.096 C 
ATOM     23  H   UNL     1       5.126  -2.620   2.241  0.00  0.00    -0.082 HD
ENDBRANCH  17  20
ENDBRANCH   1  14
TORSDOF 3
