REMARK  Name = ZINC03231397
REMARK  8 active torsions:
REMARK  status: ('A' for Active; 'I' for Inactive)
REMARK    1  A    between atoms: C_1  and  C_2
REMARK    2  A    between atoms: C_2  and  C_3
REMARK    3  A    between atoms: C_3  and  C_4
REMARK    4  A    between atoms: C_13  and  O_15
REMARK    5  A    between atoms: O_15  and  C_16
REMARK    6  A    between atoms: C_16  and  C_17
REMARK    7  A    between atoms: N_19  and  C_20
REMARK    8  A    between atoms: C_24  and  C_26
REMARK                            x       y       z     vdW  Elec       q    Type
REMARK                         _______ _______ _______ _____ _____    ______ ____
ROOT
ATOM      1  C   UNL     1       4.877   5.433  -0.173  0.00  0.00    +0.324 C 
ENDROOT
BRANCH   1   2
ATOM      2  C   UNL     1       6.278   5.988  -0.188  0.00  0.00    +0.255 C 
ATOM      3  O   UNL     1       7.223   5.246  -0.355  0.00  0.00    -0.272 OA
ATOM      4  N   UNL     1       6.482   7.309  -0.017  0.00  0.00    -0.283 N 
ATOM      5  H   UNL     1       5.725   7.913   0.040  0.00  0.00    +0.155 HD
BRANCH   4   6
ATOM      6  C   UNL     1       7.786   7.810   0.080  0.00  0.00    +0.034 A 
ATOM      7  C   UNL     1       8.781   7.048   0.677  0.00  0.00    +0.025 A 
ATOM      8  C   UNL     1      10.067   7.542   0.767  0.00  0.00    +0.022 A 
ATOM      9  C   UNL     1      10.363   8.800   0.271  0.00  0.00    +0.053 A 
ATOM     10  C   UNL     1       9.372   9.563  -0.320  0.00  0.00    +0.075 A 
ATOM     11  C   UNL     1       8.085   9.072  -0.417  0.00  0.00    +0.037 A 
ATOM     12 CL   UNL     1      11.979   9.421   0.390  0.00  0.00    -0.083 Cl
BRANCH  10  13
ATOM     13  C   UNL     1       9.697  10.932  -0.860  0.00  0.00    +0.419 C 
ATOM     14  F   UNL     1       8.543  11.505  -1.405  0.00  0.00    -0.166 F 
ATOM     15  F   UNL     1      10.173  11.741   0.178  0.00  0.00    -0.166 F 
ATOM     16  F   UNL     1      10.677  10.822  -1.852  0.00  0.00    -0.166 F 
ENDBRANCH  10  13
ENDBRANCH   4   6
ENDBRANCH   1   2
BRANCH   1  17
ATOM     17  O   UNL     1       4.923   4.019  -0.374  0.00  0.00    -0.483 OA
BRANCH  17  27
ATOM     18  C   UNL     1       0.034   1.314  -0.429  0.00  0.00    -0.030 A 
ATOM     19  C   UNL     1       0.060  -0.030  -0.619  0.00  0.00    +0.096 A 
ATOM     20  C   UNL     1       1.294  -0.690  -0.793  0.00  0.00    +0.337 A 
ATOM     21  O   UNL     1       1.304  -1.896  -0.962  0.00  0.00    -0.245 OA
ATOM     22  O   UNL     1       2.459  -0.023  -0.777  0.00  0.00    -0.422 OA
ATOM     23  C   UNL     1       2.502   1.314  -0.593  0.00  0.00    +0.143 A 
ATOM     24  C   UNL     1       1.308   2.036  -0.413  0.00  0.00    +0.021 A 
ATOM     25  C   UNL     1       1.348   3.422  -0.221  0.00  0.00    +0.015 A 
ATOM     26  C   UNL     1       2.550   4.070  -0.210  0.00  0.00    +0.046 A 
ATOM     27  C   UNL     1       3.736   3.361  -0.388  0.00  0.00    +0.125 A 
ATOM     28  C   UNL     1       3.714   1.988  -0.578  0.00  0.00    +0.092 A 
BRANCH  18  29
ATOM     29  C   UNL     1      -1.272   2.045  -0.246  0.00  0.00    +0.036 C 
BRANCH  29  31
ATOM     30  C   UNL     1      -3.065   3.340  -1.409  0.00  0.00    +0.004 C 
ATOM     31  C   UNL     1      -1.739   2.599  -1.594  0.00  0.00    +0.001 C 
ENDBRANCH  29  31
ENDBRANCH  18  29
ENDBRANCH  17  27
ENDBRANCH   1  17
TORSDOF 7
