REMARK  Name = ZINC41067735
REMARK  4 active torsions:
REMARK  status: ('A' for Active; 'I' for Inactive)
REMARK    1  A    between atoms: C_1  and  C_2
REMARK    2  A    between atoms: N_12  and  S_13
REMARK    3  A    between atoms: S_13  and  C_16
REMARK    4  A    between atoms: C_18  and  N_21
REMARK                            x       y       z     vdW  Elec       q    Type
REMARK                         _______ _______ _______ _____ _____    ______ ____
ROOT
ATOM      1  C   UNL     1      -0.065   1.474  -0.045  0.00  0.00    +0.030 C 
ATOM      2  C   UNL     1       0.007  -0.054  -0.020  0.00  0.00    +0.095 C 
ATOM      3  C   UNL     1       0.779  -0.558  -1.247  0.00  0.00    +0.029 C 
ATOM      4  C   UNL     1       2.161   0.094  -1.262  0.00  0.00    +0.039 C 
ATOM      5  C   UNL     1       2.842  -0.083   0.070  0.00  0.00    -0.025 A 
ATOM      6  C   UNL     1       4.220   0.038   0.139  0.00  0.00    +0.005 A 
ATOM      7  C   UNL     1       4.873  -0.115   1.347  0.00  0.00    +0.000 A 
ATOM      8  C   UNL     1       4.154  -0.391   2.496  0.00  0.00    +0.002 A 
ATOM      9  C   UNL     1       2.781  -0.514   2.435  0.00  0.00    +0.025 A 
ATOM     10  C   UNL     1       2.121  -0.361   1.220  0.00  0.00    +0.055 A 
ATOM     11  N   UNL     1       0.728  -0.498   1.180  0.00  0.00    -0.200 N 
ENDROOT
BRANCH  11  12
ATOM     12  S   UNL     1      -0.093  -1.151   2.462  0.00  0.00    +0.081 S 
ATOM     13  O   UNL     1      -1.382  -1.506   1.980  0.00  0.00    -0.149 OA
ATOM     14  O   UNL     1       0.781  -2.095   3.066  0.00  0.00    -0.149 OA
BRANCH  12  15
ATOM     15  C   UNL     1      -0.332   0.139   3.638  0.00  0.00    +0.148 A 
ATOM     16  C   UNL     1      -1.366   1.009   3.752  0.00  0.00    +0.059 A 
ATOM     17  C   UNL     1      -1.341   1.952   4.767  0.00  0.00    +0.034 A 
ATOM     18  C   UNL     1      -0.281   1.973   5.616  0.00  0.00    +0.069 A 
ATOM     19  S   UNL     1       0.720   0.632   4.993  0.00  0.00    -0.075 S 
BRANCH  17  20
ATOM     20  N   UNL     1      -2.397   2.872   4.915  0.00  0.00    -0.358 N 
ATOM     21  H   UNL     1      -3.149   2.849   4.304  0.00  0.00    +0.142 HD
ATOM     22  H   UNL     1      -2.371   3.528   5.629  0.00  0.00    +0.142 HD
ENDBRANCH  17  20
ENDBRANCH  12  15
ENDBRANCH  11  12
TORSDOF 3
