REMARK  Name = ZINC35553711
REMARK  4 active torsions:
REMARK  status: ('A' for Active; 'I' for Inactive)
REMARK    1  A    between atoms: C_8  and  C_10
REMARK    2  A    between atoms: C_13  and  C_15
REMARK    3  A    between atoms: N_17  and  C_18
REMARK    4  A    between atoms: C_23  and  N_24
REMARK                            x       y       z     vdW  Elec       q    Type
REMARK                         _______ _______ _______ _____ _____    ______ ____
ROOT
ATOM      1  C   UNL     1       2.955  -4.011   0.024  0.00  0.00    +0.045 A 
ATOM      2  C   UNL     1       4.219  -4.584   0.000  0.00  0.00    +0.019 A 
ATOM      3  C   UNL     1       4.322  -5.946  -0.028  0.00  0.00    +0.021 A 
ATOM      4  C   UNL     1       3.158  -6.702  -0.032  0.00  0.00    +0.075 A 
ATOM      5  S   UNL     1       1.891  -5.445   0.012  0.00  0.00    -0.082 S 
ENDROOT
BRANCH   1  13
ATOM      6  C   UNL     1      -0.057   1.347   0.168  0.00  0.00    +0.002 A 
ATOM      7  C   UNL     1       1.112   2.096   0.166  0.00  0.00    +0.001 A 
ATOM      8  C   UNL     1       2.333   1.448   0.137  0.00  0.00    +0.017 A 
ATOM      9  C   UNL     1       2.368   0.076   0.110  0.00  0.00    +0.040 A 
ATOM     10  C   UNL     1       1.194  -0.717   0.111  0.00  0.00    +0.079 A 
ATOM     11  C   UNL     1      -0.034  -0.012   0.142  0.00  0.00    +0.029 A 
ATOM     12  N   UNL     1       1.387  -2.043   0.083  0.00  0.00    -0.239 NA
ATOM     13  C   UNL     1       2.586  -2.587   0.056  0.00  0.00    +0.116 A 
ATOM     14  S   UNL     1       3.652  -1.151   0.068  0.00  0.00    -0.067 S 
ENDBRANCH   1  13
BRANCH   4  15
ATOM     15  C   UNL     1       3.008  -8.161  -0.059  0.00  0.00    +0.255 C 
ATOM     16  O   UNL     1       3.994  -8.874  -0.083  0.00  0.00    -0.269 OA
ATOM     17  N   UNL     1       1.778  -8.712  -0.059  0.00  0.00    -0.279 N 
ATOM     18  H   UNL     1       0.993  -8.147   0.025  0.00  0.00    +0.155 HD
BRANCH  17  19
ATOM     19  C   UNL     1       1.632 -10.097  -0.179  0.00  0.00    +0.064 A 
ATOM     20  C   UNL     1       2.563 -10.948   0.402  0.00  0.00    +0.025 A 
ATOM     21  C   UNL     1       2.416 -12.316   0.282  0.00  0.00    +0.002 A 
ATOM     22  C   UNL     1       1.343 -12.839  -0.417  0.00  0.00    +0.002 A 
ATOM     23  C   UNL     1       0.414 -11.994  -0.997  0.00  0.00    +0.034 A 
ATOM     24  C   UNL     1       0.553 -10.626  -0.875  0.00  0.00    +0.147 A 
BRANCH  24  25
ATOM     25  N   UNL     1      -0.445  -9.722  -1.492  0.00  0.00    +0.058 N 
ATOM     26  O   UNL     1      -1.435 -10.181  -2.013  0.00  0.00    -0.126 OA
ATOM     27  O   UNL     1      -0.271  -8.526  -1.473  0.00  0.00    -0.126 OA
ENDBRANCH  24  25
ENDBRANCH  17  19
ENDBRANCH   4  15
TORSDOF 4
