REMARK  Name = ZINC04741202
REMARK  9 active torsions:
REMARK  status: ('A' for Active; 'I' for Inactive)
REMARK    1  A    between atoms: C_1  and  C_2
REMARK    2  A    between atoms: C_2  and  C_3
REMARK    3  A    between atoms: C_6  and  C_9
REMARK    4  A    between atoms: N_11  and  C_12
REMARK    5  A    between atoms: C_12  and  C_14
REMARK    6  A    between atoms: C_12  and  C_17
REMARK    7  A    between atoms: C_14  and  C_15
REMARK    8  A    between atoms: C_14  and  C_16
REMARK    9  A    between atoms: C_22  and  N_66
REMARK                            x       y       z     vdW  Elec       q    Type
REMARK                         _______ _______ _______ _____ _____    ______ ____
ROOT
ATOM      1  C   UNL     1      -0.069   1.129  -0.015  0.00  0.00    +0.162 C 
ENDROOT
BRANCH   1   2
ATOM      2  C   UNL     1      -0.642   1.545  -1.345  0.00  0.00    +0.236 C 
ATOM      3  O   UNL     1      -1.538   2.361  -1.391  0.00  0.00    -0.274 OA
ATOM      4  N   UNL     1      -0.158   1.010  -2.484  0.00  0.00    -0.300 N 
ATOM      5  C   UNL     1       1.001   0.107  -2.453  0.00  0.00    +0.106 C 
ATOM      6  C   UNL     1       0.624  -1.195  -3.175  0.00  0.00    +0.004 C 
ATOM      7  C   UNL     1       0.122  -0.865  -4.583  0.00  0.00    -0.066 C 
ATOM      8  C   UNL     1      -1.129   0.011  -4.487  0.00  0.00    +0.004 C 
ATOM      9  C   UNL     1      -0.776   1.323  -3.779  0.00  0.00    +0.106 C 
BRANCH   7  15
ATOM     10  C   UNL     1      -1.238  -2.868  -4.572  0.00  0.00    -0.078 C 
ATOM     11  C   UNL     1      -1.657  -4.079  -5.408  0.00  0.00    -0.019 C 
ATOM     12  C   UNL     1      -0.434  -4.964  -5.663  0.00  0.00    -0.004 C 
ATOM     13  C   UNL     1       0.645  -4.138  -6.369  0.00  0.00    -0.019 C 
ATOM     14  C   UNL     1       0.998  -2.925  -5.506  0.00  0.00    -0.078 C 
ATOM     15  N   UNL     1      -0.216  -2.102  -5.317  0.00  0.00    +0.382 N 
ATOM     16  H   UNL     1      -0.594  -1.850  -6.238  0.00  0.00    -0.081 HD
ENDBRANCH   7  15
ENDBRANCH   1   2
BRANCH   1  19
ATOM     17  C   UNL     1      -1.022   0.368   2.095  0.00  0.00    +0.245 C 
ATOM     18  O   UNL     1      -0.050  -0.346   2.242  0.00  0.00    -0.270 OA
ATOM     19  N   UNL     1      -1.127   1.145   0.999  0.00  0.00    -0.300 N 
ATOM     20  H   UNL     1      -1.903   1.715   0.881  0.00  0.00    +0.150 HD
BRANCH  17  24
ATOM     21  C   UNL     1      -4.090   0.413   5.032  0.00  0.00    -0.048 A 
ATOM     22  C   UNL     1      -2.984  -0.401   5.204  0.00  0.00    +0.004 A 
ATOM     23  C   UNL     1      -1.984  -0.421   4.253  0.00  0.00    +0.013 A 
ATOM     24  C   UNL     1      -2.090   0.383   3.117  0.00  0.00    +0.037 A 
ATOM     25  C   UNL     1      -3.205   1.206   2.953  0.00  0.00    +0.013 A 
ATOM     26  C   UNL     1      -4.200   1.212   3.909  0.00  0.00    +0.004 A 
BRANCH  21  28
ATOM     27  C   UNL     1      -4.868   1.501   7.120  0.00  0.00    +0.009 C 
ATOM     28  C   UNL     1      -5.178   0.428   6.074  0.00  0.00    +0.032 C 
ENDBRANCH  21  28
ENDBRANCH  17  24
ENDBRANCH   1  19
BRANCH   1  29
ATOM     29  C   UNL     1       1.039   2.104   0.390  0.00  0.00    +0.012 C 
ATOM     30  C   UNL     1       1.714   1.605   1.670  0.00  0.00    +0.009 C 
ATOM     31  C   UNL     1       2.076   2.192  -0.732  0.00  0.00    +0.009 C 
ENDBRANCH   1  29
TORSDOF 6
