REMARK  Name = ZINC37577918
REMARK  7 active torsions:
REMARK  status: ('A' for Active; 'I' for Inactive)
REMARK    1  A    between atoms: C_1  and  C_2
REMARK    2  A    between atoms: C_4  and  S_12
REMARK    3  A    between atoms: C_7  and  C_8
REMARK    4  A    between atoms: C_9  and  C_10
REMARK    5  A    between atoms: C_10  and  O_11
REMARK    6  A    between atoms: S_12  and  N_15
REMARK    7  A    between atoms: C_19  and  C_21
REMARK                            x       y       z     vdW  Elec       q    Type
REMARK                         _______ _______ _______ _____ _____    ______ ____
ROOT
ATOM      1  C   UNL     1      -0.018   1.503   0.010  0.00  0.00    +0.045 C 
ATOM      2  C   UNL     1       0.002  -0.004   0.002  0.00  0.00    -0.033 A 
ATOM      3  C   UNL     1       0.006  -0.689  -1.196  0.00  0.00    +0.033 A 
ATOM      4  C   UNL     1       0.025  -2.072  -1.205  0.00  0.00    +0.113 A 
ATOM      5  C   UNL     1       0.040  -2.778  -0.015  0.00  0.00    +0.030 A 
ATOM      6  C   UNL     1       0.037  -2.105   1.189  0.00  0.00    +0.019 A 
ATOM      7  C   UNL     1       0.023  -0.710   1.206  0.00  0.00    +0.028 A 
ENDROOT
BRANCH   4   8
ATOM      8  S   UNL     1       0.028  -2.939  -2.739  0.00  0.00    +0.101 S 
ATOM      9  O   UNL     1      -0.504  -4.230  -2.477  0.00  0.00    -0.146 OA
ATOM     10  O   UNL     1      -0.540  -2.062  -3.703  0.00  0.00    -0.146 OA
BRANCH   8  11
ATOM     11  N   UNL     1       1.611  -3.158  -3.174  0.00  0.00    -0.103 NA
ATOM     12  C   UNL     1       1.904  -3.783  -4.288  0.00  0.00    +0.192 A 
ATOM     13  N   UNL     1       1.060  -4.325  -5.234  0.00  0.00    -0.339 N 
ATOM     14  C   UNL     1       1.610  -4.934  -6.324  0.00  0.00    +0.095 A 
ATOM     15  C   UNL     1       2.934  -4.997  -6.460  0.00  0.00    +0.006 A 
ATOM     16  S   UNL     1       3.503  -4.154  -4.992  0.00  0.00    -0.054 S 
ATOM     17  C   UNL     1       3.744  -5.615  -7.570  0.00  0.00    +0.053 C 
ATOM     18  H   UNL     1       0.097  -4.275  -5.126  0.00  0.00    +0.167 HD
ENDBRANCH   8  11
ENDBRANCH   4   8
BRANCH   7  19
ATOM     19  C   UNL     1       0.025  -0.005   2.452  0.00  0.00    -0.064 C 
ATOM     20  C   UNL     1       0.027   0.573   3.474  0.00  0.00    -0.069 C 
BRANCH  20  21
ATOM     21  C   UNL     1       0.029   1.297   4.756  0.00  0.00    +0.244 C 
BRANCH  21  22
ATOM     22  O   UNL     1       0.052   0.359   5.833  0.00  0.00    -0.383 OA
ATOM     23  H   UNL     1       0.055   0.766   6.710  0.00  0.00    +0.211 HD
ENDBRANCH  21  22
ENDBRANCH  20  21
ENDBRANCH   7  19
TORSDOF 5
