REMARK  Name = ZINC67332262
REMARK  5 active torsions:
REMARK  status: ('A' for Active; 'I' for Inactive)
REMARK    1  A    between atoms: C_4  and  C_7
REMARK    2  A    between atoms: C_7  and  N_8
REMARK    3  A    between atoms: C_12  and  C_14
REMARK    4  A    between atoms: C_14  and  N_15
REMARK    5  A    between atoms: C_16  and  C_18
REMARK                            x       y       z     vdW  Elec       q    Type
REMARK                         _______ _______ _______ _____ _____    ______ ____
ROOT
ATOM      1  N   UNL     1       1.309  -2.712  -4.606  0.00  0.00    -0.317 N 
ATOM      2  C   UNL     1       0.288  -3.370  -5.190  0.00  0.00    +0.216 C 
ATOM      3  O   UNL     1       0.440  -4.511  -5.569  0.00  0.00    -0.276 OA
ATOM      4  H   UNL     1       1.188  -1.799  -4.302  0.00  0.00    +0.149 HD
ENDROOT
BRANCH   2   5
ATOM      5  C   UNL     1      -1.043  -2.686  -5.371  0.00  0.00    +0.078 C 
ATOM      6  C   UNL     1      -0.861  -1.438  -6.237  0.00  0.00    +0.032 C 
ATOM      7  C   UNL     1      -2.209  -0.727  -6.391  0.00  0.00    +0.110 C 
ATOM      8  N   UNL     1      -3.193  -1.685  -6.912  0.00  0.00    -0.286 N 
ATOM      9  C   UNL     1      -3.382  -2.959  -6.205  0.00  0.00    +0.110 C 
ATOM     10  C   UNL     1      -2.020  -3.646  -6.054  0.00  0.00    +0.032 C 
ATOM     11  C   UNL     1      -3.909  -1.401  -8.018  0.00  0.00    +0.300 C 
ATOM     12  O   UNL     1      -3.812  -0.308  -8.541  0.00  0.00    -0.253 OA
ATOM     13  N   UNL     1      -4.734  -2.329  -8.544  0.00  0.00    -0.313 N 
ATOM     14  H   UNL     1      -4.868  -3.174  -8.086  0.00  0.00    +0.146 HD
ATOM     15  H   UNL     1      -5.193  -2.152  -9.380  0.00  0.00    +0.146 HD
ENDBRANCH   2   5
BRANCH   1  16
ATOM     16  C   UNL     1       2.603  -3.377  -4.430  0.00  0.00    +0.089 C 
BRANCH  16  21
ATOM     17  N   UNL     1       3.001  -1.927  -2.483  0.00  0.00    +0.383 N 
ATOM     18  C   UNL     1       3.898  -2.312  -1.373  0.00  0.00    -0.078 C 
ATOM     19  C   UNL     1       4.678  -3.541  -1.903  0.00  0.00    -0.020 C 
ATOM     20  C   UNL     1       4.885  -3.162  -3.393  0.00  0.00    -0.016 C 
ATOM     21  C   UNL     1       3.580  -2.418  -3.747  0.00  0.00    -0.051 C 
ATOM     22  H   UNL     1       2.092  -2.342  -2.342  0.00  0.00    -0.081 HD
BRANCH  17  23
ATOM     23  C   UNL     1       2.875  -0.464  -2.532  0.00  0.00    -0.075 C 
BRANCH  23  27
ATOM     24  C   UNL     1      -0.011   1.523   0.008  0.00  0.00    +0.000 C 
ATOM     25  C   UNL     1       1.424   2.052  -0.004  0.00  0.00    +0.000 C 
ATOM     26  C   UNL     1       2.139   1.559  -1.264  0.00  0.00    +0.002 C 
ATOM     27  C   UNL     1       2.160   0.029  -1.273  0.00  0.00    -0.028 C 
ATOM     28  C   UNL     1       0.725  -0.500  -1.261  0.00  0.00    +0.002 C 
ATOM     29  C   UNL     1       0.009  -0.007  -0.001  0.00  0.00    +0.000 C 
ENDBRANCH  23  27
ENDBRANCH  17  23
ENDBRANCH  16  21
ENDBRANCH   1  16
TORSDOF 5
