REMARK  Name = ZINC54896422
REMARK  3 active torsions:
REMARK  status: ('A' for Active; 'I' for Inactive)
REMARK    1  A    between atoms: C_1  and  C_2
REMARK    2  A    between atoms: N_4  and  C_5
REMARK    3  A    between atoms: C_14  and  C_17
REMARK                            x       y       z     vdW  Elec       q    Type
REMARK                         _______ _______ _______ _____ _____    ______ ____
ROOT
ATOM      1  C   UNL     1      -2.636  -0.491  -1.316  0.00  0.00    +0.110 C 
ATOM      2  C   UNL     1      -1.381  -0.359  -0.492  0.00  0.00    +0.223 C 
ATOM      3  O   UNL     1      -1.397  -0.643   0.687  0.00  0.00    -0.275 OA
ATOM      4  N   UNL     1      -0.241   0.074  -1.065  0.00  0.00    -0.219 N 
ATOM      5  C   UNL     1      -0.250   0.518  -2.382  0.00  0.00    +0.172 A 
ATOM      6  N   UNL     1      -0.544   1.714  -2.849  0.00  0.00    -0.225 NA
ATOM      7  C   UNL     1      -0.485   1.914  -4.170  0.00  0.00    +0.074 A 
ATOM      8  C   UNL     1      -0.118   0.858  -4.981  0.00  0.00    +0.076 A 
ATOM      9  S   UNL     1       0.140  -0.381  -3.872  0.00  0.00    -0.059 S 
ENDROOT
BRANCH   7  10
ATOM     10  C   UNL     1      -0.803   3.224  -4.743  0.00  0.00    +0.039 C 
ATOM     11  C   UNL     1      -0.249   4.345  -4.220  0.00  0.00    +0.039 C 
ATOM     12  C   UNL     1      -0.709   5.711  -4.667  0.00  0.00    +0.268 C 
ATOM     13  O   UNL     1      -0.611   6.642  -3.590  0.00  0.00    -0.487 OA
ATOM     14  C   UNL     1       0.555   6.703  -2.904  0.00  0.00    +0.132 A 
ATOM     15  C   UNL     1       1.027   7.908  -2.407  0.00  0.00    +0.046 A 
ATOM     16  C   UNL     1       2.217   7.946  -1.707  0.00  0.00    +0.004 A 
ATOM     17  C   UNL     1       2.948   6.788  -1.494  0.00  0.00    +0.001 A 
ATOM     18  C   UNL     1       2.494   5.580  -1.982  0.00  0.00    +0.015 A 
ATOM     19  C   UNL     1       1.297   5.531  -2.691  0.00  0.00    +0.064 A 
ATOM     20  C   UNL     1       0.773   4.258  -3.234  0.00  0.00    +0.196 C 
ATOM     21  O   UNL     1       1.202   3.182  -2.856  0.00  0.00    -0.287 OA
ENDBRANCH   7  10
BRANCH   4  22
ATOM     22  C   UNL     1       0.955   0.076  -0.334  0.00  0.00    +0.043 A 
ATOM     23  C   UNL     1       2.091   0.676  -0.860  0.00  0.00    +0.027 A 
ATOM     24  C   UNL     1       3.268   0.677  -0.137  0.00  0.00    +0.040 A 
ATOM     25  C   UNL     1       3.315   0.080   1.112  0.00  0.00    +0.124 A 
ATOM     26  C   UNL     1       2.183  -0.519   1.638  0.00  0.00    +0.040 A 
ATOM     27  C   UNL     1       1.003  -0.517   0.921  0.00  0.00    +0.027 A 
ATOM     28  F   UNL     1       4.468   0.082   1.817  0.00  0.00    -0.205 F 
ENDBRANCH   4  22
TORSDOF 2
