REMARK  Name = ZINC61592079
REMARK  4 active torsions:
REMARK  status: ('A' for Active; 'I' for Inactive)
REMARK    1  A    between atoms: C_7  and  N_12
REMARK    2  A    between atoms: C_18  and  S_19
REMARK    3  A    between atoms: S_19  and  C_20
REMARK    4  A    between atoms: C_20  and  C_21
REMARK                            x       y       z     vdW  Elec       q    Type
REMARK                         _______ _______ _______ _____ _____    ______ ____
ROOT
ATOM      1  N   UNL     1      -0.075  -2.622   1.964  0.00  0.00    -0.269 N 
ATOM      2  C   UNL     1      -0.523  -2.299   3.194  0.00  0.00    +0.345 A 
ATOM      3  O   UNL     1      -0.076  -1.426   3.916  0.00  0.00    -0.245 OA
ATOM      4  N   UNL     1      -1.555  -3.119   3.480  0.00  0.00    -0.226 N 
ATOM      5  H   UNL     1      -2.078  -3.121   4.297  0.00  0.00    +0.194 HD
ATOM      6  N   UNL     1      -1.735  -3.967   2.378  0.00  0.00    -0.145 NA
ATOM      7  C   UNL     1      -0.847  -3.653   1.479  0.00  0.00    +0.193 A 
ENDROOT
BRANCH   1  14
ATOM      8  C   UNL     1      -0.019   1.533   0.011  0.00  0.00    -0.003 C 
ATOM      9  C   UNL     1       1.404   2.090  -0.000  0.00  0.00    -0.019 C 
ATOM     10  C   UNL     1       2.236   1.477   1.137  0.00  0.00    -0.078 C 
ATOM     11  N   UNL     1       2.227   0.032   0.968  0.00  0.00    +0.383 N 
ATOM     12  C   UNL     1       3.058  -0.729   1.903  0.00  0.00    -0.076 C 
ATOM     13  C   UNL     1       2.353  -2.096   2.080  0.00  0.00    +0.005 C 
ATOM     14  C   UNL     1       1.038  -1.980   1.261  0.00  0.00    +0.079 C 
ATOM     15  C   UNL     1       0.840  -0.456   1.190  0.00  0.00    -0.045 C 
ATOM     16  C   UNL     1       0.002  -0.004   0.002  0.00  0.00    -0.013 C 
ATOM     17  H   UNL     1       2.510  -0.195   0.026  0.00  0.00    -0.081 HD
ENDBRANCH   1  14
BRANCH   7  18
ATOM     18  S   UNL     1      -0.661  -4.424  -0.094  0.00  0.00    -0.075 S 
BRANCH  18  19
ATOM     19  C   UNL     1      -1.964  -5.687  -0.121  0.00  0.00    +0.202 C 
BRANCH  19  20
ATOM     20  C   UNL     1      -1.915  -6.431  -1.431  0.00  0.00    +0.366 C 
ATOM     21  O   UNL     1      -1.080  -6.136  -2.269  0.00  0.00    -0.245 OA
ATOM     22  O   UNL     1      -2.712  -7.327  -1.652  0.00  0.00    -0.245 OA
ENDBRANCH  19  20
ENDBRANCH  18  19
ENDBRANCH   7  18
TORSDOF 4
