REMARK  Name = ZINC47287039
REMARK  3 active torsions:
REMARK  status: ('A' for Active; 'I' for Inactive)
REMARK    1  A    between atoms: C_6  and  N_7
REMARK    2  A    between atoms: C_11  and  C_13
REMARK    3  A    between atoms: N_15  and  C_16
REMARK                            x       y       z     vdW  Elec       q    Type
REMARK                         _______ _______ _______ _____ _____    ______ ____
ROOT
ATOM      1  C   UNL     1       6.218  -0.146  -0.058  0.00  0.00    +0.251 C 
ATOM      2  O   UNL     1       6.538  -1.319  -0.067  0.00  0.00    -0.270 OA
ATOM      3  N   UNL     1       7.167   0.811  -0.062  0.00  0.00    -0.310 N 
ATOM      4  H   UNL     1       6.912   1.747  -0.055  0.00  0.00    +0.149 HD
ENDROOT
BRANCH   3   5
ATOM      5  C   UNL     1       8.584   0.438  -0.077  0.00  0.00    +0.058 C 
ATOM      6  C   UNL     1       9.123   0.364  -1.532  0.00  0.00    +0.002 C 
ATOM      7  C   UNL     1      10.545   0.973  -1.464  0.00  0.00    -0.077 C 
ATOM      8  N   UNL     1      10.791   1.260  -0.050  0.00  0.00    +0.383 N 
ATOM      9  C   UNL     1       9.453   1.555   0.528  0.00  0.00    -0.048 C 
ATOM     10  C   UNL     1       9.583   1.474   2.043  0.00  0.00    -0.014 C 
ATOM     11  C   UNL     1      10.554   2.582   2.482  0.00  0.00    -0.003 C 
ATOM     12  C   UNL     1      11.888   2.450   1.747  0.00  0.00    -0.019 C 
ATOM     13  C   UNL     1      11.668   2.388   0.228  0.00  0.00    -0.078 C 
ATOM     14  H   UNL     1      11.159   0.434   0.397  0.00  0.00    -0.081 HD
ENDBRANCH   3   5
BRANCH   1  22
ATOM     15  C   UNL     1      -0.017   1.385   0.010  0.00  0.00    +0.034 A 
ATOM     16  C   UNL     1       1.175   2.082   0.002  0.00  0.00    +0.018 A 
ATOM     17  C   UNL     1       2.366   1.389  -0.013  0.00  0.00    +0.020 A 
ATOM     18  C   UNL     1       2.416  -0.026  -0.021  0.00  0.00    -0.008 A 
ATOM     19  C   UNL     1       1.168  -0.700  -0.013  0.00  0.00    +0.041 A 
ATOM     20  C   UNL     1       0.002  -0.004   0.002  0.00  0.00    +0.127 A 
ATOM     21  C   UNL     1       3.707  -0.584  -0.036  0.00  0.00    +0.029 A 
ATOM     22  C   UNL     1       4.797   0.229  -0.043  0.00  0.00    +0.075 A 
ATOM     23  S   UNL     1       4.077   1.862  -0.027  0.00  0.00    -0.084 S 
BRANCH  20  24
ATOM     24  N   UNL     1      -1.280  -0.743   0.011  0.00  0.00    +0.056 N 
ATOM     25  O   UNL     1      -2.327  -0.138   0.024  0.00  0.00    -0.126 OA
ATOM     26  O   UNL     1      -1.281  -1.952   0.004  0.00  0.00    -0.126 OA
ENDBRANCH  20  24
ENDBRANCH   1  22
TORSDOF 3
