REMARK  Name = ZINC40130456
REMARK  6 active torsions:
REMARK  status: ('A' for Active; 'I' for Inactive)
REMARK    1  A    between atoms: C_1  and  C_2
REMARK    2  A    between atoms: C_2  and  C_4
REMARK    3  A    between atoms: C_2  and  N_12
REMARK    4  A    between atoms: C_13  and  C_15
REMARK    5  A    between atoms: N_23  and  C_24
REMARK    6  A    between atoms: C_24  and  C_25
REMARK                            x       y       z     vdW  Elec       q    Type
REMARK                         _______ _______ _______ _____ _____    ______ ____
ROOT
ATOM      1  C   UNL     1      -3.464  -1.160  -1.135  0.00  0.00    +0.078 C 
ATOM      2  C   UNL     1      -4.343  -0.234  -0.292  0.00  0.00    +0.032 C 
ATOM      3  C   UNL     1      -5.771  -0.787  -0.255  0.00  0.00    +0.110 C 
ATOM      4  N   UNL     1      -6.242  -0.977  -1.634  0.00  0.00    -0.286 N 
ATOM      5  C   UNL     1      -5.424  -1.776  -2.556  0.00  0.00    +0.110 C 
ATOM      6  C   UNL     1      -4.000  -1.212  -2.568  0.00  0.00    +0.032 C 
ATOM      7  C   UNL     1      -7.402  -0.427  -2.045  0.00  0.00    +0.303 C 
ATOM      8  O   UNL     1      -8.115   0.154  -1.250  0.00  0.00    -0.253 OA
ATOM      9  N   UNL     1      -7.772  -0.523  -3.338  0.00  0.00    -0.292 N 
ATOM     10  H   UNL     1      -7.241  -1.049  -3.956  0.00  0.00    +0.151 HD
ENDROOT
BRANCH   1  12
ATOM     11  N   UNL     1      -1.371  -0.504   0.010  0.00  0.00    -0.309 N 
ATOM     12  C   UNL     1      -2.050  -0.637  -1.146  0.00  0.00    +0.217 C 
ATOM     13  O   UNL     1      -1.524  -0.335  -2.196  0.00  0.00    -0.275 OA
ATOM     14  H   UNL     1      -1.793  -0.746   0.850  0.00  0.00    +0.149 HD
BRANCH  11  16
ATOM     15  C   UNL     1      -0.020   1.534   0.007  0.00  0.00    +0.033 C 
ATOM     16  C   UNL     1       0.002   0.004  -0.001  0.00  0.00    +0.100 C 
BRANCH  16  17
ATOM     17  C   UNL     1       0.732  -0.494   1.220  0.00  0.00    -0.025 A 
ATOM     18  C   UNL     1       0.082  -0.550   2.439  0.00  0.00    +0.008 A 
ATOM     19  C   UNL     1       0.749  -1.006   3.560  0.00  0.00    +0.041 A 
ATOM     20  C   UNL     1       2.070  -1.409   3.463  0.00  0.00    +0.158 A 
ATOM     21  C   UNL     1       2.722  -1.354   2.241  0.00  0.00    +0.159 A 
ATOM     22  C   UNL     1       2.049  -0.901   1.119  0.00  0.00    +0.046 A 
ATOM     23  F   UNL     1       4.011  -1.746   2.144  0.00  0.00    -0.202 F 
ATOM     24  F   UNL     1       2.723  -1.855   4.558  0.00  0.00    -0.202 F 
ENDBRANCH  16  17
ENDBRANCH  11  16
ENDBRANCH   1  12
BRANCH   9  25
ATOM     25  C   UNL     1      -8.975   0.168  -3.808  0.00  0.00    +0.180 C 
BRANCH  25  26
ATOM     26  C   UNL     1      -9.164  -0.099  -5.279  0.00  0.00    +0.122 A 
ATOM     27  C   UNL     1      -9.865  -1.116  -5.811  0.00  0.00    +0.046 A 
ATOM     28  C   UNL     1      -9.779  -0.982  -7.216  0.00  0.00    +0.041 A 
ATOM     29  C   UNL     1      -9.031   0.109  -7.459  0.00  0.00    +0.195 A 
ATOM     30  O   UNL     1      -8.666   0.643  -6.282  0.00  0.00    -0.466 OA
ENDBRANCH  25  26
ENDBRANCH   9  25
TORSDOF 5
