REMARK  Name = ZINC61126852
REMARK  11 active torsions:
REMARK  status: ('A' for Active; 'I' for Inactive)
REMARK    1  A    between atoms: C_1  and  C_2
REMARK    2  A    between atoms: C_2  and  C_3
REMARK    3  A    between atoms: C_2  and  C_4
REMARK    4  A    between atoms: C_4  and  C_5
REMARK    5  A    between atoms: C_5  and  C_27
REMARK    6  A    between atoms: N_8  and  C_12
REMARK    7  A    between atoms: C_12  and  C_13
REMARK    8  A    between atoms: N_15  and  C_16
REMARK    9  A    between atoms: C_21  and  S_22
REMARK   10  A    between atoms: S_22  and  C_23
REMARK   11  A    between atoms: C_23  and  C_24
REMARK                            x       y       z     vdW  Elec       q    Type
REMARK                         _______ _______ _______ _____ _____    ______ ____
ROOT
ATOM      1  C   UNL     1      -5.540  -2.766   3.177  0.00  0.00    +0.235 C 
ATOM      2  O   UNL     1      -4.874  -3.688   2.756  0.00  0.00    -0.274 OA
ATOM      3  N   UNL     1      -6.772  -2.996   3.674  0.00  0.00    -0.283 N 
ATOM      4  H   UNL     1      -7.290  -2.264   4.043  0.00  0.00    +0.155 HD
ENDROOT
BRANCH   3   5
ATOM      5  C   UNL     1      -7.303  -4.292   3.657  0.00  0.00    +0.047 A 
ATOM      6  C   UNL     1      -6.463  -5.390   3.771  0.00  0.00    +0.024 A 
ATOM      7  C   UNL     1      -6.990  -6.668   3.753  0.00  0.00    +0.002 A 
ATOM      8  C   UNL     1      -8.354  -6.857   3.624  0.00  0.00    +0.001 A 
ATOM      9  C   UNL     1      -9.199  -5.770   3.510  0.00  0.00    +0.016 A 
ATOM     10  C   UNL     1      -8.680  -4.483   3.532  0.00  0.00    +0.030 A 
BRANCH  10  11
ATOM     11  S   UNL     1      -9.755  -3.094   3.393  0.00  0.00    -0.114 S 
BRANCH  11  12
ATOM     12  C   UNL     1     -11.407  -3.829   3.256  0.00  0.00    +0.169 C 
BRANCH  12  13
ATOM     13  C   UNL     1     -12.436  -2.735   3.130  0.00  0.00    +0.221 C 
ATOM     14  O   UNL     1     -12.088  -1.573   3.133  0.00  0.00    -0.275 OA
ATOM     15  N   UNL     1     -13.742  -3.048   3.015  0.00  0.00    -0.329 N 
ATOM     16  H   UNL     1     -14.020  -3.977   3.013  0.00  0.00    +0.145 HD
ATOM     17  H   UNL     1     -14.404  -2.343   2.934  0.00  0.00    +0.145 HD
ENDBRANCH  12  13
ENDBRANCH  11  12
ENDBRANCH  10  11
ENDBRANCH   3   5
BRANCH   1  18
ATOM     18  C   UNL     1      -4.990  -1.363   3.146  0.00  0.00    +0.214 C 
BRANCH  18  22
ATOM     19  C   UNL     1      -1.879  -1.317   1.117  0.00  0.00    +0.110 C 
ATOM     20  C   UNL     1      -3.387  -1.238   1.250  0.00  0.00    +0.247 C 
ATOM     21  O   UNL     1      -4.194  -1.082   0.358  0.00  0.00    -0.273 OA
ATOM     22  N   UNL     1      -3.645  -1.379   2.565  0.00  0.00    -0.215 N 
ATOM     23  C   UNL     1      -2.522  -1.534   3.274  0.00  0.00    +0.310 C 
ATOM     24  O   UNL     1      -2.499  -1.680   4.481  0.00  0.00    -0.252 OA
ATOM     25  N   UNL     1      -1.420  -1.511   2.503  0.00  0.00    -0.285 N 
ATOM     26  C   UNL     1      -1.474  -2.506   0.244  0.00  0.00    +0.041 C 
ATOM     27  H   UNL     1      -0.501  -1.604   2.801  0.00  0.00    +0.151 HD
BRANCH  19  28
ATOM     28  C   UNL     1      -1.321  -0.014   0.542  0.00  0.00    +0.038 C 
BRANCH  28  30
ATOM     29  C   UNL     1       0.737   1.086  -0.351  0.00  0.00    +0.007 C 
ATOM     30  C   UNL     1       0.201  -0.119   0.425  0.00  0.00    -0.015 C 
ATOM     31  C   UNL     1       0.820  -0.141   1.824  0.00  0.00    +0.007 C 
ENDBRANCH  28  30
ENDBRANCH  19  28
ENDBRANCH  18  22
ENDBRANCH   1  18
TORSDOF 8
