REMARK  Name = ZINC12146445
REMARK  7 active torsions:
REMARK  status: ('A' for Active; 'I' for Inactive)
REMARK    1  A    between atoms: C_4  and  C_7
REMARK    2  A    between atoms: C_10  and  C_24
REMARK    3  A    between atoms: N_16  and  C_18
REMARK    4  A    between atoms: C_24  and  N_46
REMARK    5  A    between atoms: C_25  and  C_26
REMARK    6  A    between atoms: C_25  and  N_46
REMARK    7  A    between atoms: C_26  and  O_27
REMARK                            x       y       z     vdW  Elec       q    Type
REMARK                         _______ _______ _______ _____ _____    ______ ____
ROOT
ATOM      1  C   UNL     1      -1.428   1.788   0.031  0.00  0.00    +0.102 A 
ATOM      2  C   UNL     1      -0.017   1.391   0.010  0.00  0.00    +0.045 A 
ATOM      3  C   UNL     1       1.197   2.109   0.002  0.00  0.00    +0.020 A 
ATOM      4  C   UNL     1       2.371   1.421  -0.013  0.00  0.00    +0.001 A 
ATOM      5  C   UNL     1       2.361   0.015  -0.020  0.00  0.00    +0.252 A 
ATOM      6  O   UNL     1       3.417  -0.595  -0.033  0.00  0.00    -0.268 OA
ATOM      7  N   UNL     1       1.200  -0.667  -0.013  0.00  0.00    -0.307 N 
ATOM      8  H   UNL     1       1.212  -1.637  -0.018  0.00  0.00    +0.170 HD
ATOM      9  C   UNL     1       0.002  -0.004   0.002  0.00  0.00    +0.145 A 
ATOM     10  N   UNL     1      -1.290  -0.423   0.013  0.00  0.00    -0.215 N 
ATOM     11  N   UNL     1      -2.141   0.686   0.027  0.00  0.00    -0.164 NA
ENDROOT
BRANCH   1  15
ATOM     12  C   UNL     1      -2.929   5.765   0.074  0.00  0.00    +0.000 A 
ATOM     13  C   UNL     1      -3.614   4.777  -0.611  0.00  0.00    +0.001 A 
ATOM     14  C   UNL     1      -3.132   3.485  -0.628  0.00  0.00    +0.010 A 
ATOM     15  C   UNL     1      -1.951   3.175   0.046  0.00  0.00    +0.003 A 
ATOM     16  C   UNL     1      -1.268   4.174   0.738  0.00  0.00    +0.010 A 
ATOM     17  C   UNL     1      -1.757   5.464   0.745  0.00  0.00    +0.001 A 
ENDBRANCH   1  15
BRANCH  10  18
ATOM     18  C   UNL     1      -1.706  -1.761   0.010  0.00  0.00    +0.068 A 
ATOM     19  C   UNL     1      -0.983  -2.713  -0.696  0.00  0.00    +0.028 A 
ATOM     20  C   UNL     1      -1.393  -4.032  -0.693  0.00  0.00    +0.002 A 
ATOM     21  C   UNL     1      -2.529  -4.402   0.004  0.00  0.00    +0.000 A 
ATOM     22  C   UNL     1      -3.254  -3.456   0.704  0.00  0.00    +0.002 A 
ATOM     23  C   UNL     1      -2.846  -2.136   0.709  0.00  0.00    +0.028 A 
ENDBRANCH  10  18
BRANCH   4  24
ATOM     24  C   UNL     1       3.681   2.166  -0.021  0.00  0.00    -0.041 C 
BRANCH  24  25
ATOM     25  N   UNL     1       4.174   2.292   1.364  0.00  0.00    +0.383 N 
ATOM     26  H   UNL     1       4.308   1.355   1.762  0.00  0.00    -0.085 HD
ATOM     27  H   UNL     1       3.484   2.807   1.923  0.00  0.00    -0.085 HD
BRANCH  25  28
ATOM     28  C   UNL     1       5.458   3.018   1.386  0.00  0.00    -0.054 C 
BRANCH  28  29
ATOM     29  C   UNL     1       5.944   3.133   2.832  0.00  0.00    +0.137 C 
BRANCH  29  30
ATOM     30  O   UNL     1       6.233   1.830   3.342  0.00  0.00    -0.397 OA
ATOM     31  H   UNL     1       6.547   1.827   4.257  0.00  0.00    +0.209 HD
ENDBRANCH  29  30
ENDBRANCH  28  29
ENDBRANCH  25  28
ENDBRANCH  24  25
ENDBRANCH   4  24
TORSDOF 7
