REMARK  Name = ZINC58470187
REMARK  4 active torsions:
REMARK  status: ('A' for Active; 'I' for Inactive)
REMARK    1  A    between atoms: C_5  and  C_7
REMARK    2  A    between atoms: C_10  and  C_12
REMARK    3  A    between atoms: N_17  and  C_20
REMARK    4  A    between atoms: C_20  and  C_21
REMARK                            x       y       z     vdW  Elec       q    Type
REMARK                         _______ _______ _______ _____ _____    ______ ____
ROOT
ATOM      1  C   UNL     1      -0.255  -2.204  -1.936  0.00  0.00    +0.219 C 
ATOM      2  O   UNL     1      -0.170  -0.998  -1.836  0.00  0.00    -0.275 OA
ATOM      3  N   UNL     1      -0.808  -2.752  -3.037  0.00  0.00    -0.299 N 
ATOM      4  C   UNL     1      -0.926  -4.211  -3.176  0.00  0.00    +0.123 C 
ATOM      5  C   UNL     1      -2.374  -4.549  -3.543  0.00  0.00    +0.104 C 
ATOM      6  N   UNL     1      -2.768  -3.778  -4.730  0.00  0.00    -0.294 NA
ATOM      7  C   UNL     1      -2.742  -2.335  -4.460  0.00  0.00    +0.104 C 
ATOM      8  C   UNL     1      -1.314  -1.905  -4.128  0.00  0.00    +0.123 C 
ENDROOT
BRANCH   1  11
ATOM      9  C   UNL     1       0.874  -2.408   0.393  0.00  0.00    +0.034 C 
ATOM     10  C   UNL     1      -0.501  -3.072   0.500  0.00  0.00    +0.022 C 
ATOM     11  C   UNL     1       0.258  -3.090  -0.830  0.00  0.00    +0.083 C 
BRANCH   9  16
ATOM     12  C   UNL     1      -0.206   1.209   0.322  0.00  0.00    +0.000 A 
ATOM     13  C   UNL     1       1.009   1.863   0.411  0.00  0.00    +0.003 A 
ATOM     14  C   UNL     1       2.181   1.136   0.494  0.00  0.00    +0.038 A 
ATOM     15  C   UNL     1       2.139  -0.248   0.489  0.00  0.00    +0.127 A 
ATOM     16  C   UNL     1       0.922  -0.902   0.400  0.00  0.00    -0.008 A 
ATOM     17  C   UNL     1      -0.249  -0.173   0.317  0.00  0.00    +0.007 A 
ATOM     18  F   UNL     1       3.284  -0.960   0.570  0.00  0.00    -0.205 F 
ENDBRANCH   9  16
ENDBRANCH   1  11
BRANCH   6  19
ATOM     19  C   UNL     1      -4.088  -4.199  -5.218  0.00  0.00    +0.138 C 
BRANCH  19  20
ATOM     20  C   UNL     1      -3.962  -5.520  -5.932  0.00  0.00    +0.037 A 
ATOM     21  C   UNL     1      -4.576  -6.649  -5.433  0.00  0.00    +0.093 A 
ATOM     22  C   UNL     1      -4.448  -7.863  -6.109  0.00  0.00    +0.259 A 
ATOM     23  O   UNL     1      -4.990  -8.866  -5.672  0.00  0.00    -0.267 OA
ATOM     24  N   UNL     1      -3.716  -7.928  -7.261  0.00  0.00    -0.264 N 
ATOM     25  C   UNL     1      -3.500  -9.042  -8.036  0.00  0.00    +0.104 A 
ATOM     26  C   UNL     1      -2.763  -8.977  -9.145  0.00  0.00    +0.067 A 
ATOM     27  S   UNL     1      -2.301  -7.252  -9.176  0.00  0.00    -0.059 S 
ATOM     28  C   UNL     1      -3.141  -6.760  -7.686  0.00  0.00    +0.158 A 
ATOM     29  N   UNL     1      -3.261  -5.616  -7.059  0.00  0.00    -0.338 N 
ATOM     30  H   UNL     1      -2.829  -4.826  -7.421  0.00  0.00    +0.168 HD
ENDBRANCH  19  20
ENDBRANCH   6  19
TORSDOF 4
