REMARK  Name = ZINC01750428
REMARK  4 active torsions:
REMARK  status: ('A' for Active; 'I' for Inactive)
REMARK    1  A    between atoms: C_1  and  C_2
REMARK    2  A    between atoms: C_5  and  C_8
REMARK    3  A    between atoms: C_11  and  C_18
REMARK    4  A    between atoms: C_21  and  C_24
REMARK                            x       y       z     vdW  Elec       q    Type
REMARK                         _______ _______ _______ _____ _____    ______ ____
ROOT
ATOM      1  C   UNL     1       0.059  -4.275  -0.021  0.00  0.00    +0.158 C 
ATOM      2  C   UNL     1      -1.366  -4.765   0.151  0.00  0.00    +0.030 C 
ATOM      3  C   UNL     1      -1.626  -5.565   1.203  0.00  0.00    +0.073 C 
ATOM      4  N   UNL     1      -0.654  -5.923   2.080  0.00  0.00    -0.216 NA
ATOM      5  C   UNL     1       0.597  -5.538   1.994  0.00  0.00    +0.227 C 
ATOM      6  N   UNL     1       1.030  -4.724   0.986  0.00  0.00    -0.162 N 
ATOM      7  N   UNL     1       2.393  -4.500   1.175  0.00  0.00    -0.055 NA
ATOM      8  N   UNL     1       2.775  -5.103   2.186  0.00  0.00    -0.058 NA
ATOM      9  N   UNL     1       1.700  -5.786   2.765  0.00  0.00    -0.187 N 
ATOM     10  H   UNL     1       1.731  -6.334   3.564  0.00  0.00    +0.179 HD
ENDROOT
BRANCH   1  15
ATOM     11  C   UNL     1      -0.018   1.503   0.010  0.00  0.00    +0.044 C 
ATOM     12  C   UNL     1       0.002  -0.004   0.002  0.00  0.00    -0.050 A 
ATOM     13  C   UNL     1       0.006  -0.689  -1.199  0.00  0.00    +0.004 A 
ATOM     14  C   UNL     1       0.025  -2.071  -1.206  0.00  0.00    +0.006 A 
ATOM     15  C   UNL     1       0.040  -2.768  -0.013  0.00  0.00    -0.021 A 
ATOM     16  C   UNL     1       0.037  -2.084   1.188  0.00  0.00    +0.006 A 
ATOM     17  C   UNL     1       0.023  -0.702   1.195  0.00  0.00    +0.004 A 
ENDBRANCH   1  15
BRANCH   3  18
ATOM     18  C   UNL     1      -3.007  -6.066   1.408  0.00  0.00    +0.000 A 
ATOM     19  C   UNL     1      -4.018  -5.715   0.516  0.00  0.00    +0.010 A 
ATOM     20  C   UNL     1      -5.301  -6.184   0.712  0.00  0.00    +0.004 A 
ATOM     21  C   UNL     1      -5.585  -7.002   1.791  0.00  0.00    -0.050 A 
ATOM     22  C   UNL     1      -4.585  -7.353   2.680  0.00  0.00    +0.004 A 
ATOM     23  C   UNL     1      -3.297  -6.895   2.490  0.00  0.00    +0.010 A 
ATOM     24  C   UNL     1      -6.988  -7.510   2.000  0.00  0.00    +0.044 C 
ENDBRANCH   3  18
TORSDOF 2
