REMARK  Name = ZINC01137363
REMARK  4 active torsions:
REMARK  status: ('A' for Active; 'I' for Inactive)
REMARK    1  A    between atoms: C_1  and  O_2
REMARK    2  A    between atoms: O_2  and  C_3
REMARK    3  A    between atoms: C_6  and  C_9
REMARK    4  A    between atoms: N_18  and  C_19
REMARK                            x       y       z     vdW  Elec       q    Type
REMARK                         _______ _______ _______ _____ _____    ______ ____
ROOT
ATOM      1  C   UNL     1       0.051   1.532  -0.039  0.00  0.00    +0.199 C 
ATOM      2  N   UNL     1       0.006   0.068  -0.168  0.00  0.00    -0.200 NA
ATOM      3  C   UNL     1      -0.892  -0.552   0.832  0.00  0.00    +0.110 C 
ATOM      4  C   UNL     1      -0.317  -1.989   0.949  0.00  0.00    +0.038 C 
ATOM      5  C   UNL     1       1.134  -1.821   0.437  0.00  0.00    +0.127 C 
ATOM      6  N   UNL     1       1.269  -0.376   0.159  0.00  0.00    -0.243 N 
ATOM      7  C   UNL     1       2.129   0.650   0.159  0.00  0.00    +0.155 C 
ATOM      8  S   UNL     1       3.832   0.481   0.214  0.00  0.00    -0.017 S 
ATOM      9  N   UNL     1       1.486   1.833   0.109  0.00  0.00    -0.260 N 
ENDROOT
BRANCH   9  10
ATOM     10  C   UNL     1       2.068   3.103   0.185  0.00  0.00    +0.037 A 
ATOM     11  C   UNL     1       1.821   3.917   1.282  0.00  0.00    +0.025 A 
ATOM     12  C   UNL     1       2.401   5.168   1.357  0.00  0.00    +0.022 A 
ATOM     13  C   UNL     1       3.220   5.615   0.334  0.00  0.00    +0.041 A 
ATOM     14  C   UNL     1       3.463   4.808  -0.763  0.00  0.00    +0.022 A 
ATOM     15  C   UNL     1       2.890   3.554  -0.840  0.00  0.00    +0.025 A 
ATOM     16 CL   UNL     1       3.941   7.191   0.427  0.00  0.00    -0.084 Cl
ENDBRANCH   9  10
BRANCH   1  20
ATOM     17  C   UNL     1      -1.514   3.393  -3.553  0.00  0.00    +0.120 A 
ATOM     18  C   UNL     1      -0.369   2.614  -3.631  0.00  0.00    +0.046 A 
ATOM     19  C   UNL     1       0.135   2.013  -2.494  0.00  0.00    +0.010 A 
ATOM     20  C   UNL     1      -0.501   2.188  -1.278  0.00  0.00    -0.011 A 
ATOM     21  C   UNL     1      -1.646   2.959  -1.199  0.00  0.00    +0.010 A 
ATOM     22  C   UNL     1      -2.150   3.567  -2.333  0.00  0.00    +0.046 A 
BRANCH  17  24
ATOM     23  C   UNL     1      -3.195   4.771  -4.516  0.00  0.00    +0.277 C 
ATOM     24  O   UNL     1      -2.013   3.984  -4.671  0.00  0.00    -0.495 OA
ENDBRANCH  17  24
ENDBRANCH   1  20
TORSDOF 3
