REMARK  Name = ZINC18200779
REMARK  3 active torsions:
REMARK  status: ('A' for Active; 'I' for Inactive)
REMARK    1  A    between atoms: C_3  and  C_8
REMARK    2  A    between atoms: C_16  and  O_17
REMARK    3  A    between atoms: C_24  and  C_27
REMARK                            x       y       z     vdW  Elec       q    Type
REMARK                         _______ _______ _______ _____ _____    ______ ____
ROOT
ATOM      1  C   UNL     1       3.672   2.186  -0.021  0.00  0.00    +0.092 C 
ATOM      2  C   UNL     1       4.475   1.829   1.197  0.00  0.00    +0.067 A 
ATOM      3  C   UNL     1       5.593   1.041   1.135  0.00  0.00    +0.126 A 
ATOM      4  N   UNL     1       6.074   0.909   2.385  0.00  0.00    -0.260 N 
ATOM      5  H   UNL     1       6.859   0.403   2.646  0.00  0.00    +0.190 HD
ATOM      6  N   UNL     1       5.235   1.636   3.245  0.00  0.00    -0.134 NA
ATOM      7  C   UNL     1       4.279   2.185   2.528  0.00  0.00    +0.237 A 
ATOM      8  N   UNL     1       6.051   0.529  -0.073  0.00  0.00    -0.303 N 
ATOM      9  C   UNL     1       5.555   1.055  -1.239  0.00  0.00    +0.017 C 
ATOM     10  C   UNL     1       4.457   1.840  -1.268  0.00  0.00    +0.024 C 
ATOM     11  C   UNL     1       3.990   2.381  -2.479  0.00  0.00    +0.162 C 
ATOM     12  O   UNL     1       2.997   3.081  -2.473  0.00  0.00    -0.292 OA
ATOM     13  C   UNL     1       4.690   2.113  -3.782  0.00  0.00    +0.091 C 
ATOM     14  C   UNL     1       6.177   1.864  -3.505  0.00  0.00    +0.068 C 
ATOM     15  C   UNL     1       6.292   0.709  -2.513  0.00  0.00    +0.063 C 
ATOM     16  H   UNL     1       6.708  -0.185  -0.091  0.00  0.00    +0.153 HD
ENDROOT
BRANCH   1  19
ATOM     17  C   UNL     1      -0.017   1.377   0.010  0.00  0.00    +0.003 A 
ATOM     18  C   UNL     1       1.171   2.086   0.002  0.00  0.00    +0.005 A 
ATOM     19  C   UNL     1       2.378   1.413  -0.013  0.00  0.00    -0.032 A 
ATOM     20  C   UNL     1       2.399   0.030  -0.021  0.00  0.00    +0.043 A 
ATOM     21  C   UNL     1       1.211  -0.679  -0.013  0.00  0.00    +0.124 A 
ATOM     22  C   UNL     1       0.002  -0.004   0.002  0.00  0.00    +0.038 A 
ATOM     23  F   UNL     1       1.230  -2.030  -0.022  0.00  0.00    -0.205 F 
ENDBRANCH   1  19
BRANCH  14  24
ATOM     24  C   UNL     1       6.879   1.504  -4.789  0.00  0.00    +0.109 A 
ATOM     25  C   UNL     1       7.903   2.179  -5.342  0.00  0.00    +0.045 A 
ATOM     26  C   UNL     1       8.249   1.496  -6.530  0.00  0.00    +0.041 A 
ATOM     27  C   UNL     1       7.417   0.444  -6.633  0.00  0.00    +0.195 A 
ATOM     28  O   UNL     1       6.593   0.451  -5.572  0.00  0.00    -0.468 OA
ENDBRANCH  14  24
BRANCH   7  30
ATOM     29  H   UNL     1       2.480   2.475   3.261  0.00  0.00    +0.294 HD
ATOM     30  O   UNL     1       3.273   2.966   3.005  0.00  0.00    -0.491 OA
ENDBRANCH   7  30
TORSDOF 3
