REMARK  Name = ZINC11021952
REMARK  7 active torsions:
REMARK  status: ('A' for Active; 'I' for Inactive)
REMARK    1  A    between atoms: C_1  and  O_2
REMARK    2  A    between atoms: O_2  and  C_3
REMARK    3  A    between atoms: C_6  and  N_10
REMARK    4  A    between atoms: C_11  and  C_23
REMARK    5  A    between atoms: C_14  and  S_15
REMARK    6  A    between atoms: S_15  and  C_16
REMARK    7  A    between atoms: C_16  and  C_17
REMARK                            x       y       z     vdW  Elec       q    Type
REMARK                         _______ _______ _______ _____ _____    ______ ____
ROOT
ATOM      1  N   UNL     1      -5.942  -0.014   1.895  0.00  0.00    -0.270 N 
ATOM      2  C   UNL     1      -6.428  -1.302   1.942  0.00  0.00    +0.169 A 
ATOM      3  N   UNL     1      -7.733  -1.217   2.057  0.00  0.00    -0.128 NA
ATOM      4  N   UNL     1      -8.094   0.016   2.076  0.00  0.00    -0.122 NA
ATOM      5  C   UNL     1      -7.041   0.796   1.980  0.00  0.00    +0.197 A 
ENDROOT
BRANCH   1   9
ATOM      6  C   UNL     1      -1.956   1.166   1.545  0.00  0.00    +0.138 A 
ATOM      7  C   UNL     1      -2.588   0.535   0.484  0.00  0.00    +0.049 A 
ATOM      8  C   UNL     1      -3.906   0.140   0.601  0.00  0.00    +0.030 A 
ATOM      9  C   UNL     1      -4.602   0.383   1.777  0.00  0.00    +0.052 A 
ATOM     10  C   UNL     1      -3.971   1.019   2.838  0.00  0.00    +0.050 A 
ATOM     11  C   UNL     1      -2.650   1.410   2.721  0.00  0.00    +0.084 A 
ATOM     12 CL   UNL     1      -1.861   2.206   4.047  0.00  0.00    -0.080 Cl
BRANCH   6  14
ATOM     13  C   UNL     1      -0.003   1.268   0.191  0.00  0.00    +0.277 C 
ATOM     14  O   UNL     1      -0.656   1.551   1.430  0.00  0.00    -0.494 OA
ENDBRANCH   6  14
ENDBRANCH   1   9
BRANCH   2  15
ATOM     15  C   UNL     1      -5.630  -2.545   1.879  0.00  0.00    +0.020 A 
ATOM     16  C   UNL     1      -6.248  -3.759   1.572  0.00  0.00    +0.012 A 
ATOM     17  C   UNL     1      -5.497  -4.915   1.510  0.00  0.00    +0.016 A 
ATOM     18  C   UNL     1      -4.136  -4.874   1.761  0.00  0.00    +0.018 A 
ATOM     19  C   UNL     1      -3.519  -3.674   2.070  0.00  0.00    +0.016 A 
ATOM     20  C   UNL     1      -4.258  -2.511   2.131  0.00  0.00    +0.012 A 
ATOM     21 BR   UNL     1      -3.116  -6.464   1.680  0.00  0.00    -0.050 Br
ENDBRANCH   2  15
BRANCH   5  22
ATOM     22  S   UNL     1      -7.043   2.558   1.965  0.00  0.00    -0.076 S 
BRANCH  22  23
ATOM     23  C   UNL     1      -8.820   2.871   2.112  0.00  0.00    +0.173 C 
BRANCH  23  24
ATOM     24  C   UNL     1      -9.069   4.358   2.119  0.00  0.00    +0.231 C 
ATOM     25  O   UNL     1      -8.138   5.129   2.034  0.00  0.00    -0.274 OA
ATOM     26  N   UNL     1     -10.328   4.829   2.221  0.00  0.00    -0.240 N 
ATOM     27  C   UNL     1     -10.551   6.158   2.228  0.00  0.00    +0.303 C 
ATOM     28  O   UNL     1      -9.617   6.932   2.143  0.00  0.00    -0.253 OA
ATOM     29  N   UNL     1     -11.809   6.630   2.330  0.00  0.00    -0.313 N 
ATOM     30  H   UNL     1     -11.073   4.212   2.290  0.00  0.00    +0.159 HD
ATOM     31  H   UNL     1     -12.554   6.013   2.399  0.00  0.00    +0.146 HD
ATOM     32  H   UNL     1     -11.970   7.587   2.335  0.00  0.00    +0.146 HD
ENDBRANCH  23  24
ENDBRANCH  22  23
ENDBRANCH   5  22
TORSDOF 6
