REMARK  Name = ZINC20704146
REMARK  6 active torsions:
REMARK  status: ('A' for Active; 'I' for Inactive)
REMARK    1  A    between atoms: C_1  and  O_2
REMARK    2  A    between atoms: O_2  and  C_3
REMARK    3  A    between atoms: C_6  and  O_29
REMARK    4  A    between atoms: C_16  and  C_19
REMARK    5  A    between atoms: C_23  and  N_25
REMARK    6  A    between atoms: O_29  and  C_30
REMARK                            x       y       z     vdW  Elec       q    Type
REMARK                         _______ _______ _______ _____ _____    ______ ____
ROOT
ATOM      1  C   UNL     1      -0.974  10.029   0.187  0.00  0.00    +0.126 A 
ATOM      2  C   UNL     1      -1.528  10.641  -0.924  0.00  0.00    +0.049 A 
ATOM      3  C   UNL     1      -1.959   9.875  -1.992  0.00  0.00    +0.051 A 
ATOM      4  C   UNL     1      -1.835   8.499  -1.944  0.00  0.00    +0.141 A 
ATOM      5  C   UNL     1      -1.276   7.878  -0.823  0.00  0.00    +0.077 A 
ATOM      6  C   UNL     1      -0.845   8.642   0.244  0.00  0.00    +0.026 A 
ATOM      7  C   UNL     1      -0.234   8.043   1.476  0.00  0.00    +0.052 C 
ATOM      8  C   UNL     1       1.249   8.327   1.543  0.00  0.00    -0.022 C 
ATOM      9  C   UNL     1       1.895   7.283   1.999  0.00  0.00    -0.030 C 
ATOM     10  C   UNL     1       0.932   6.155   2.310  0.00  0.00    +0.033 C 
ATOM     11  C   UNL     1      -0.324   6.502   1.462  0.00  0.00    +0.029 C 
ATOM     12  C   UNL     1      -0.079   6.003   0.036  0.00  0.00    +0.105 C 
ATOM     13  N   UNL     1      -1.152   6.482  -0.837  0.00  0.00    -0.334 N 
ATOM     14  H   UNL     1      -1.755   5.764  -1.412  0.00  0.00    +0.147 HD
ENDROOT
BRANCH  12  15
ATOM     15  C   UNL     1      -0.059   4.497   0.027  0.00  0.00    -0.025 A 
ATOM     16  C   UNL     1      -1.247   3.789   0.034  0.00  0.00    +0.007 A 
ATOM     17  C   UNL     1      -1.229   2.408   0.021  0.00  0.00    +0.022 A 
ATOM     18  C   UNL     1      -0.021   1.732   0.012  0.00  0.00    +0.071 A 
ATOM     19  C   UNL     1       1.167   2.440   0.004  0.00  0.00    +0.145 A 
ATOM     20  C   UNL     1       1.147   3.822   0.012  0.00  0.00    +0.039 A 
ATOM     21 CL   UNL     1       0.002  -0.004   0.002  0.00  0.00    -0.081 Cl
BRANCH  19  22
ATOM     22  N   UNL     1       2.459   1.718  -0.012  0.00  0.00    +0.058 N 
ATOM     23  O   UNL     1       3.505   2.341  -0.018  0.00  0.00    -0.126 OA
ATOM     24  O   UNL     1       2.476   0.500  -0.018  0.00  0.00    -0.126 OA
ENDBRANCH  19  22
ENDBRANCH  12  15
BRANCH   1  26
ATOM     25  C   UNL     1      -0.713  12.203   1.114  0.00  0.00    +0.277 C 
ATOM     26  O   UNL     1      -0.553  10.788   1.233  0.00  0.00    -0.495 OA
ENDBRANCH   1  26
BRANCH   4  27
ATOM     27  O   UNL     1      -2.259   7.745  -2.995  0.00  0.00    -0.493 OA
ATOM     28  C   UNL     1      -2.820   8.441  -4.109  0.00  0.00    +0.277 C 
ENDBRANCH   4  27
TORSDOF 4
