REMARK  Name = ZINC08535466
REMARK  9 active torsions:
REMARK  status: ('A' for Active; 'I' for Inactive)
REMARK    1  A    between atoms: C_1  and  C_2
REMARK    2  A    between atoms: C_9  and  N_14
REMARK    3  A    between atoms: C_10  and  C_11
REMARK    4  A    between atoms: C_15  and  C_17
REMARK    5  A    between atoms: C_17  and  C_19
REMARK    6  A    between atoms: C_17  and  N_22
REMARK    7  A    between atoms: C_19  and  C_20
REMARK    8  A    between atoms: C_19  and  C_21
REMARK    9  A    between atoms: C_23  and  C_25
REMARK                            x       y       z     vdW  Elec       q    Type
REMARK                         _______ _______ _______ _____ _____    ______ ____
ROOT
ATOM      1  N   UNL     1      -1.258   1.302  -4.969  0.00  0.00    -0.278 N 
ATOM      2  C   UNL     1      -2.100   1.919  -5.821  0.00  0.00    +0.238 C 
ATOM      3  O   UNL     1      -2.881   2.749  -5.407  0.00  0.00    -0.273 OA
ATOM      4  H   UNL     1      -0.685   0.587  -5.286  0.00  0.00    +0.155 HD
ENDROOT
BRANCH   1  12
ATOM      5  C   UNL     1      -1.224   3.850   2.427  0.00  0.00    +0.008 C 
ATOM      6  C   UNL     1      -0.743   3.318   1.075  0.00  0.00    -0.009 C 
ATOM      7  C   UNL     1      -0.471   1.815   1.183  0.00  0.00    +0.008 C 
ATOM      8  C   UNL     1       0.237   1.322  -0.080  0.00  0.00    +0.037 C 
ATOM      9  C   UNL     1      -0.561   1.770  -1.299  0.00  0.00    -0.023 A 
ATOM     10  C   UNL     1      -1.468   2.766  -1.209  0.00  0.00    -0.004 A 
ATOM     11  S   UNL     1      -2.126   2.928  -2.844  0.00  0.00    -0.077 S 
ATOM     12  C   UNL     1      -1.210   1.690  -3.638  0.00  0.00    +0.084 A 
ATOM     13  C   UNL     1      -0.417   1.181  -2.619  0.00  0.00    +0.068 A 
ATOM     14  C   UNL     1      -1.826   3.554   0.013  0.00  0.00    +0.046 C 
BRANCH  13  15
ATOM     15  C   UNL     1       0.530   0.089  -2.866  0.00  0.00    +0.244 C 
ATOM     16  O   UNL     1       0.173  -1.067  -2.737  0.00  0.00    -0.270 OA
ATOM     17  N   UNL     1       1.796   0.366  -3.237  0.00  0.00    -0.325 N 
ATOM     18  H   UNL     1       2.080   1.288  -3.340  0.00  0.00    +0.145 HD
ATOM     19  H   UNL     1       2.422  -0.356  -3.400  0.00  0.00    +0.145 HD
ENDBRANCH  13  15
ENDBRANCH   1  12
BRANCH   2  20
ATOM     20  C   UNL     1      -2.072   1.576  -7.288  0.00  0.00    +0.162 C 
BRANCH  20  21
ATOM     21  N   UNL     1      -2.494   2.741  -8.069  0.00  0.00    -0.297 N 
ATOM     22  C   UNL     1      -2.091   2.877  -9.348  0.00  0.00    +0.280 C 
ATOM     23  O   UNL     1      -1.377   2.032  -9.854  0.00  0.00    -0.267 OA
ATOM     24  H   UNL     1      -3.064   3.415  -7.666  0.00  0.00    +0.150 HD
BRANCH  22  25
ATOM     25  C   UNL     1      -2.514   4.043 -10.131  0.00  0.00    +0.189 A 
ATOM     26  C   UNL     1      -2.180   4.303 -11.429  0.00  0.00    +0.054 A 
ATOM     27  C   UNL     1      -2.799   5.515 -11.771  0.00  0.00    +0.042 A 
ATOM     28  C   UNL     1      -3.475   5.938 -10.680  0.00  0.00    +0.196 A 
ATOM     29  O   UNL     1      -3.305   5.045  -9.695  0.00  0.00    -0.458 OA
ENDBRANCH  22  25
ENDBRANCH  20  21
BRANCH  20  30
ATOM     30  C   UNL     1      -3.024   0.409  -7.558  0.00  0.00    +0.012 C 
ATOM     31  C   UNL     1      -2.922  -0.003  -9.028  0.00  0.00    +0.009 C 
ATOM     32  C   UNL     1      -2.643  -0.776  -6.668  0.00  0.00    +0.009 C 
ENDBRANCH  20  30
ENDBRANCH   2  20
TORSDOF 6
