REMARK  Name = ZINC22935392
REMARK  11 active torsions:
REMARK  status: ('A' for Active; 'I' for Inactive)
REMARK    1  A    between atoms: C_1  and  C_2
REMARK    2  A    between atoms: C_5  and  C_9
REMARK    3  A    between atoms: C_6  and  C_8
REMARK    4  A    between atoms: C_9  and  N_10
REMARK    5  A    between atoms: N_10  and  C_11
REMARK    6  A    between atoms: C_12  and  C_14
REMARK    7  A    between atoms: C_14  and  N_15
REMARK    8  A    between atoms: N_18  and  C_21
REMARK    9  A    between atoms: C_21  and  C_22
REMARK   10  A    between atoms: C_26  and  C_33
REMARK   11  A    between atoms: C_29  and  C_32
REMARK                            x       y       z     vdW  Elec       q    Type
REMARK                         _______ _______ _______ _____ _____    ______ ____
ROOT
ATOM      1  N   UNL     1      -5.029  -0.216  -0.616  0.00  0.00    -0.298 NA
ATOM      2  C   UNL     1      -5.097   0.469   0.682  0.00  0.00    +0.066 C 
ATOM      3  C   UNL     1      -3.994   1.527   0.757  0.00  0.00    -0.063 C 
ATOM      4  N   UNL     1      -2.687   0.882   0.573  0.00  0.00    +0.387 N 
ATOM      5  C   UNL     1      -2.618   0.198  -0.726  0.00  0.00    -0.063 C 
ATOM      6  C   UNL     1      -3.721  -0.861  -0.800  0.00  0.00    +0.066 C 
ATOM      7  H   UNL     1      -2.567   0.126   1.363  0.00  0.00    -0.081 HD
ENDROOT
BRANCH   1   8
ATOM      8  C   UNL     1      -6.120  -1.189  -0.756  0.00  0.00    +0.180 C 
BRANCH   8  11
ATOM      9  N   UNL     1      -7.095  -2.596  -2.542  0.00  0.00    -0.299 N 
ATOM     10  C   UNL     1      -8.058  -3.096  -1.557  0.00  0.00    +0.132 C 
ATOM     11  C   UNL     1      -6.167  -1.689  -2.177  0.00  0.00    +0.230 C 
ATOM     12  O   UNL     1      -5.370  -1.276  -2.993  0.00  0.00    -0.274 OA
BRANCH   9  13
ATOM     13  C   UNL     1      -7.141  -3.083  -3.923  0.00  0.00    +0.142 C 
BRANCH  13  18
ATOM     14  C   UNL     1      -4.092  -7.973  -4.346  0.00  0.00    +0.044 C 
ATOM     15  C   UNL     1      -4.887  -6.697  -4.236  0.00  0.00    -0.050 A 
ATOM     16  C   UNL     1      -5.071  -6.102  -3.001  0.00  0.00    +0.004 A 
ATOM     17  C   UNL     1      -5.800  -4.932  -2.900  0.00  0.00    +0.006 A 
ATOM     18  C   UNL     1      -6.346  -4.358  -4.033  0.00  0.00    -0.027 A 
ATOM     19  C   UNL     1      -6.166  -4.955  -5.266  0.00  0.00    -0.046 A 
ATOM     20  C   UNL     1      -5.432  -6.123  -5.368  0.00  0.00    +0.007 A 
ATOM     21  C   UNL     1      -6.766  -4.332  -6.500  0.00  0.00    +0.044 C 
ENDBRANCH  13  18
ENDBRANCH   9  13
ENDBRANCH   8  11
ENDBRANCH   1   8
BRANCH   4  22
ATOM     22  C   UNL     1      -1.595   1.855   0.713  0.00  0.00    +0.019 C 
BRANCH  22  23
ATOM     23  C   UNL     1      -0.277   1.128   0.764  0.00  0.00    +0.199 C 
ATOM     24  O   UNL     1      -0.249  -0.083   0.691  0.00  0.00    -0.278 OA
ATOM     25  N   UNL     1       0.872   1.822   0.886  0.00  0.00    -0.303 N 
ATOM     26  C   UNL     1       0.855   3.289   0.970  0.00  0.00    +0.111 C 
ATOM     27  C   UNL     1       1.628   3.715   2.227  0.00  0.00    +0.004 C 
ATOM     28  C   UNL     1       3.031   3.105   2.188  0.00  0.00    +0.009 C 
ATOM     29  C   UNL     1       2.925   1.578   2.183  0.00  0.00    +0.004 C 
ATOM     30  C   UNL     1       2.166   1.127   0.931  0.00  0.00    +0.111 C 
ATOM     31  C   UNL     1       2.171   1.115   3.432  0.00  0.00    +0.009 C 
ATOM     32  C   UNL     1       1.736   5.241   2.265  0.00  0.00    +0.009 C 
ENDBRANCH  22  23
ENDBRANCH   4  22
TORSDOF 6
