REMARK  Name = ZINC63478275
REMARK  5 active torsions:
REMARK  status: ('A' for Active; 'I' for Inactive)
REMARK    1  A    between atoms: C_1  and  C_2
REMARK    2  A    between atoms: C_2  and  O_3
REMARK    3  A    between atoms: O_3  and  C_4
REMARK    4  A    between atoms: C_9  and  N_12
REMARK    5  A    between atoms: C_13  and  C_15
REMARK                            x       y       z     vdW  Elec       q    Type
REMARK                         _______ _______ _______ _____ _____    ______ ____
ROOT
ATOM      1  N   UNL     1       1.277  -3.730   6.321  0.00  0.00    -0.310 N 
ATOM      2  C   UNL     1       1.821  -4.789   6.952  0.00  0.00    +0.240 C 
ATOM      3  O   UNL     1       2.712  -5.419   6.422  0.00  0.00    -0.273 OA
ATOM      4  H   UNL     1       0.565  -3.226   6.745  0.00  0.00    +0.149 HD
ENDROOT
BRANCH   2   5
ATOM      5  C   UNL     1       1.324  -5.190   8.317  0.00  0.00    +0.190 C 
ATOM      6  C   UNL     1       1.572  -4.077   9.311  0.00  0.00    +0.016 C 
ATOM      7  C   UNL     1       2.391  -4.594  10.255  0.00  0.00    -0.002 A 
ATOM      8  C   UNL     1       2.989  -4.028  11.470  0.00  0.00    +0.029 A 
ATOM      9  C   UNL     1       3.786  -4.810  12.235  0.00  0.00    +0.042 A 
ATOM     10  C   UNL     1       4.054  -6.144  11.896  0.00  0.00    +0.022 A 
ATOM     11  C   UNL     1       3.541  -6.734  10.795  0.00  0.00    +0.027 A 
ATOM     12  C   UNL     1       2.690  -6.005   9.920  0.00  0.00    +0.043 A 
ATOM     13  N   UNL     1       2.078  -6.348   8.810  0.00  0.00    -0.370 N 
ATOM     14 CL   UNL     1       4.495  -4.144  13.673  0.00  0.00    -0.084 Cl
ATOM     15  H   UNL     1       2.118  -7.220   8.387  0.00  0.00    +0.161 HD
ENDBRANCH   2   5
BRANCH   1  21
ATOM     16  C   UNL     1       0.801  -1.812   1.304  0.00  0.00    +0.403 C 
ATOM     17  O   UNL     1       0.321  -2.554   0.470  0.00  0.00    -0.226 OA
ATOM     18  N   UNL     1       1.441  -2.324   2.374  0.00  0.00    -0.267 N 
ATOM     19  C   UNL     1       2.021  -1.440   3.394  0.00  0.00    +0.113 C 
ATOM     20  C   UNL     1       1.483  -1.852   4.768  0.00  0.00    +0.041 C 
ATOM     21  C   UNL     1       1.761  -3.340   4.995  0.00  0.00    +0.076 C 
ATOM     22  C   UNL     1       1.039  -4.164   3.926  0.00  0.00    +0.041 C 
ATOM     23  C   UNL     1       1.567  -3.778   2.546  0.00  0.00    +0.113 C 
BRANCH  16  24
ATOM     24  O   UNL     1       0.693  -0.477   1.160  0.00  0.00    -0.451 OA
BRANCH  24  26
ATOM     25  C   UNL     1      -0.019   1.526   0.010  0.00  0.00    +0.048 C 
ATOM     26  C   UNL     1       0.002  -0.004   0.002  0.00  0.00    +0.230 C 
ENDBRANCH  24  26
ENDBRANCH  16  24
ENDBRANCH   1  21
TORSDOF 4
