REMARK  Name = ZINC53485084
REMARK  6 active torsions:
REMARK  status: ('A' for Active; 'I' for Inactive)
REMARK    1  A    between atoms: C_1  and  C_2
REMARK    2  A    between atoms: C_6  and  C_26
REMARK    3  A    between atoms: C_8  and  N_11
REMARK    4  A    between atoms: C_12  and  C_14
REMARK    5  A    between atoms: C_26  and  C_27
REMARK    6  A    between atoms: C_26  and  C_28
REMARK                            x       y       z     vdW  Elec       q    Type
REMARK                         _______ _______ _______ _____ _____    ______ ____
ROOT
ATOM      1  N   UNL     1       1.537  -2.391   2.465  0.00  0.00    -0.307 N 
ATOM      2  C   UNL     1       2.884  -2.336   2.462  0.00  0.00    +0.261 C 
ATOM      3  O   UNL     1       3.474  -1.970   1.466  0.00  0.00    -0.269 OA
ATOM      4  H   UNL     1       1.065  -2.684   3.261  0.00  0.00    +0.149 HD
ENDROOT
BRANCH   2   5
ATOM      5  C   UNL     1       3.644  -2.723   3.675  0.00  0.00    +0.106 A 
ATOM      6  C   UNL     1       2.962  -3.135   4.773  0.00  0.00    +0.082 A 
ATOM      7  C   UNL     1       3.667  -3.510   5.947  0.00  0.00    +0.190 A 
ATOM      8  O   UNL     1       3.075  -3.883   6.945  0.00  0.00    -0.287 OA
ATOM      9  C   UNL     1       5.138  -3.436   5.919  0.00  0.00    +0.045 A 
ATOM     10  C   UNL     1       5.904  -3.788   7.032  0.00  0.00    +0.014 A 
ATOM     11  C   UNL     1       7.266  -3.706   6.968  0.00  0.00    +0.001 A 
ATOM     12  C   UNL     1       7.895  -3.275   5.807  0.00  0.00    +0.002 A 
ATOM     13  C   UNL     1       7.158  -2.922   4.698  0.00  0.00    +0.026 A 
ATOM     14  C   UNL     1       5.768  -2.998   4.740  0.00  0.00    +0.051 A 
ATOM     15  N   UNL     1       5.007  -2.659   3.646  0.00  0.00    -0.350 N 
ATOM     16  H   UNL     1       5.450  -2.362   2.836  0.00  0.00    +0.166 HD
ENDBRANCH   2   5
BRANCH   1  22
ATOM     17  C   UNL     1      -0.301   1.434  -0.071  0.00  0.00    +0.007 C 
ATOM     18  C   UNL     1      -0.150  -0.088  -0.028  0.00  0.00    -0.012 C 
ATOM     19  C   UNL     1      -1.535  -0.737   0.011  0.00  0.00    +0.004 C 
ATOM     20  C   UNL     1      -1.385  -2.259   0.054  0.00  0.00    +0.006 C 
ATOM     21  C   UNL     1      -0.600  -2.658   1.305  0.00  0.00    +0.012 C 
ATOM     22  C   UNL     1       0.785  -2.009   1.267  0.00  0.00    +0.077 C 
ATOM     23  C   UNL     1       0.634  -0.487   1.224  0.00  0.00    +0.026 C 
BRANCH  21  24
ATOM     24  C   UNL     1      -0.449  -4.180   1.349  0.00  0.00    -0.012 C 
ATOM     25  C   UNL     1      -1.824  -4.824   1.536  0.00  0.00    +0.007 C 
ATOM     26  C   UNL     1       0.169  -4.669   0.037  0.00  0.00    +0.007 C 
ENDBRANCH  21  24
ENDBRANCH   1  22
TORSDOF 3
