REMARK  Name = ZINC62515850
REMARK  4 active torsions:
REMARK  status: ('A' for Active; 'I' for Inactive)
REMARK    1  A    between atoms: C_1  and  C_2
REMARK    2  A    between atoms: C_2  and  C_3
REMARK    3  A    between atoms: C_3  and  C_5
REMARK    4  A    between atoms: C_3  and  N_6
REMARK                            x       y       z     vdW  Elec       q    Type
REMARK                         _______ _______ _______ _____ _____    ______ ____
ROOT
ATOM      1  N   UNL     1      -2.082  -0.165   1.274  0.00  0.00    -0.297 N 
ATOM      2  C   UNL     1      -3.424  -0.053   1.334  0.00  0.00    +0.303 C 
ATOM      3  O   UNL     1      -4.090  -0.172   0.324  0.00  0.00    -0.253 OA
ATOM      4  N   UNL     1      -4.027   0.189   2.515  0.00  0.00    -0.275 N 
ATOM      5  C   UNL     1      -5.489   0.200   2.640  0.00  0.00    +0.137 C 
ATOM      6  C   UNL     1      -5.970   1.508   3.236  0.00  0.00    +0.124 C 
ATOM      7  C   UNL     1      -6.561   2.402   2.181  0.00  0.00    -0.021 A 
ATOM      8  C   UNL     1      -7.337   1.824   1.186  0.00  0.00    +0.025 A 
ATOM      9  C   UNL     1      -7.909   2.605   0.202  0.00  0.00    +0.041 A 
ATOM     10  C   UNL     1      -7.708   3.974   0.209  0.00  0.00    +0.020 A 
ATOM     11  C   UNL     1      -6.934   4.549   1.195  0.00  0.00    +0.005 A 
ATOM     12  C   UNL     1      -6.354   3.765   2.184  0.00  0.00    -0.041 A 
ATOM     13  C   UNL     1      -5.502   4.455   3.217  0.00  0.00    +0.054 C 
ATOM     14  C   UNL     1      -5.332   3.585   4.461  0.00  0.00    +0.113 C 
ATOM     15  N   UNL     1      -4.968   2.231   3.998  0.00  0.00    -0.291 N 
ATOM     16  C   UNL     1      -3.746   1.766   4.294  0.00  0.00    +0.234 C 
ATOM     17  O   UNL     1      -3.034   2.400   5.043  0.00  0.00    -0.274 OA
ATOM     18  C   UNL     1      -3.248   0.450   3.739  0.00  0.00    +0.205 C 
ATOM     19 CL   UNL     1      -8.877   1.873  -1.040  0.00  0.00    -0.084 Cl
ATOM     20  H   UNL     1      -1.545   0.000   2.064  0.00  0.00    +0.151 HD
ENDROOT
BRANCH   1  21
ATOM     21  C   UNL     1      -1.434  -0.537   0.013  0.00  0.00    +0.071 C 
ATOM     22  C   UNL     1      -1.420  -2.061  -0.123  0.00  0.00    +0.028 C 
BRANCH  21  24
ATOM     23  C   UNL     1      -0.014   1.518   0.015  0.00  0.00    +0.005 C 
ATOM     24  C   UNL     1       0.003  -0.011   0.004  0.00  0.00    +0.019 C 
ENDBRANCH  21  24
ENDBRANCH   1  21
TORSDOF 2
