REMARK  Name = ZINC39855711
REMARK  8 active torsions:
REMARK  status: ('A' for Active; 'I' for Inactive)
REMARK    1  A    between atoms: C_1  and  C_2
REMARK    2  A    between atoms: C_6  and  C_7
REMARK    3  A    between atoms: N_9  and  C_10
REMARK    4  A    between atoms: N_9  and  C_11
REMARK    5  A    between atoms: C_11  and  C_12
REMARK    6  A    between atoms: C_19  and  C_24
REMARK    7  A    between atoms: C_19  and  C_25
REMARK    8  A    between atoms: N_22  and  O_23
REMARK                            x       y       z     vdW  Elec       q    Type
REMARK                         _______ _______ _______ _____ _____    ______ ____
ROOT
ATOM      1  C   UNL     1       0.652   1.487   0.072  0.00  0.00    +0.048 C 
ATOM      2  C   UNL     1       0.698  -0.020   0.078  0.00  0.00    +0.009 A 
ATOM      3  C   UNL     1       0.935  -0.858  -1.018  0.00  0.00    +0.044 A 
ATOM      4  C   UNL     1       0.887  -2.155  -0.564  0.00  0.00    +0.116 A 
ATOM      5  O   UNL     1       0.638  -2.124   0.743  0.00  0.00    -0.454 OA
ATOM      6  C   UNL     1       0.523  -0.841   1.156  0.00  0.00    +0.193 A 
ATOM      7  C   UNL     1       1.091  -3.347  -1.464  0.00  0.00    +0.081 C 
ATOM      8  C   UNL     1       0.834  -2.938  -2.916  0.00  0.00    -0.023 C 
ATOM      9  C   UNL     1       1.671  -1.709  -3.288  0.00  0.00    +0.066 C 
ATOM     10  C   UNL     1       1.200  -0.538  -2.438  0.00  0.00    +0.091 C 
ATOM     11  N   UNL     1       1.042   0.652  -2.923  0.00  0.00    -0.091 NA
ATOM     12  C   UNL     1       1.205  -4.099  -3.841  0.00  0.00    +0.011 C 
ATOM     13  C   UNL     1      -0.650  -2.609  -3.093  0.00  0.00    +0.011 C 
ENDROOT
BRANCH   6  14
ATOM     14  C   UNL     1       0.253  -0.406   2.531  0.00  0.00    +0.282 C 
ATOM     15  O   UNL     1       0.301   0.777   2.815  0.00  0.00    -0.267 OA
ATOM     16  N   UNL     1      -0.048  -1.315   3.479  0.00  0.00    -0.294 N 
ATOM     17  C   UNL     1      -0.031  -2.744   3.156  0.00  0.00    +0.133 C 
BRANCH  16  18
ATOM     18  C   UNL     1      -0.393  -0.874   4.834  0.00  0.00    +0.143 C 
BRANCH  18  19
ATOM     19  C   UNL     1      -1.881  -0.656   4.927  0.00  0.00    -0.030 A 
ATOM     20  C   UNL     1      -2.417   0.584   4.631  0.00  0.00    +0.005 A 
ATOM     21  C   UNL     1      -3.783   0.784   4.717  0.00  0.00    +0.000 A 
ATOM     22  C   UNL     1      -4.611  -0.255   5.099  0.00  0.00    +0.000 A 
ATOM     23  C   UNL     1      -4.074  -1.494   5.394  0.00  0.00    +0.000 A 
ATOM     24  C   UNL     1      -2.710  -1.696   5.304  0.00  0.00    +0.005 A 
ENDBRANCH  18  19
ENDBRANCH  16  18
ENDBRANCH   6  14
BRANCH  11  25
ATOM     25  O   UNL     1       1.311   0.900  -4.291  0.00  0.00    -0.409 OA
ATOM     26  H   UNL     1       1.165   1.817  -4.560  0.00  0.00    +0.328 HD
ENDBRANCH  11  25
TORSDOF 4
