REMARK  Name = ZINC47865411
REMARK  7 active torsions:
REMARK  status: ('A' for Active; 'I' for Inactive)
REMARK    1  A    between atoms: C_1  and  N_2
REMARK    2  A    between atoms: N_2  and  C_3
REMARK    3  A    between atoms: C_3  and  C_4
REMARK    4  A    between atoms: N_14  and  C_15
REMARK    5  A    between atoms: C_17  and  N_25
REMARK    6  A    between atoms: C_20  and  O_21
REMARK    7  A    between atoms: O_21  and  C_22
REMARK                            x       y       z     vdW  Elec       q    Type
REMARK                         _______ _______ _______ _____ _____    ______ ____
ROOT
ATOM      1  C   UNL     1       0.008   1.462   0.009  0.00  0.00    +0.134 C 
ATOM      2  N   UNL     1       0.020  -0.003   0.002  0.00  0.00    -0.284 N 
ATOM      3  C   UNL     1       0.005  -0.671  -1.169  0.00  0.00    +0.307 C 
ATOM      4  O   UNL     1       0.014  -1.887  -1.175  0.00  0.00    -0.252 OA
ATOM      5  N   UNL     1      -0.020   0.009  -2.332  0.00  0.00    -0.266 N 
ATOM      6  H   UNL     1      -0.110   0.974  -2.328  0.00  0.00    +0.156 HD
ENDROOT
BRANCH   5   7
ATOM      7  C   UNL     1       0.084  -0.680  -3.549  0.00  0.00    +0.079 A 
ATOM      8  C   UNL     1       0.705  -1.919  -3.595  0.00  0.00    +0.059 A 
ATOM      9  C   UNL     1       0.806  -2.597  -4.796  0.00  0.00    +0.128 A 
ATOM     10  C   UNL     1       0.288  -2.043  -5.952  0.00  0.00    +0.036 A 
ATOM     11  C   UNL     1      -0.333  -0.808  -5.913  0.00  0.00    +0.050 A 
ATOM     12  C   UNL     1      -0.443  -0.125  -4.713  0.00  0.00    +0.148 A 
BRANCH   9  13
ATOM     13  N   UNL     1       1.470  -3.919  -4.844  0.00  0.00    +0.056 N 
ATOM     14  O   UNL     1       1.923  -4.405  -3.834  0.00  0.00    -0.126 OA
ATOM     15  O   UNL     1       1.558  -4.513  -5.893  0.00  0.00    -0.126 OA
ENDBRANCH   9  13
BRANCH  12  16
ATOM     16  O   UNL     1      -1.058   1.087  -4.672  0.00  0.00    -0.432 OA
BRANCH  16  17
ATOM     17  C   UNL     1      -1.574   1.594  -5.904  0.00  0.00    +0.541 C 
ATOM     18  F   UNL     1      -0.529   1.734  -6.824  0.00  0.00    -0.166 F 
ATOM     19  F   UNL     1      -2.527   0.706  -6.412  0.00  0.00    -0.166 F 
ENDBRANCH  16  17
ENDBRANCH  12  16
ENDBRANCH   5   7
BRANCH   2  20
ATOM     20  C   UNL     1       0.047  -0.742   1.267  0.00  0.00    +0.147 C 
BRANCH  20  21
ATOM     21  C   UNL     1      -1.365  -1.006   1.724  0.00  0.00    +0.005 A 
ATOM     22  C   UNL     1      -1.938  -0.204   2.693  0.00  0.00    +0.011 A 
ATOM     23  C   UNL     1      -3.232  -0.445   3.113  0.00  0.00    +0.039 A 
ATOM     24  C   UNL     1      -3.956  -1.491   2.565  0.00  0.00    +0.126 A 
ATOM     25  C   UNL     1      -3.382  -2.295   1.595  0.00  0.00    +0.077 A 
ATOM     26  C   UNL     1      -2.088  -2.049   1.171  0.00  0.00    +0.131 A 
ATOM     27  F   UNL     1      -1.529  -2.829   0.220  0.00  0.00    -0.205 F 
ATOM     28  F   UNL     1      -5.221  -1.727   2.977  0.00  0.00    -0.205 F 
ENDBRANCH  20  21
ENDBRANCH   2  20
TORSDOF 6
