REMARK  Name = ZINC40266139
REMARK  3 active torsions:
REMARK  status: ('A' for Active; 'I' for Inactive)
REMARK    1  A    between atoms: C_5  and  C_7
REMARK    2  A    between atoms: C_10  and  O_24
REMARK    3  A    between atoms: N_16  and  C_17
REMARK                            x       y       z     vdW  Elec       q    Type
REMARK                         _______ _______ _______ _____ _____    ______ ____
ROOT
ATOM      1  C   UNL     1       1.228  -2.186  -0.022  0.00  0.00    +0.083 C 
ATOM      2  C   UNL     1       0.508  -2.722   1.221  0.00  0.00    +0.110 C 
ATOM      3  C   UNL     1      -0.982  -2.645   1.070  0.00  0.00    +0.190 C 
ATOM      4  N   UNL     1      -1.592  -2.780  -0.071  0.00  0.00    -0.197 NA
ATOM      5  C   UNL     1      -0.850  -2.969  -1.199  0.00  0.00    +0.165 A 
ATOM      6  C   UNL     1       0.496  -2.700  -1.237  0.00  0.00    +0.094 A 
ATOM      7  N   UNL     1       0.940  -2.972  -2.457  0.00  0.00    -0.237 NA
ATOM      8  C   UNL     1      -0.052  -3.404  -3.196  0.00  0.00    +0.206 A 
ATOM      9  N   UNL     1      -1.194  -3.418  -2.440  0.00  0.00    -0.283 N 
ENDROOT
BRANCH   1  14
ATOM     10  C   UNL     1      -0.017   1.378   0.010  0.00  0.00    +0.000 A 
ATOM     11  C   UNL     1       1.171   2.087   0.002  0.00  0.00    +0.003 A 
ATOM     12  C   UNL     1       2.377   1.414  -0.013  0.00  0.00    +0.038 A 
ATOM     13  C   UNL     1       2.397   0.029  -0.021  0.00  0.00    +0.127 A 
ATOM     14  C   UNL     1       1.208  -0.679  -0.013  0.00  0.00    -0.003 A 
ATOM     15  C   UNL     1       0.002  -0.004   0.002  0.00  0.00    +0.007 A 
ATOM     16  F   UNL     1       3.577  -0.630  -0.036  0.00  0.00    -0.205 F 
ENDBRANCH   1  14
BRANCH   9  17
ATOM     17  C   UNL     1      -2.470  -3.818  -2.861  0.00  0.00    +0.052 A 
ATOM     18  C   UNL     1      -3.201  -4.723  -2.102  0.00  0.00    +0.026 A 
ATOM     19  C   UNL     1      -4.458  -5.116  -2.517  0.00  0.00    +0.005 A 
ATOM     20  C   UNL     1      -4.990  -4.611  -3.689  0.00  0.00    +0.038 A 
ATOM     21  C   UNL     1      -4.265  -3.709  -4.449  0.00  0.00    +0.125 A 
ATOM     22  C   UNL     1      -3.008  -3.307  -4.034  0.00  0.00    +0.064 A 
ATOM     23  F   UNL     1      -4.787  -3.217  -5.594  0.00  0.00    -0.205 F 
ENDBRANCH   9  17
BRANCH   3  24
ATOM     24  O   UNL     1      -1.728  -2.424   2.173  0.00  0.00    -0.495 OA
ATOM     25  H   UNL     1      -2.679  -2.386   2.004  0.00  0.00    +0.293 HD
ENDBRANCH   3  24
TORSDOF 3
