REMARK  Name = ZINC04096280
REMARK  8 active torsions:
REMARK  status: ('A' for Active; 'I' for Inactive)
REMARK    1  A    between atoms: C_4  and  C_7
REMARK    2  A    between atoms: C_15  and  O_19
REMARK    3  A    between atoms: O_19  and  C_20
REMARK    4  A    between atoms: C_22  and  O_35
REMARK    5  A    between atoms: C_24  and  O_34
REMARK    6  A    between atoms: C_26  and  O_33
REMARK    7  A    between atoms: C_28  and  C_31
REMARK    8  A    between atoms: C_31  and  O_32
REMARK                            x       y       z     vdW  Elec       q    Type
REMARK                         _______ _______ _______ _____ _____    ______ ____
ROOT
ATOM      1  C   UNL     1       9.588   1.808   4.857  0.00  0.00    +0.211 C 
ATOM      2  C   UNL     1      10.014   3.179   4.311  0.00  0.00    +0.129 C 
ATOM      3  C   UNL     1       9.373   3.336   2.944  0.00  0.00    +0.170 C 
ATOM      4  O   UNL     1       9.970   3.836   2.013  0.00  0.00    -0.292 OA
ATOM      5  C   UNL     1       7.991   2.851   2.806  0.00  0.00    +0.059 A 
ATOM      6  C   UNL     1       7.231   3.172   1.677  0.00  0.00    +0.018 A 
ATOM      7  C   UNL     1       5.955   2.701   1.562  0.00  0.00    +0.046 A 
ATOM      8  C   UNL     1       5.404   1.912   2.569  0.00  0.00    +0.128 A 
ATOM      9  C   UNL     1       6.145   1.588   3.696  0.00  0.00    +0.092 A 
ATOM     10  C   UNL     1       7.443   2.055   3.828  0.00  0.00    +0.135 A 
ATOM     11  O   UNL     1       8.164   1.750   4.931  0.00  0.00    -0.483 OA
ENDROOT
BRANCH   1  15
ATOM     12  C   UNL     1      11.244   1.251   8.756  0.00  0.00    +0.000 A 
ATOM     13  C   UNL     1      11.903   0.753   7.647  0.00  0.00    +0.000 A 
ATOM     14  C   UNL     1      11.367   0.934   6.386  0.00  0.00    +0.007 A 
ATOM     15  C   UNL     1      10.172   1.612   6.233  0.00  0.00    -0.007 A 
ATOM     16  C   UNL     1       9.516   2.114   7.340  0.00  0.00    +0.007 A 
ATOM     17  C   UNL     1      10.049   1.930   8.602  0.00  0.00    +0.000 A 
ENDBRANCH   1  15
BRANCH   8  18
ATOM     18  O   UNL     1       4.134   1.452   2.445  0.00  0.00    -0.461 OA
BRANCH  18  19
ATOM     19  C   UNL     1       3.424   1.822   1.261  0.00  0.00    +0.339 C 
ATOM     20  C   UNL     1       2.066   1.115   1.238  0.00  0.00    +0.214 C 
ATOM     21  C   UNL     1       1.286   1.562  -0.002  0.00  0.00    +0.180 C 
ATOM     22  C   UNL     1       1.147   3.087   0.019  0.00  0.00    +0.177 C 
ATOM     23  C   UNL     1       2.540   3.718   0.088  0.00  0.00    +0.179 C 
ATOM     24  O   UNL     1       3.222   3.237   1.248  0.00  0.00    -0.331 OA
BRANCH  22  25
ATOM     25  O   UNL     1       0.484   3.522  -1.170  0.00  0.00    -0.386 OA
ATOM     26  H   UNL     1      -0.404   3.156  -1.282  0.00  0.00    +0.210 HD
ENDBRANCH  22  25
BRANCH  21  27
ATOM     27  O   UNL     1      -0.011   0.963   0.007  0.00  0.00    -0.386 OA
ATOM     28  H   UNL     1       0.002  -0.004   0.002  0.00  0.00    +0.210 HD
ENDBRANCH  21  27
BRANCH  20  29
ATOM     29  O   UNL     1       2.264  -0.300   1.194  0.00  0.00    -0.383 OA
ATOM     30  H   UNL     1       2.752  -0.653   1.950  0.00  0.00    +0.210 HD
ENDBRANCH  20  29
BRANCH  23  31
ATOM     31  C   UNL     1       2.407   5.240   0.170  0.00  0.00    +0.190 C 
BRANCH  31  32
ATOM     32  O   UNL     1       3.705   5.835   0.119  0.00  0.00    -0.392 OA
ATOM     33  H   UNL     1       3.698   6.801   0.166  0.00  0.00    +0.210 HD
ENDBRANCH  31  32
ENDBRANCH  23  31
ENDBRANCH  18  19
ENDBRANCH   8  18
TORSDOF 8
