REMARK  Name = ZINC65272688
REMARK  7 active torsions:
REMARK  status: ('A' for Active; 'I' for Inactive)
REMARK    1  A    between atoms: C_1  and  C_2
REMARK    2  A    between atoms: C_2  and  N_3
REMARK    3  A    between atoms: N_3  and  C_4
REMARK    4  A    between atoms: C_4  and  C_5
REMARK    5  A    between atoms: C_6  and  C_8
REMARK    6  A    between atoms: C_15  and  C_18
REMARK    7  A    between atoms: N_23  and  C_26
REMARK                            x       y       z     vdW  Elec       q    Type
REMARK                         _______ _______ _______ _____ _____    ______ ____
ROOT
ATOM      1  C   UNL     1       3.563  -0.402  -4.472  0.00  0.00    +0.075 A 
ATOM      2  C   UNL     1       3.125  -0.241  -5.773  0.00  0.00    +0.024 A 
ATOM      3  C   UNL     1       2.406  -1.290  -6.326  0.00  0.00    -0.036 A 
ATOM      4  C   UNL     1       2.200  -2.379  -5.530  0.00  0.00    -0.006 A 
ATOM      5  S   UNL     1       2.949  -2.029  -4.078  0.00  0.00    -0.088 S 
ATOM      6  C   UNL     1       1.460  -3.631  -5.895  0.00  0.00    +0.043 C 
ATOM      7  C   UNL     1       1.288  -3.666  -7.420  0.00  0.00    +0.018 C 
ATOM      8  C   UNL     1       0.763  -2.306  -7.888  0.00  0.00    +0.080 C 
ATOM      9  C   UNL     1       1.860  -1.251  -7.751  0.00  0.00    +0.048 C 
ENDROOT
BRANCH   8  10
ATOM     10  C   UNL     1       0.340  -2.403  -9.332  0.00  0.00    +0.219 C 
ATOM     11  O   UNL     1       1.105  -2.066 -10.211  0.00  0.00    -0.275 OA
ATOM     12  N   UNL     1      -0.887  -2.864  -9.646  0.00  0.00    -0.305 N 
ATOM     13  C   UNL     1      -1.871  -3.169  -8.596  0.00  0.00    +0.089 C 
ATOM     14  C   UNL     1      -2.427  -4.575  -8.845  0.00  0.00    -0.059 C 
ATOM     15  N   UNL     1      -2.954  -4.657 -10.213  0.00  0.00    +0.384 N 
ATOM     16  C   UNL     1      -1.863  -4.486 -11.180  0.00  0.00    -0.059 C 
ATOM     17  C   UNL     1      -1.281  -3.070 -11.047  0.00  0.00    +0.089 C 
ATOM     18  H   UNL     1      -3.641  -3.931 -10.351  0.00  0.00    -0.081 HD
BRANCH  15  19
ATOM     19  C   UNL     1      -3.584  -5.968 -10.415  0.00  0.00    -0.068 C 
ATOM     20  C   UNL     1      -4.729  -6.144  -9.415  0.00  0.00    -0.015 C 
ATOM     21  C   UNL     1      -5.386  -7.509  -9.625  0.00  0.00    -0.002 C 
ATOM     22  C   UNL     1      -5.936  -7.597 -11.050  0.00  0.00    -0.000 C 
ATOM     23  C   UNL     1      -4.791  -7.421 -12.050  0.00  0.00    -0.002 C 
ATOM     24  C   UNL     1      -4.134  -6.056 -11.840  0.00  0.00    -0.015 C 
ENDBRANCH  15  19
ENDBRANCH   8  10
BRANCH   1  26
ATOM     25  N   UNL     1       4.776   0.127  -2.424  0.00  0.00    -0.298 N 
ATOM     26  C   UNL     1       4.336   0.522  -3.636  0.00  0.00    +0.253 C 
ATOM     27  O   UNL     1       4.580   1.645  -4.035  0.00  0.00    -0.269 OA
BRANCH  25  29
ATOM     28  C   UNL     1       6.949   1.065  -1.809  0.00  0.00    +0.024 C 
ATOM     29  C   UNL     1       5.443   1.085  -1.539  0.00  0.00    +0.105 C 
ENDBRANCH  25  29
BRANCH  25  30
ATOM     30  C   UNL     1       4.586  -1.260  -1.993  0.00  0.00    +0.105 C 
ATOM     31  C   UNL     1       3.229  -1.398  -1.300  0.00  0.00    +0.024 C 
ENDBRANCH  25  30
ENDBRANCH   1  26
TORSDOF 5
