REMARK  Name = ZINC64227256
REMARK  4 active torsions:
REMARK  status: ('A' for Active; 'I' for Inactive)
REMARK    1  A    between atoms: C_1  and  C_2
REMARK    2  A    between atoms: C_4  and  C_7
REMARK    3  A    between atoms: N_15  and  C_16
REMARK    4  A    between atoms: N_23  and  C_25
REMARK                            x       y       z     vdW  Elec       q    Type
REMARK                         _______ _______ _______ _____ _____    ______ ____
ROOT
ATOM      1  C   UNL     1       0.036  -3.559  -3.809  0.00  0.00    +0.081 C 
ATOM      2  C   UNL     1      -1.200  -4.458  -3.759  0.00  0.00    +0.032 C 
ATOM      3  C   UNL     1      -1.202  -5.245  -2.444  0.00  0.00    +0.110 C 
ATOM      4  N   UNL     1       0.073  -5.965  -2.323  0.00  0.00    -0.286 N 
ATOM      5  C   UNL     1       1.326  -5.208  -2.447  0.00  0.00    +0.110 C 
ATOM      6  C   UNL     1       1.299  -4.422  -3.761  0.00  0.00    +0.032 C 
ATOM      7  C   UNL     1       0.093  -7.294  -2.101  0.00  0.00    +0.302 C 
ATOM      8  O   UNL     1       1.150  -7.894  -2.096  0.00  0.00    -0.253 OA
ATOM      9  N   UNL     1      -1.060  -7.958  -1.883  0.00  0.00    -0.296 N 
ATOM     10  H   UNL     1      -1.908  -7.494  -1.958  0.00  0.00    +0.151 HD
ENDROOT
BRANCH   9  11
ATOM     11  C   UNL     1      -1.031  -9.377  -1.535  0.00  0.00    +0.077 C 
ATOM     12  C   UNL     1      -0.866  -9.555  -0.024  0.00  0.00    -0.007 C 
ATOM     13  C   UNL     1      -1.991  -8.833   0.707  0.00  0.00    +0.003 C 
ATOM     14  C   UNL     1      -3.367  -9.320   0.274  0.00  0.00    +0.001 C 
ATOM     15  C   UNL     1      -3.521  -9.381  -1.238  0.00  0.00    +0.003 C 
ATOM     16  C   UNL     1      -2.346 -10.051  -1.932  0.00  0.00    -0.007 C 
ATOM     17  C   UNL     1      -2.265 -11.536  -1.595  0.00  0.00    -0.073 C 
ATOM     18  N   UNL     1      -1.979 -11.781  -0.184  0.00  0.00    +0.382 N 
ATOM     19  C   UNL     1      -0.829 -11.037   0.318  0.00  0.00    -0.073 C 
ATOM     20  H   UNL     1      -2.794 -11.591   0.376  0.00  0.00    -0.081 HD
BRANCH  18  21
ATOM     21  C   UNL     1      -1.697 -13.214  -0.023  0.00  0.00    -0.069 C 
ATOM     22  C   UNL     1      -2.717 -14.052   0.751  0.00  0.00    -0.017 C 
ATOM     23  C   UNL     1      -1.366 -13.714   1.385  0.00  0.00    -0.017 C 
ENDBRANCH  18  21
ENDBRANCH   9  11
BRANCH   1  27
ATOM     24  C   UNL     1      -0.025   0.340  -6.954  0.00  0.00    +0.091 C 
ATOM     25  C   UNL     1      -0.003  -1.082  -6.457  0.00  0.00    +0.169 A 
ATOM     26  N   UNL     1       0.004  -1.457  -5.173  0.00  0.00    -0.196 NA
ATOM     27  C   UNL     1       0.024  -2.758  -5.086  0.00  0.00    +0.231 A 
ATOM     28  O   UNL     1       0.030  -3.261  -6.327  0.00  0.00    -0.338 OA
ATOM     29  N   UNL     1       0.007  -2.146  -7.207  0.00  0.00    -0.062 NA
ENDBRANCH   1  27
TORSDOF 3
