REMARK  Name = ZINC35524094
REMARK  5 active torsions:
REMARK  status: ('A' for Active; 'I' for Inactive)
REMARK    1  A    between atoms: C_1  and  C_2
REMARK    2  A    between atoms: C_2  and  C_3
REMARK    3  A    between atoms: C_3  and  C_5
REMARK    4  A    between atoms: C_3  and  C_6
REMARK    5  A    between atoms: C_16  and  C_20
REMARK                            x       y       z     vdW  Elec       q    Type
REMARK                         _______ _______ _______ _____ _____    ______ ____
ROOT
ATOM      1  C   UNL     1       0.848  -1.998  -1.193  0.00  0.00    +0.135 A 
ATOM      2  N   UNL     1       2.051  -2.544  -1.212  0.00  0.00    -0.216 NA
ATOM      3  C   UNL     1       2.230  -3.854  -1.182  0.00  0.00    +0.133 A 
ATOM      4  C   UNL     1       1.093  -4.708  -1.129  0.00  0.00    +0.051 A 
ATOM      5  C   UNL     1       1.046  -6.170  -1.091  0.00  0.00    -0.025 A 
ATOM      6  C   UNL     1      -0.174  -6.742  -1.042  0.00  0.00    -0.004 A 
ATOM      7  S   UNL     1      -1.319  -5.389  -1.042  0.00  0.00    -0.073 S 
ATOM      8  C   UNL     1      -0.154  -4.053  -1.111  0.00  0.00    +0.114 A 
ATOM      9  N   UNL     1      -0.243  -2.737  -1.137  0.00  0.00    -0.224 NA
ATOM     10  C   UNL     1      -0.489  -8.206  -0.997  0.00  0.00    +0.046 C 
ATOM     11  C   UNL     1       0.773  -8.986  -1.391  0.00  0.00    -0.009 C 
ATOM     12  C   UNL     1       1.961  -8.429  -0.601  0.00  0.00    +0.008 C 
ATOM     13  C   UNL     1       2.309  -7.028  -1.106  0.00  0.00    +0.037 C 
ATOM     14  C   UNL     1       0.584 -10.469  -1.063  0.00  0.00    +0.008 C 
ATOM     15  N   UNL     1       3.507  -4.387  -1.204  0.00  0.00    -0.318 N 
ATOM     16  C   UNL     1       4.125  -4.819  -2.466  0.00  0.00    +0.087 C 
ATOM     17  C   UNL     1       5.518  -4.189  -2.567  0.00  0.00    -0.063 C 
ATOM     18  N   UNL     1       6.293  -4.525  -1.366  0.00  0.00    +0.381 N 
ATOM     19  C   UNL     1       5.670  -3.920  -0.182  0.00  0.00    -0.063 C 
ATOM     20  C   UNL     1       4.287  -4.532   0.035  0.00  0.00    +0.087 C 
ATOM     21  H   UNL     1       6.321  -5.527  -1.255  0.00  0.00    -0.086 HD
ATOM     22  H   UNL     1       7.234  -4.174  -1.466  0.00  0.00    -0.086 HD
ENDROOT
BRANCH   1  23
ATOM     23  C   UNL     1       0.719  -0.497  -1.229  0.00  0.00    +0.054 C 
ATOM     24  C   UNL     1      -0.083  -0.083  -2.465  0.00  0.00    +0.015 C 
BRANCH  23  26
ATOM     25  C   UNL     1      -0.023   1.514   0.055  0.00  0.00    +0.004 C 
ATOM     26  C   UNL     1      -0.002  -0.016   0.032  0.00  0.00    +0.007 C 
ENDBRANCH  23  26
ENDBRANCH   1  23
TORSDOF 2
