REMARK  Name = ZINC50577822
REMARK  7 active torsions:
REMARK  status: ('A' for Active; 'I' for Inactive)
REMARK    1  A    between atoms: C_1  and  C_2
REMARK    2  A    between atoms: C_4  and  C_23
REMARK    3  A    between atoms: C_7  and  N_8
REMARK    4  A    between atoms: C_9  and  C_11
REMARK    5  A    between atoms: N_13  and  N_14
REMARK    6  A    between atoms: N_14  and  C_15
REMARK    7  A    between atoms: N_25  and  C_26
REMARK                            x       y       z     vdW  Elec       q    Type
REMARK                         _______ _______ _______ _____ _____    ______ ____
ROOT
ATOM      1  N   UNL     1       0.025  -0.013   2.412  0.00  0.00    -0.277 N 
ATOM      2  C   UNL     1      -0.057  -0.689   3.576  0.00  0.00    +0.305 C 
ATOM      3  O   UNL     1      -0.040  -1.903   3.575  0.00  0.00    -0.265 OA
ATOM      4  H   UNL     1       0.079   0.955   2.417  0.00  0.00    +0.155 HD
ENDROOT
BRANCH   1  11
ATOM      5  C   UNL     1      -1.269   1.183   0.184  0.00  0.00    +0.045 C 
ATOM      6  C   UNL     1      -0.589  -0.158   0.086  0.00  0.00    -0.029 A 
ATOM      7  C   UNL     1      -0.578  -0.838  -1.111  0.00  0.00    +0.018 A 
ATOM      8  C   UNL     1       0.053  -2.081  -1.202  0.00  0.00    +0.037 A 
ATOM      9  C   UNL     1       0.672  -2.631  -0.076  0.00  0.00    +0.015 A 
ATOM     10  C   UNL     1       0.658  -1.947   1.119  0.00  0.00    +0.024 A 
ATOM     11  C   UNL     1       0.033  -0.706   1.204  0.00  0.00    +0.037 A 
BRANCH   8  12
ATOM     12  C   UNL     1       0.066  -2.813  -2.484  0.00  0.00    +0.244 C 
ATOM     13  O   UNL     1      -0.473  -2.333  -3.463  0.00  0.00    -0.270 OA
ATOM     14  N   UNL     1       0.675  -4.012  -2.570  0.00  0.00    -0.314 N 
ATOM     15  C   UNL     1       0.688  -4.738  -3.842  0.00  0.00    +0.128 C 
ATOM     16  H   UNL     1       1.105  -4.394  -1.789  0.00  0.00    +0.149 HD
ENDBRANCH   8  12
ENDBRANCH   1  11
BRANCH   2  17
ATOM     17  C   UNL     1      -0.167   0.056   4.866  0.00  0.00    +0.315 C 
ATOM     18  O   UNL     1      -0.183   1.269   4.866  0.00  0.00    -0.264 OA
ATOM     19  N   UNL     1      -0.248  -0.620   6.029  0.00  0.00    -0.229 N 
ATOM     20  H   UNL     1      -0.235  -1.590   6.029  0.00  0.00    +0.173 HD
BRANCH  19  21
ATOM     21  N   UNL     1      -0.352   0.079   7.239  0.00  0.00    -0.263 N 
ATOM     22  H   UNL     1      -0.365   1.049   7.239  0.00  0.00    +0.170 HD
BRANCH  21  23
ATOM     23  C   UNL     1      -0.437  -0.622   8.446  0.00  0.00    +0.063 A 
ATOM     24  C   UNL     1      -0.412  -2.010   8.447  0.00  0.00    +0.027 A 
ATOM     25  C   UNL     1      -0.495  -2.700   9.641  0.00  0.00    +0.022 A 
ATOM     26  C   UNL     1      -0.604  -2.009  10.835  0.00  0.00    +0.042 A 
ATOM     27  C   UNL     1      -0.629  -0.626  10.838  0.00  0.00    +0.042 A 
ATOM     28  C   UNL     1      -0.539   0.070   9.647  0.00  0.00    +0.065 A 
ATOM     29 CL   UNL     1      -0.563   1.806   9.651  0.00  0.00    -0.082 Cl
ATOM     30 CL   UNL     1      -0.709  -2.880  12.333  0.00  0.00    -0.083 Cl
ENDBRANCH  21  23
ENDBRANCH  19  21
ENDBRANCH   2  17
TORSDOF 5
