REMARK  Name = ZINC35433189
REMARK  3 active torsions:
REMARK  status: ('A' for Active; 'I' for Inactive)
REMARK    1  A    between atoms: C_1  and  C_2
REMARK    2  A    between atoms: N_7  and  C_9
REMARK    3  A    between atoms: C_10  and  C_18
REMARK                            x       y       z     vdW  Elec       q    Type
REMARK                         _______ _______ _______ _____ _____    ______ ____
ROOT
ATOM      1  C   UNL     1       1.496  -2.438   2.334  0.00  0.00    +0.139 A 
ATOM      2  C   UNL     1       2.647  -3.213   2.275  0.00  0.00    +0.175 A 
ATOM      3  N   UNL     1       3.038  -3.431   3.585  0.00  0.00    -0.292 N 
ATOM      4  C   UNL     1       4.081  -4.112   4.128  0.00  0.00    +0.093 A 
ATOM      5  C   UNL     1       4.240  -4.173   5.471  0.00  0.00    +0.018 A 
ATOM      6  C   UNL     1       3.327  -3.531   6.317  0.00  0.00    +0.005 A 
ATOM      7  C   UNL     1       2.278  -2.845   5.779  0.00  0.00    +0.047 A 
ATOM      8  C   UNL     1       2.131  -2.794   4.382  0.00  0.00    +0.140 A 
ATOM      9  N   UNL     1       1.222  -2.203   3.606  0.00  0.00    -0.214 NA
ENDROOT
BRANCH   1  15
ATOM     10  C   UNL     1      -0.019   1.526   0.010  0.00  0.00    +0.009 C 
ATOM     11  C   UNL     1       0.002  -0.004   0.002  0.00  0.00    +0.002 C 
ATOM     12  C   UNL     1      -1.434  -0.535   0.015  0.00  0.00    +0.006 C 
ATOM     13  C   UNL     1      -1.402  -2.064   0.086  0.00  0.00    +0.018 C 
ATOM     14  C   UNL     1      -0.613  -2.496   1.324  0.00  0.00    +0.086 C 
ATOM     15  N   UNL     1       0.758  -1.980   1.239  0.00  0.00    -0.378 NA
ATOM     16  C   UNL     1       0.740  -0.512   1.242  0.00  0.00    +0.089 C 
ATOM     17  H   UNL     1       1.188  -2.307   0.386  0.00  0.00    +0.128 HD
ENDBRANCH   1  15
BRANCH   2  18
ATOM     18  C   UNL     1       3.289  -3.686   1.111  0.00  0.00    +0.406 C 
ATOM     19  O   UNL     1       4.349  -4.395   1.208  0.00  0.00    -0.239 OA
ATOM     20  O   UNL     1       2.811  -3.405  -0.042  0.00  0.00    -0.239 OA
ENDBRANCH   2  18
TORSDOF 2
