REMARK  Name = ZINC40811991
REMARK  9 active torsions:
REMARK  status: ('A' for Active; 'I' for Inactive)
REMARK    1  A    between atoms: C_1  and  C_2
REMARK    2  A    between atoms: C_2  and  C_3
REMARK    3  A    between atoms: C_3  and  C_5
REMARK    4  A    between atoms: C_3  and  N_6
REMARK    5  A    between atoms: C_7  and  C_9
REMARK    6  A    between atoms: C_10  and  C_29
REMARK    7  A    between atoms: N_18  and  N_19
REMARK    8  A    between atoms: C_20  and  C_22
REMARK    9  A    between atoms: C_25  and  O_28
REMARK                            x       y       z     vdW  Elec       q    Type
REMARK                         _______ _______ _______ _____ _____    ______ ____
ROOT
ATOM      1  C   UNL     1      -0.213   0.412  -4.817  0.00  0.00    +0.193 A 
ATOM      2  C   UNL     1       0.288   0.583  -6.077  0.00  0.00    +0.009 A 
ATOM      3  C   UNL     1      -0.797   0.945  -6.884  0.00  0.00    +0.042 A 
ATOM      4  C   UNL     1      -1.914   0.982  -6.082  0.00  0.00    +0.115 A 
ATOM      5  O   UNL     1      -1.544   0.651  -4.847  0.00  0.00    -0.454 OA
ATOM      6  C   UNL     1      -3.283   1.341  -6.600  0.00  0.00    +0.075 C 
ATOM      7  C   UNL     1      -3.144   2.119  -7.911  0.00  0.00    +0.014 C 
ATOM      8  C   UNL     1      -2.269   1.348  -8.906  0.00  0.00    +0.058 C 
ATOM      9  C   UNL     1      -0.864   1.253  -8.330  0.00  0.00    +0.070 C 
ATOM     10  N   UNL     1       0.199   1.429  -9.054  0.00  0.00    -0.184 NA
ATOM     11  C   UNL     1       1.722   0.415  -6.510  0.00  0.00    +0.048 C 
ENDROOT
BRANCH   1  13
ATOM     12  N   UNL     1      -0.055  -0.114  -2.441  0.00  0.00    -0.306 N 
ATOM     13  C   UNL     1       0.561   0.028  -3.631  0.00  0.00    +0.280 C 
ATOM     14  O   UNL     1       1.759  -0.163  -3.722  0.00  0.00    -0.267 OA
ATOM     15  H   UNL     1      -1.010   0.038  -2.368  0.00  0.00    +0.149 HD
BRANCH  12  16
ATOM     16  C   UNL     1       0.718  -0.497  -1.257  0.00  0.00    +0.070 C 
ATOM     17  C   UNL     1       0.849  -2.021  -1.205  0.00  0.00    +0.028 C 
BRANCH  16  19
ATOM     18  C   UNL     1      -0.019   1.526   0.010  0.00  0.00    +0.005 C 
ATOM     19  C   UNL     1       0.002  -0.004   0.002  0.00  0.00    +0.018 C 
ENDBRANCH  16  19
ENDBRANCH  12  16
ENDBRANCH   1  13
BRANCH  10  20
ATOM     20  N   UNL     1       0.076   1.718 -10.419  0.00  0.00    -0.203 N 
ATOM     21  C   UNL     1       1.179   1.901 -11.171  0.00  0.00    +0.263 C 
ATOM     22  O   UNL     1       2.282   1.815 -10.664  0.00  0.00    -0.268 OA
ATOM     23  H   UNL     1      -0.803   1.787 -10.823  0.00  0.00    +0.178 HD
BRANCH  21  24
ATOM     24  C   UNL     1       1.050   2.206 -12.609  0.00  0.00    +0.039 A 
ATOM     25  C   UNL     1      -0.215   2.311 -13.192  0.00  0.00    +0.016 A 
ATOM     26  C   UNL     1      -0.332   2.596 -14.534  0.00  0.00    +0.046 A 
ATOM     27  C   UNL     1       0.808   2.779 -15.309  0.00  0.00    +0.117 A 
ATOM     28  C   UNL     1       2.068   2.676 -14.733  0.00  0.00    +0.046 A 
ATOM     29  C   UNL     1       2.193   2.396 -13.390  0.00  0.00    +0.016 A 
BRANCH  27  30
ATOM     30  O   UNL     1       0.689   3.060 -16.631  0.00  0.00    -0.507 OA
ATOM     31  H   UNL     1       0.641   4.005 -16.831  0.00  0.00    +0.292 HD
ENDBRANCH  27  30
ENDBRANCH  21  24
ENDBRANCH  10  20
TORSDOF 6
