REMARK  Name = ZINC20718741
REMARK  2 active torsions:
REMARK  status: ('A' for Active; 'I' for Inactive)
REMARK    1  A    between atoms: C_9  and  S_14
REMARK    2  A    between atoms: S_14  and  C_15
REMARK                            x       y       z     vdW  Elec       q    Type
REMARK                         _______ _______ _______ _____ _____    ______ ____
ROOT
ATOM      1  C   UNL     1      -0.017   1.372   0.010  0.00  0.00    +0.000 A 
ATOM      2  C   UNL     1       1.179   2.068   0.002  0.00  0.00    +0.002 A 
ATOM      3  C   UNL     1       2.365   1.376  -0.009  0.00  0.00    +0.023 A 
ATOM      4  C   UNL     1       2.396  -0.029  -0.019  0.00  0.00    +0.037 A 
ATOM      5  C   UNL     1       1.202  -0.717  -0.015  0.00  0.00    -0.026 A 
ATOM      6  C   UNL     1       0.002  -0.004   0.002  0.00  0.00    +0.005 A 
ATOM      7  C   UNL     1       1.065  -2.205  -0.038  0.00  0.00    +0.038 C 
ATOM      8  C   UNL     1       2.088  -2.941  -0.845  0.00  0.00    +0.028 C 
ATOM      9  C   UNL     1       3.424  -3.065  -0.153  0.00  0.00    +0.141 C 
ATOM     10  C   UNL     1       4.162  -1.775  -0.136  0.00  0.00    +0.231 C 
ATOM     11  O   UNL     1       5.368  -1.841  -0.249  0.00  0.00    -0.274 OA
ATOM     12  N   UNL     1       3.656  -0.581  -0.012  0.00  0.00    -0.284 N 
ATOM     13  H   UNL     1       4.343   0.091   0.116  0.00  0.00    +0.155 HD
ENDROOT
BRANCH   9  14
ATOM     14  S   UNL     1       4.426  -4.304  -1.021  0.00  0.00    -0.073 S 
BRANCH  14  15
ATOM     15  C   UNL     1       5.876  -4.449  -0.030  0.00  0.00    +0.197 A 
ATOM     16  N   UNL     1       6.129  -3.795   1.080  0.00  0.00    -0.122 NA
ATOM     17  N   UNL     1       7.277  -4.139   1.550  0.00  0.00    -0.129 NA
ATOM     18  C   UNL     1       7.828  -5.041   0.760  0.00  0.00    +0.162 A 
ATOM     19  N   UNL     1       6.940  -5.267  -0.272  0.00  0.00    -0.278 N 
ATOM     20  C   UNL     1       7.238  -6.167  -1.256  0.00  0.00    +0.095 A 
ATOM     21  C   UNL     1       8.401  -6.849  -1.230  0.00  0.00    +0.018 A 
ATOM     22  C   UNL     1       9.325  -6.642  -0.189  0.00  0.00    +0.005 A 
ATOM     23  C   UNL     1       9.049  -5.745   0.793  0.00  0.00    +0.049 A 
ENDBRANCH  14  15
ENDBRANCH   9  14
TORSDOF 2
