REMARK  Name = ZINC43720094
REMARK  4 active torsions:
REMARK  status: ('A' for Active; 'I' for Inactive)
REMARK    1  A    between atoms: C_1  and  C_2
REMARK    2  A    between atoms: C_5  and  C_7
REMARK    3  A    between atoms: C_7  and  C_9
REMARK    4  A    between atoms: C_7  and  N_10
REMARK                            x       y       z     vdW  Elec       q    Type
REMARK                         _______ _______ _______ _____ _____    ______ ____
ROOT
ATOM      1  N   UNL     1       2.818  -2.969   0.863  0.00  0.00    -0.290 N 
ATOM      2  C   UNL     1       3.507  -3.989   1.413  0.00  0.00    +0.303 C 
ATOM      3  O   UNL     1       3.132  -5.134   1.250  0.00  0.00    -0.253 OA
ATOM      4  N   UNL     1       4.611  -3.739   2.144  0.00  0.00    -0.281 N 
ATOM      5  C   UNL     1       5.434  -4.846   2.653  0.00  0.00    +0.115 C 
ATOM      6  C   UNL     1       6.814  -4.771   1.982  0.00  0.00    +0.062 C 
ATOM      7  C   UNL     1       7.261  -3.345   1.964  0.00  0.00    -0.004 A 
ATOM      8  C   UNL     1       6.505  -2.230   2.156  0.00  0.00    -0.020 A 
ATOM      9  C   UNL     1       7.166  -1.005   2.080  0.00  0.00    +0.013 A 
ATOM     10  C   UNL     1       8.495  -0.968   1.831  0.00  0.00    +0.046 A 
ATOM     11  S   UNL     1       8.891  -2.704   1.688  0.00  0.00    -0.101 S 
ATOM     12  C   UNL     1       5.013  -2.357   2.438  0.00  0.00    +0.145 C 
ATOM     13  H   UNL     1       3.074  -2.053   1.053  0.00  0.00    +0.151 HD
ENDROOT
BRANCH   1  14
ATOM     14  C   UNL     1       1.685  -3.245  -0.023  0.00  0.00    +0.137 C 
ATOM     15  C   UNL     1       2.195  -3.476  -1.447  0.00  0.00    +0.036 C 
BRANCH  14  20
ATOM     16  C   UNL     1      -0.025   1.500   0.017  0.00  0.00    +0.086 C 
ATOM     17  C   UNL     1      -0.002  -0.006   0.006  0.00  0.00    +0.102 A 
ATOM     18  C   UNL     1      -1.081  -0.809   0.004  0.00  0.00    +0.045 A 
ATOM     19  C   UNL     1      -0.602  -2.140  -0.008  0.00  0.00    +0.047 A 
ATOM     20  C   UNL     1       0.741  -2.070  -0.012  0.00  0.00    +0.125 A 
ATOM     21  O   UNL     1       1.099  -0.775  -0.009  0.00  0.00    -0.463 OA
ENDBRANCH  14  20
ENDBRANCH   1  14
TORSDOF 2
