REMARK  Name = ZINC40113472
REMARK  4 active torsions:
REMARK  status: ('A' for Active; 'I' for Inactive)
REMARK    1  A    between atoms: C_1  and  C_2
REMARK    2  A    between atoms: C_2  and  N_3
REMARK    3  A    between atoms: C_11  and  C_13
REMARK    4  A    between atoms: C_24  and  C_27
REMARK                            x       y       z     vdW  Elec       q    Type
REMARK                         _______ _______ _______ _____ _____    ______ ____
ROOT
ATOM      1  C   UNL     1      -4.045  -1.449  -4.853  0.00  0.00    +0.028 C 
ATOM      2  C   UNL     1      -3.593  -0.874  -5.996  0.00  0.00    +0.079 C 
ATOM      3  C   UNL     1      -4.176  -0.883  -7.358  0.00  0.00    +0.276 C 
ATOM      4  O   UNL     1      -5.219  -1.465  -7.608  0.00  0.00    -0.267 OA
ATOM      5  N   UNL     1      -3.507  -0.231  -8.283  0.00  0.00    -0.154 NA
ATOM      6  C   UNL     1      -2.375   0.405  -8.026  0.00  0.00    +0.154 C 
ATOM      7  S   UNL     1      -2.130   0.115  -6.280  0.00  0.00    -0.052 S 
ATOM      8  N   UNL     1      -1.584   1.117  -8.889  0.00  0.00    -0.311 N 
ATOM      9  C   UNL     1      -0.347   1.754  -8.418  0.00  0.00    +0.107 C 
ATOM     10  C   UNL     1      -0.380   3.237  -8.799  0.00  0.00    +0.019 C 
ATOM     11  C   UNL     1      -0.620   3.367 -10.305  0.00  0.00    +0.006 C 
ATOM     12  C   UNL     1      -1.972   2.746 -10.663  0.00  0.00    +0.003 C 
ATOM     13  C   UNL     1      -1.954   1.252 -10.304  0.00  0.00    +0.110 C 
ATOM     14  C   UNL     1      -2.226   2.906 -12.163  0.00  0.00    +0.009 C 
ENDROOT
BRANCH   1  23
ATOM     15  N   UNL     1      -0.808  -1.472  -0.247  0.00  0.00    -0.330 N 
ATOM     16  C   UNL     1      -1.426  -1.625   1.077  0.00  0.00    +0.105 C 
ATOM     17  C   UNL     1      -2.456  -2.758   0.985  0.00  0.00    +0.024 C 
ATOM     18  C   UNL     1      -3.552  -2.350   0.000  0.00  0.00    +0.038 C 
ATOM     19  C   UNL     1      -2.947  -1.893  -1.301  0.00  0.00    -0.026 A 
ATOM     20  C   UNL     1      -1.623  -1.470  -1.378  0.00  0.00    +0.033 A 
ATOM     21  C   UNL     1      -1.089  -1.041  -2.593  0.00  0.00    +0.024 A 
ATOM     22  C   UNL     1      -1.869  -1.031  -3.725  0.00  0.00    +0.010 A 
ATOM     23  C   UNL     1      -3.203  -1.454  -3.651  0.00  0.00    -0.023 A 
ATOM     24  C   UNL     1      -3.728  -1.892  -2.426  0.00  0.00    +0.013 A 
BRANCH  15  26
ATOM     25  C   UNL     1       1.007   0.166  -0.316  0.00  0.00    +0.024 C 
ATOM     26  C   UNL     1       0.643  -1.319  -0.376  0.00  0.00    +0.102 C 
ENDBRANCH  15  26
ENDBRANCH   1  23
TORSDOF 2
