REMARK  Name = ZINC08167321
REMARK  6 active torsions:
REMARK  status: ('A' for Active; 'I' for Inactive)
REMARK    1  A    between atoms: C_1  and  C_2
REMARK    2  A    between atoms: C_3  and  S_8
REMARK    3  A    between atoms: C_4  and  C_7
REMARK    4  A    between atoms: S_8  and  N_11
REMARK    5  A    between atoms: N_11  and  C_12
REMARK    6  A    between atoms: N_11  and  C_13
REMARK                            x       y       z     vdW  Elec       q    Type
REMARK                         _______ _______ _______ _____ _____    ______ ____
ROOT
ATOM      1  N   UNL     1      -0.018   1.461   0.010  0.00  0.00    -0.172 NA
ATOM      2  C   UNL     1       0.002  -0.004   0.002  0.00  0.00    +0.132 C 
ENDROOT
BRANCH   1   3
ATOM      3  C   UNL     1       1.241   2.211   0.002  0.00  0.00    +0.110 C 
ATOM      4  C   UNL     1       2.018   1.876  -1.270  0.00  0.00    +0.026 C 
ATOM      5  C   UNL     1       3.417   2.495  -1.159  0.00  0.00    +0.007 C 
ATOM      6  C   UNL     1       4.199   1.728  -0.094  0.00  0.00    +0.035 C 
ATOM      7  C   UNL     1       3.403   1.633   1.181  0.00  0.00    -0.043 A 
ATOM      8  C   UNL     1       2.043   1.847   1.224  0.00  0.00    -0.025 A 
ATOM      9  C   UNL     1       1.366   1.730   2.431  0.00  0.00    +0.005 A 
ATOM     10  C   UNL     1       2.045   1.405   3.587  0.00  0.00    +0.000 A 
ATOM     11  C   UNL     1       3.411   1.194   3.545  0.00  0.00    +0.000 A 
ATOM     12  C   UNL     1       4.085   1.308   2.347  0.00  0.00    +0.004 A 
ENDBRANCH   1   3
BRANCH   1  13
ATOM     13  S   UNL     1      -1.463   2.269   0.021  0.00  0.00    +0.066 S 
ATOM     14  O   UNL     1      -1.212   3.557  -0.524  0.00  0.00    -0.153 OA
ATOM     15  O   UNL     1      -2.428   1.384  -0.530  0.00  0.00    -0.153 OA
BRANCH  13  18
ATOM     16  C   UNL     1      -0.776   4.822   2.170  0.00  0.00    +0.071 C 
ATOM     17  C   UNL     1      -1.587   3.608   2.544  0.00  0.00    +0.107 A 
ATOM     18  C   UNL     1      -1.910   2.514   1.708  0.00  0.00    +0.170 A 
ATOM     19  C   UNL     1      -2.647   1.702   2.502  0.00  0.00    +0.161 A 
ATOM     20  O   UNL     1      -2.719   2.303   3.698  0.00  0.00    -0.358 OA
ATOM     21  N   UNL     1      -2.128   3.358   3.701  0.00  0.00    -0.081 NA
ATOM     22  C   UNL     1      -3.264   0.382   2.118  0.00  0.00    +0.091 C 
ENDBRANCH  13  18
ENDBRANCH   1  13
TORSDOF 3
