REMARK  Name = ZINC40045017
REMARK  7 active torsions:
REMARK  status: ('A' for Active; 'I' for Inactive)
REMARK    1  A    between atoms: C_1  and  C_2
REMARK    2  A    between atoms: C_2  and  C_3
REMARK    3  A    between atoms: C_17  and  C_19
REMARK    4  A    between atoms: C_22  and  O_27
REMARK    5  A    between atoms: C_23  and  O_25
REMARK    6  A    between atoms: O_25  and  C_26
REMARK    7  A    between atoms: C_31  and  C_34
REMARK                            x       y       z     vdW  Elec       q    Type
REMARK                         _______ _______ _______ _____ _____    ______ ____
ROOT
ATOM      1  C   UNL     1       0.707  -0.490  -1.238  0.00  0.00    -0.047 A 
ATOM      2  C   UNL     1      -0.016  -0.719  -2.400  0.00  0.00    +0.007 A 
ATOM      3  C   UNL     1       0.609  -1.166  -3.543  0.00  0.00    +0.047 A 
ATOM      4  C   UNL     1       1.985  -1.394  -3.544  0.00  0.00    +0.139 A 
ATOM      5  C   UNL     1       2.707  -1.153  -2.364  0.00  0.00    +0.065 A 
ATOM      6  C   UNL     1       2.058  -0.699  -1.216  0.00  0.00    +0.019 A 
ATOM      7  C   UNL     1       4.175  -1.378  -2.359  0.00  0.00    +0.199 A 
ATOM      8  O   UNL     1       4.850  -1.357  -1.345  0.00  0.00    -0.287 OA
ATOM      9  C   UNL     1       4.734  -1.628  -3.691  0.00  0.00    +0.072 A 
ATOM     10  C   UNL     1       3.921  -1.839  -4.769  0.00  0.00    +0.199 A 
ATOM     11  O   UNL     1       2.576  -1.840  -4.675  0.00  0.00    -0.450 OA
ATOM     12  C   UNL     1       4.769  -2.050  -5.954  0.00  0.00    +0.288 C 
ATOM     13  O   UNL     1       4.356  -2.260  -7.077  0.00  0.00    -0.266 OA
ATOM     14  N   UNL     1       6.071  -1.974  -5.612  0.00  0.00    -0.238 N 
ATOM     15  C   UNL     1       6.148  -1.705  -4.166  0.00  0.00    +0.151 C 
ATOM     16  C   UNL     1       7.154  -2.124  -6.475  0.00  0.00    +0.129 A 
ATOM     17  C   UNL     1       6.932  -2.266  -7.840  0.00  0.00    +0.044 A 
ATOM     18  C   UNL     1       8.017  -2.414  -8.686  0.00  0.00    +0.008 A 
ATOM     19  C   UNL     1       9.292  -2.415  -8.135  0.00  0.00    -0.032 A 
ATOM     20  C   UNL     1       9.438  -2.269  -6.770  0.00  0.00    +0.116 A 
ATOM     21  N   UNL     1       8.385  -2.124  -5.988  0.00  0.00    -0.240 NA
ATOM     22  C   UNL     1      10.502  -2.574  -9.018  0.00  0.00    +0.045 C 
ENDROOT
BRANCH  15  23
ATOM     23  C   UNL     1       6.871  -2.828  -3.467  0.00  0.00    -0.018 A 
ATOM     24  C   UNL     1       6.705  -4.130  -3.899  0.00  0.00    +0.009 A 
ATOM     25  C   UNL     1       7.365  -5.163  -3.261  0.00  0.00    +0.049 A 
ATOM     26  C   UNL     1       8.197  -4.894  -2.186  0.00  0.00    +0.158 A 
ATOM     27  C   UNL     1       8.364  -3.583  -1.751  0.00  0.00    +0.162 A 
ATOM     28  C   UNL     1       7.703  -2.552  -2.398  0.00  0.00    +0.055 A 
BRANCH  27  29
ATOM     29  O   UNL     1       9.179  -3.314  -0.696  0.00  0.00    -0.491 OA
ATOM     30  C   UNL     1       9.303  -1.945  -0.304  0.00  0.00    +0.277 C 
ENDBRANCH  27  29
BRANCH  26  31
ATOM     31  O   UNL     1       8.847  -5.909  -1.556  0.00  0.00    -0.503 OA
ATOM     32  H   UNL     1       9.718  -6.107  -1.926  0.00  0.00    +0.292 HD
ENDBRANCH  26  31
ENDBRANCH  15  23
BRANCH   1  34
ATOM     33  C   UNL     1      -0.019   1.526   0.010  0.00  0.00    +0.009 C 
ATOM     34  C   UNL     1       0.002  -0.004   0.002  0.00  0.00    +0.032 C 
ENDBRANCH   1  34
TORSDOF 4
