REMARK  Name = ZINC67265308
REMARK  6 active torsions:
REMARK  status: ('A' for Active; 'I' for Inactive)
REMARK    1  A    between atoms: C_1  and  C_2
REMARK    2  A    between atoms: C_2  and  C_3
REMARK    3  A    between atoms: C_2  and  C_4
REMARK    4  A    between atoms: C_4  and  N_5
REMARK    5  A    between atoms: C_8  and  N_11
REMARK    6  A    between atoms: C_12  and  C_14
REMARK                            x       y       z     vdW  Elec       q    Type
REMARK                         _______ _______ _______ _____ _____    ______ ____
ROOT
ATOM      1  N   UNL     1      -2.106  -0.237   6.102  0.00  0.00    -0.309 N 
ATOM      2  C   UNL     1      -1.938  -0.818   7.307  0.00  0.00    +0.245 C 
ATOM      3  O   UNL     1      -1.168  -1.751   7.429  0.00  0.00    -0.270 OA
ATOM      4  H   UNL     1      -2.721   0.507   6.005  0.00  0.00    +0.149 HD
ENDROOT
BRANCH   2   5
ATOM      5  C   UNL     1      -2.687  -0.323   8.474  0.00  0.00    +0.051 C 
ATOM      6  C   UNL     1      -2.520  -0.904   9.707  0.00  0.00    +0.089 C 
ATOM      7  N   UNL     1      -3.202  -0.466  10.800  0.00  0.00    -0.288 N 
ATOM      8  C   UNL     1      -2.980  -1.229  12.032  0.00  0.00    +0.136 C 
ATOM      9  C   UNL     1      -2.960  -0.295  13.245  0.00  0.00    +0.212 C 
ATOM     10  S   UNL     1      -4.553   0.588  13.262  0.00  0.00    +0.073 S 
ATOM     11  O   UNL     1      -4.467   1.748  14.079  0.00  0.00    -0.151 OA
ATOM     12  O   UNL     1      -5.627  -0.330  13.410  0.00  0.00    -0.151 OA
ATOM     13  N   UNL     1      -4.681   1.158  11.715  0.00  0.00    -0.118 NA
ATOM     14  C   UNL     1      -4.040   0.611  10.708  0.00  0.00    +0.147 C 
ATOM     15  C   UNL     1      -4.267   1.231   9.442  0.00  0.00    +0.046 C 
ATOM     16  C   UNL     1      -3.618   0.799   8.340  0.00  0.00    +0.018 C 
ENDBRANCH   2   5
BRANCH   1  20
ATOM     17  N   UNL     1      -0.010  -0.139   2.447  0.00  0.00    +0.380 N 
ATOM     18  C   UNL     1      -1.305  -0.831   2.447  0.00  0.00    -0.077 C 
ATOM     19  C   UNL     1      -2.126  -0.386   3.659  0.00  0.00    +0.003 C 
ATOM     20  C   UNL     1      -1.361  -0.729   4.941  0.00  0.00    +0.070 C 
ATOM     21  C   UNL     1       0.016  -0.062   4.896  0.00  0.00    +0.003 C 
ATOM     22  C   UNL     1       0.758  -0.520   3.639  0.00  0.00    -0.077 C 
ATOM     23  H   UNL     1      -0.165   0.858   2.452  0.00  0.00    -0.082 HD
BRANCH  17  24
ATOM     24  C   UNL     1       0.742  -0.511   1.242  0.00  0.00    -0.076 C 
BRANCH  24  26
ATOM     25  C   UNL     1      -0.019   1.526   0.010  0.00  0.00    +0.005 C 
ATOM     26  C   UNL     1       0.002  -0.004   0.002  0.00  0.00    -0.034 C 
ATOM     27  C   UNL     1       0.718  -0.497  -1.257  0.00  0.00    +0.005 C 
ENDBRANCH  24  26
ENDBRANCH  17  24
ENDBRANCH   1  20
TORSDOF 4
