REMARK  Name = ZINC36705642
REMARK  6 active torsions:
REMARK  status: ('A' for Active; 'I' for Inactive)
REMARK    1  A    between atoms: C_1  and  C_2
REMARK    2  A    between atoms: C_2  and  O_3
REMARK    3  A    between atoms: O_3  and  C_4
REMARK    4  A    between atoms: C_9  and  C_10
REMARK    5  A    between atoms: N_16  and  C_18
REMARK    6  A    between atoms: C_23  and  C_25
REMARK                            x       y       z     vdW  Elec       q    Type
REMARK                         _______ _______ _______ _____ _____    ______ ____
ROOT
ATOM      1  C   UNL     1       1.985  -1.427  -3.484  0.00  0.00    +0.253 C 
ATOM      2  O   UNL     1       1.894  -0.222  -3.345  0.00  0.00    -0.270 OA
ATOM      3  N   UNL     1       2.603  -1.935  -4.568  0.00  0.00    -0.265 N 
ATOM      4  C   UNL     1       3.140  -1.076  -5.536  0.00  0.00    +0.153 A 
ATOM      5  C   UNL     1       3.795  -1.464  -6.701  0.00  0.00    +0.042 A 
ATOM      6  C   UNL     1       4.159  -0.332  -7.378  0.00  0.00    +0.129 A 
ATOM      7  N   UNL     1       3.752   0.728  -6.652  0.00  0.00    -0.251 N 
ATOM      8  N   UNL     1       3.107   0.240  -5.504  0.00  0.00    -0.154 NA
ATOM      9  C   UNL     1       3.944   2.138  -7.001  0.00  0.00    +0.174 C 
ATOM     10  N   UNL     1       4.820  -0.387  -8.605  0.00  0.00    -0.270 N 
ATOM     11  C   UNL     1       4.923  -1.585  -9.218  0.00  0.00    +0.219 C 
ATOM     12  O   UNL     1       5.650  -1.690 -10.183  0.00  0.00    -0.275 OA
ATOM     13  C   UNL     1       4.165  -2.792  -8.744  0.00  0.00    +0.109 C 
ATOM     14  C   UNL     1       4.109  -2.847  -7.214  0.00  0.00    +0.071 C 
ATOM     15  H   UNL     1       2.676  -2.896  -4.679  0.00  0.00    +0.157 HD
ATOM     16  H   UNL     1       5.195   0.413  -9.006  0.00  0.00    +0.156 HD
ENDROOT
BRANCH   1  22
ATOM     17  C   UNL     1       0.777  -1.808  -1.336  0.00  0.00    +0.133 A 
ATOM     18  C   UNL     1       0.243  -2.668  -0.388  0.00  0.00    +0.046 A 
ATOM     19  C   UNL     1       0.352  -4.034  -0.554  0.00  0.00    +0.004 A 
ATOM     20  C   UNL     1       0.993  -4.556  -1.666  0.00  0.00    +0.001 A 
ATOM     21  C   UNL     1       1.528  -3.716  -2.618  0.00  0.00    +0.017 A 
ATOM     22  C   UNL     1       1.420  -2.332  -2.465  0.00  0.00    +0.079 A 
BRANCH  17  23
ATOM     23  O   UNL     1       0.671  -0.465  -1.174  0.00  0.00    -0.491 OA
BRANCH  23  25
ATOM     24  C   UNL     1      -0.019   1.526   0.010  0.00  0.00    +0.048 C 
ATOM     25  C   UNL     1       0.002  -0.004   0.002  0.00  0.00    +0.226 C 
ENDBRANCH  23  25
ENDBRANCH  17  23
ENDBRANCH   1  22
BRANCH  14  26
ATOM     26  C   UNL     1       5.440  -3.300  -6.672  0.00  0.00    -0.002 A 
ATOM     27  C   UNL     1       5.726  -4.379  -5.904  0.00  0.00    +0.012 A 
ATOM     28  C   UNL     1       7.036  -4.601  -5.521  0.00  0.00    +0.008 A 
ATOM     29  C   UNL     1       7.995  -3.732  -5.925  0.00  0.00    +0.045 A 
ATOM     30  S   UNL     1       7.050  -2.559  -6.883  0.00  0.00    -0.101 S 
ENDBRANCH  14  26
TORSDOF 4
