REMARK  Name = ZINC19663540
REMARK  9 active torsions:
REMARK  status: ('A' for Active; 'I' for Inactive)
REMARK    1  A    between atoms: C_1  and  C_2
REMARK    2  A    between atoms: C_2  and  C_3
REMARK    3  A    between atoms: C_5  and  C_17
REMARK    4  A    between atoms: N_13  and  C_16
REMARK    5  A    between atoms: C_22  and  C_25
REMARK    6  A    between atoms: C_25  and  C_26
REMARK    7  A    between atoms: C_26  and  N_27
REMARK    8  A    between atoms: N_27  and  C_28
REMARK    9  A    between atoms: N_27  and  C_29
REMARK                            x       y       z     vdW  Elec       q    Type
REMARK                         _______ _______ _______ _____ _____    ______ ____
ROOT
ATOM      1  C   UNL     1      -1.434   7.229   4.608  0.00  0.00    +0.044 A 
ATOM      2  C   UNL     1      -1.527   5.847   4.657  0.00  0.00    +0.037 A 
ATOM      3  C   UNL     1      -0.360   5.089   4.767  0.00  0.00    +0.054 A 
ATOM      4  C   UNL     1       0.862   5.779   4.829  0.00  0.00    +0.094 A 
ATOM      5  C   UNL     1       2.149   5.074   4.952  0.00  0.00    +0.264 A 
ATOM      6  O   UNL     1       2.194   3.860   5.004  0.00  0.00    -0.267 OA
ATOM      7  N   UNL     1       3.279   5.814   5.005  0.00  0.00    -0.274 N 
ATOM      8  H   UNL     1       4.256   5.319   5.097  0.00  0.00    +0.173 HD
ATOM      9  C   UNL     1       3.232   7.154   4.947  0.00  0.00    +0.331 A 
ATOM     10  O   UNL     1       4.276   7.774   4.998  0.00  0.00    -0.246 OA
ATOM     11  N   UNL     1       2.083   7.840   4.824  0.00  0.00    -0.281 N 
ATOM     12  C   UNL     1       0.867   7.182   4.767  0.00  0.00    +0.150 A 
ATOM     13  N   UNL     1      -0.272   7.847   4.662  0.00  0.00    -0.234 NA
ATOM     14  C   UNL     1       2.118   9.304   4.768  0.00  0.00    +0.155 C 
ENDROOT
BRANCH   3  15
ATOM     15  C   UNL     1      -0.409   3.609   4.824  0.00  0.00    +0.248 C 
ATOM     16  O   UNL     1       0.079   3.020   5.768  0.00  0.00    -0.270 OA
ATOM     17  N   UNL     1      -0.997   2.916   3.828  0.00  0.00    -0.297 N 
ATOM     18  C   UNL     1      -0.973   1.446   3.824  0.00  0.00    +0.108 C 
ATOM     19  C   UNL     1      -0.409   0.966   2.483  0.00  0.00    +0.022 C 
ATOM     20  C   UNL     1      -1.219   1.585   1.342  0.00  0.00    -0.010 C 
ATOM     21  C   UNL     1      -1.099   3.110   1.398  0.00  0.00    +0.022 C 
ATOM     22  C   UNL     1      -1.672   3.615   2.726  0.00  0.00    +0.108 C 
BRANCH  20  23
ATOM     23  C   UNL     1      -0.679   1.081   0.002  0.00  0.00    -0.015 C 
BRANCH  23  24
ATOM     24  C   UNL     1      -1.566   1.600  -1.132  0.00  0.00    -0.079 C 
BRANCH  24  25
ATOM     25  N   UNL     1      -1.048   1.115  -2.419  0.00  0.00    +0.376 N 
ATOM     26  C   UNL     1      -1.997   1.391  -3.506  0.00  0.00    -0.097 C 
ATOM     27  C   UNL     1       0.269   1.698  -2.710  0.00  0.00    -0.097 C 
ATOM     28  H   UNL     1      -0.926   0.025  -2.345  0.00  0.00    -0.083 HD
ENDBRANCH  24  25
ENDBRANCH  23  24
ENDBRANCH  20  23
ENDBRANCH   3  15
BRANCH   1  30
ATOM     29  C   UNL     1      -2.754   9.064   5.628  0.00  0.00    +0.010 C 
ATOM     30  C   UNL     1      -2.695   8.046   4.488  0.00  0.00    +0.052 C 
ENDBRANCH   1  30
TORSDOF 5
