REMARK  Name = ZINC57568374
REMARK  2 active torsions:
REMARK  status: ('A' for Active; 'I' for Inactive)
REMARK    1  A    between atoms: C_4  and  N_7
REMARK    2  A    between atoms: C_8  and  C_14
REMARK                            x       y       z     vdW  Elec       q    Type
REMARK                         _______ _______ _______ _____ _____    ______ ____
ROOT
ATOM      1  N   UNL     1       3.622  -0.651  -0.036  0.00  0.00    -0.247 N 
ATOM      2  C   UNL     1       3.785  -2.110   0.053  0.00  0.00    +0.131 C 
ATOM      3  C   UNL     1       5.311  -2.315  -0.010  0.00  0.00    +0.133 C 
ATOM      4  N   UNL     1       5.846  -0.950  -0.128  0.00  0.00    -0.297 N 
ATOM      5  C   UNL     1       4.828  -0.079  -0.141  0.00  0.00    +0.307 C 
ATOM      6  O   UNL     1       4.986   1.123  -0.235  0.00  0.00    -0.252 OA
ATOM      7  H   UNL     1       6.785  -0.718  -0.191  0.00  0.00    +0.150 HD
ENDROOT
BRANCH   2   8
ATOM      8  C   UNL     1       3.108  -2.789  -1.110  0.00  0.00    -0.007 A 
ATOM      9  C   UNL     1       2.920  -2.106  -2.296  0.00  0.00    +0.007 A 
ATOM     10  C   UNL     1       2.300  -2.729  -3.362  0.00  0.00    +0.000 A 
ATOM     11  C   UNL     1       1.867  -4.037  -3.243  0.00  0.00    +0.001 A 
ATOM     12  C   UNL     1       2.054  -4.721  -2.057  0.00  0.00    +0.020 A 
ATOM     13  C   UNL     1       2.681  -4.100  -0.991  0.00  0.00    +0.046 A 
ATOM     14 CL   UNL     1       2.923  -4.961   0.496  0.00  0.00    -0.083 Cl
ENDBRANCH   2   8
BRANCH   1  18
ATOM     15  C   UNL     1      -0.017   1.378   0.010  0.00  0.00    +0.000 A 
ATOM     16  C   UNL     1       1.157   2.071  -0.225  0.00  0.00    +0.002 A 
ATOM     17  C   UNL     1       2.365   1.402  -0.241  0.00  0.00    +0.023 A 
ATOM     18  C   UNL     1       2.400   0.031  -0.021  0.00  0.00    +0.038 A 
ATOM     19  C   UNL     1       1.219  -0.662   0.214  0.00  0.00    +0.023 A 
ATOM     20  C   UNL     1       0.015   0.013   0.229  0.00  0.00    +0.002 A 
ENDBRANCH   1  18
TORSDOF 2
