REMARK  Name = ZINC02520082
REMARK  4 active torsions:
REMARK  status: ('A' for Active; 'I' for Inactive)
REMARK    1  A    between atoms: C_8  and  C_13
REMARK    2  A    between atoms: N_14  and  N_15
REMARK    3  A    between atoms: C_16  and  C_18
REMARK    4  A    between atoms: N_20  and  C_21
REMARK                            x       y       z     vdW  Elec       q    Type
REMARK                         _______ _______ _______ _____ _____    ______ ____
ROOT
ATOM      1  N   UNL     1      -2.351   0.994   0.023  0.00  0.00    -0.199 N 
ATOM      2  C   UNL     1      -3.528   1.652   0.034  0.00  0.00    +0.318 C 
ATOM      3  O   UNL     1      -3.544   2.866   0.050  0.00  0.00    -0.263 OA
ATOM      4  H   UNL     1      -2.338   0.025   0.011  0.00  0.00    +0.178 HD
ENDROOT
BRANCH   2   5
ATOM      5  C   UNL     1      -4.808   0.889   0.028  0.00  0.00    +0.305 C 
ATOM      6  O   UNL     1      -4.792  -0.325   0.012  0.00  0.00    -0.265 OA
ATOM      7  N   UNL     1      -5.984   1.547   0.039  0.00  0.00    -0.278 N 
ATOM      8  H   UNL     1      -5.999   2.514   0.119  0.00  0.00    +0.155 HD
BRANCH   7   9
ATOM      9  C   UNL     1      -7.184   0.836  -0.065  0.00  0.00    +0.034 A 
ATOM     10  C   UNL     1      -8.261   1.385  -0.749  0.00  0.00    +0.025 A 
ATOM     11  C   UNL     1      -9.443   0.679  -0.853  0.00  0.00    +0.022 A 
ATOM     12  C   UNL     1      -9.558  -0.570  -0.269  0.00  0.00    +0.041 A 
ATOM     13  C   UNL     1      -8.488  -1.118   0.417  0.00  0.00    +0.022 A 
ATOM     14  C   UNL     1      -7.302  -0.418   0.520  0.00  0.00    +0.025 A 
ATOM     15 CL   UNL     1     -11.047  -1.453  -0.398  0.00  0.00    -0.084 Cl
ENDBRANCH   7   9
ENDBRANCH   2   5
BRANCH   1  17
ATOM     16  C   UNL     1      -0.013   1.077   0.019  0.00  0.00    +0.143 C 
ATOM     17  N   UNL     1      -1.148   1.711   0.029  0.00  0.00    -0.187 NA
BRANCH  16  25
ATOM     18  C   UNL     1       6.056   1.996  -0.015  0.00  0.00    +0.001 A 
ATOM     19  C   UNL     1       6.009   3.384   0.002  0.00  0.00    +0.002 A 
ATOM     20  C   UNL     1       4.801   4.046   0.020  0.00  0.00    +0.026 A 
ATOM     21  C   UNL     1       3.612   3.322   0.020  0.00  0.00    +0.049 A 
ATOM     22  C   UNL     1       3.661   1.915   0.002  0.00  0.00    -0.001 A 
ATOM     23  C   UNL     1       4.904   1.264  -0.015  0.00  0.00    +0.010 A 
ATOM     24  C   UNL     1       2.461   1.163   0.002  0.00  0.00    +0.024 A 
ATOM     25  C   UNL     1       1.250   1.829   0.019  0.00  0.00    +0.059 A 
ATOM     26  C   UNL     1       1.240   3.297   0.032  0.00  0.00    +0.258 A 
ATOM     27  O   UNL     1       0.181   3.898   0.042  0.00  0.00    -0.267 OA
ATOM     28  N   UNL     1       2.400   3.981   0.037  0.00  0.00    -0.322 N 
ATOM     29  H   UNL     1       2.383   4.981   0.054  0.00  0.00    +0.169 HD
ENDBRANCH  16  25
ENDBRANCH   1  17
TORSDOF 4
