REMARK  Name = ZINC08382693
REMARK  8 active torsions:
REMARK  status: ('A' for Active; 'I' for Inactive)
REMARK    1  A    between atoms: C_1  and  C_2
REMARK    2  A    between atoms: C_2  and  C_3
REMARK    3  A    between atoms: C_2  and  C_4
REMARK    4  A    between atoms: C_11  and  N_29
REMARK    5  A    between atoms: C_12  and  C_27
REMARK    6  A    between atoms: C_13  and  C_15
REMARK    7  A    between atoms: C_18  and  O_25
REMARK    8  A    between atoms: O_25  and  C_26
REMARK                            x       y       z     vdW  Elec       q    Type
REMARK                         _______ _______ _______ _____ _____    ______ ____
ROOT
ATOM      1  C   UNL     1      -1.872  -0.515  -0.048  0.00  0.00    +0.046 A 
ATOM      2  C   UNL     1      -2.204  -1.370  -1.026  0.00  0.00    +0.049 A 
ATOM      3  C   UNL     1      -3.535  -1.790  -0.809  0.00  0.00    +0.245 A 
ATOM      4  N   UNL     1      -3.973  -1.198   0.264  0.00  0.00    -0.135 NA
ATOM      5  N   UNL     1      -2.943  -0.390   0.769  0.00  0.00    -0.278 N 
ATOM      6  H   UNL     1      -2.990   0.162   1.565  0.00  0.00    +0.189 HD
ATOM      7  O   UNL     1      -4.159  -2.669  -1.639  0.00  0.00    -0.421 OA
ATOM      8  C   UNL     1      -3.392  -3.339  -2.522  0.00  0.00    +0.201 C 
ATOM      9  C   UNL     1      -2.115  -3.024  -2.820  0.00  0.00    +0.098 C 
ATOM     10  C   UNL     1      -1.386  -1.862  -2.193  0.00  0.00    +0.102 C 
ENDROOT
BRANCH  10  11
ATOM     11  C   UNL     1      -1.226  -0.756  -3.204  0.00  0.00    -0.027 A 
ATOM     12  C   UNL     1      -2.323  -0.125  -3.706  0.00  0.00    +0.009 A 
ATOM     13  C   UNL     1      -2.197   0.899  -4.641  0.00  0.00    +0.046 A 
ATOM     14  C   UNL     1      -0.968   1.300  -5.082  0.00  0.00    +0.128 A 
ATOM     15  C   UNL     1       0.190   0.668  -4.584  0.00  0.00    +0.024 A 
ATOM     16  C   UNL     1       0.057  -0.370  -3.629  0.00  0.00    -0.010 A 
ATOM     17  C   UNL     1       1.211  -0.997  -3.129  0.00  0.00    +0.009 A 
ATOM     18  C   UNL     1       2.437  -0.597  -3.563  0.00  0.00    +0.001 A 
ATOM     19  C   UNL     1       2.567   0.428  -4.498  0.00  0.00    +0.001 A 
ATOM     20  C   UNL     1       1.471   1.050  -5.013  0.00  0.00    +0.012 A 
BRANCH  14  21
ATOM     21  O   UNL     1      -0.862   2.300  -5.995  0.00  0.00    -0.495 OA
ATOM     22  C   UNL     1      -2.079   2.891  -6.454  0.00  0.00    +0.277 C 
ENDBRANCH  14  21
ENDBRANCH  10  11
BRANCH   1  24
ATOM     23  C   UNL     1      -0.750   1.694   0.078  0.00  0.00    +0.014 C 
ATOM     24  C   UNL     1      -0.543   0.178   0.115  0.00  0.00    +0.031 C 
ATOM     25  C   UNL     1       0.078  -0.219   1.455  0.00  0.00    +0.014 C 
ENDBRANCH   1  24
BRANCH   8  26
ATOM     26  N   UNL     1      -3.950  -4.418  -3.162  0.00  0.00    -0.328 N 
ATOM     27  H   UNL     1      -4.866  -4.674  -2.972  0.00  0.00    +0.145 HD
ATOM     28  H   UNL     1      -3.428  -4.924  -3.804  0.00  0.00    +0.145 HD
ENDBRANCH   8  26
BRANCH   9  29
ATOM     29  C   UNL     1      -1.418  -3.830  -3.777  0.00  0.00    +0.101 C 
ATOM     30  N   UNL     1      -0.866  -4.470  -4.536  0.00  0.00    -0.191 NA
ENDBRANCH   9  29
TORSDOF 5
