REMARK  Name = ZINC43846686
REMARK  6 active torsions:
REMARK  status: ('A' for Active; 'I' for Inactive)
REMARK    1  A    between atoms: C_1  and  C_2
REMARK    2  A    between atoms: C_8  and  N_10
REMARK    3  A    between atoms: N_13  and  C_14
REMARK    4  A    between atoms: C_17  and  S_20
REMARK    5  A    between atoms: S_20  and  N_23
REMARK    6  A    between atoms: N_26  and  C_29
REMARK                            x       y       z     vdW  Elec       q    Type
REMARK                         _______ _______ _______ _____ _____    ______ ____
ROOT
ATOM      1  C   UNL     1       4.750   0.627   3.596  0.00  0.00    +0.035 A 
ATOM      2  C   UNL     1       4.136   0.174   4.756  0.00  0.00    +0.025 A 
ATOM      3  C   UNL     1       4.820   0.208   5.955  0.00  0.00    +0.030 A 
ATOM      4  C   UNL     1       6.114   0.692   6.002  0.00  0.00    +0.106 A 
ATOM      5  C   UNL     1       6.728   1.144   4.848  0.00  0.00    +0.030 A 
ATOM      6  C   UNL     1       6.051   1.108   3.644  0.00  0.00    +0.025 A 
ENDROOT
BRANCH   1  10
ATOM      7  N   UNL     1       4.044   0.205   0.077  0.00  0.00    -0.296 N 
ATOM      8  C   UNL     1       4.722   0.329   1.235  0.00  0.00    +0.304 C 
ATOM      9  O   UNL     1       5.931   0.201   1.249  0.00  0.00    -0.253 OA
ATOM     10  N   UNL     1       4.059   0.594   2.379  0.00  0.00    -0.269 N 
ATOM     11  H   UNL     1       3.079   0.307   0.066  0.00  0.00    +0.151 HD
ATOM     12  H   UNL     1       3.104   0.763   2.358  0.00  0.00    +0.156 HD
BRANCH   7  19
ATOM     13  C   UNL     1       3.309  -2.080  -1.545  0.00  0.00    +0.009 C 
ATOM     14  C   UNL     1       3.820  -0.772  -2.154  0.00  0.00    +0.006 C 
ATOM     15  C   UNL     1       2.635   0.148  -2.453  0.00  0.00    +0.005 C 
ATOM     16  C   UNL     1       3.146   1.456  -3.062  0.00  0.00    +0.000 C 
ATOM     17  C   UNL     1       4.090   2.144  -2.074  0.00  0.00    +0.002 C 
ATOM     18  C   UNL     1       5.275   1.223  -1.775  0.00  0.00    +0.022 C 
ATOM     19  C   UNL     1       4.764  -0.084  -1.166  0.00  0.00    +0.077 C 
ENDBRANCH   7  19
ENDBRANCH   1  10
BRANCH   4  20
ATOM     20  S   UNL     1       6.984   0.733   7.534  0.00  0.00    +0.061 S 
ATOM     21  O   UNL     1       7.982   1.736   7.407  0.00  0.00    -0.153 OA
ATOM     22  O   UNL     1       5.999   0.763   8.558  0.00  0.00    -0.153 OA
BRANCH  20  23
ATOM     23  N   UNL     1       7.779  -0.712   7.684  0.00  0.00    -0.174 NA
ATOM     24  C   UNL     1       7.135  -1.865   8.331  0.00  0.00    +0.125 C 
ATOM     25  C   UNL     1       7.258  -3.076   7.400  0.00  0.00    +0.101 C 
ATOM     26  N   UNL     1       8.669  -3.273   7.043  0.00  0.00    -0.303 NA
ATOM     27  C   UNL     1       9.194  -2.126   6.290  0.00  0.00    +0.101 C 
ATOM     28  C   UNL     1       9.147  -0.877   7.169  0.00  0.00    +0.125 C 
ATOM     29  C   UNL     1       8.853  -4.523   6.293  0.00  0.00    +0.105 C 
ENDBRANCH  20  23
ENDBRANCH   4  20
TORSDOF 4
