REMARK  Name = ZINC48009400
REMARK  4 active torsions:
REMARK  status: ('A' for Active; 'I' for Inactive)
REMARK    1  A    between atoms: C_1  and  C_2
REMARK    2  A    between atoms: C_3  and  S_8
REMARK    3  A    between atoms: C_4  and  C_7
REMARK    4  A    between atoms: S_8  and  N_11
REMARK                            x       y       z     vdW  Elec       q    Type
REMARK                         _______ _______ _______ _____ _____    ______ ____
ROOT
ATOM      1  N   UNL     1       1.570  -0.091  -3.285  0.00  0.00    -0.203 N 
ATOM      2  C   UNL     1       2.280   1.185  -3.097  0.00  0.00    +0.131 C 
ATOM      3  C   UNL     1       2.235   2.003  -4.366  0.00  0.00    +0.021 C 
ATOM      4  C   UNL     1       2.962   1.355  -5.535  0.00  0.00    +0.006 C 
ATOM      5  C   UNL     1       2.218   0.120  -6.034  0.00  0.00    +0.037 C 
ATOM      6  C   UNL     1       2.636  -1.083  -5.206  0.00  0.00    -0.025 A 
ATOM      7  C   UNL     1       2.269  -1.149  -3.868  0.00  0.00    +0.054 A 
ATOM      8  C   UNL     1       2.606  -2.264  -3.110  0.00  0.00    +0.025 A 
ATOM      9  C   UNL     1       3.330  -3.291  -3.686  0.00  0.00    +0.002 A 
ATOM     10  C   UNL     1       3.720  -3.211  -5.010  0.00  0.00    +0.000 A 
ATOM     11  C   UNL     1       3.368  -2.099  -5.781  0.00  0.00    +0.005 A 
ENDROOT
BRANCH   1  12
ATOM     12  S   UNL     1      -0.008  -0.267  -2.813  0.00  0.00    +0.080 S 
ATOM     13  O   UNL     1      -0.547  -1.328  -3.589  0.00  0.00    -0.150 OA
ATOM     14  O   UNL     1      -0.577   1.035  -2.802  0.00  0.00    -0.150 OA
BRANCH  12  17
ATOM     15  C   UNL     1      -0.018   1.503   0.010  0.00  0.00    +0.071 C 
ATOM     16  C   UNL     1       0.002  -0.004   0.002  0.00  0.00    +0.107 A 
ATOM     17  C   UNL     1       0.008  -0.824  -1.141  0.00  0.00    +0.173 A 
ATOM     18  C   UNL     1       0.027  -2.108  -0.735  0.00  0.00    +0.161 A 
ATOM     19  O   UNL     1       0.034  -2.119   0.606  0.00  0.00    -0.358 OA
ATOM     20  N   UNL     1       0.023  -0.775   1.052  0.00  0.00    -0.081 NA
ATOM     21  C   UNL     1       0.039  -3.320  -1.631  0.00  0.00    +0.091 C 
ENDBRANCH  12  17
ENDBRANCH   1  12
TORSDOF 2
