REMARK  Name = ZINC16310086
REMARK  8 active torsions:
REMARK  status: ('A' for Active; 'I' for Inactive)
REMARK    1  A    between atoms: C_1  and  C_2
REMARK    2  A    between atoms: C_5  and  S_8
REMARK    3  A    between atoms: S_8  and  N_11
REMARK    4  A    between atoms: C_12  and  C_20
REMARK    5  A    between atoms: C_12  and  C_21
REMARK    6  A    between atoms: C_14  and  O_19
REMARK    7  A    between atoms: C_16  and  C_17
REMARK    8  A    between atoms: C_16  and  C_18
REMARK                            x       y       z     vdW  Elec       q    Type
REMARK                         _______ _______ _______ _____ _____    ______ ____
ROOT
ATOM      1  N   UNL     1      -0.046  -0.025  -0.056  0.00  0.00    -0.165 NA
ATOM      2  C   UNL     1       0.327   1.389  -0.197  0.00  0.00    +0.040 C 
ATOM      3  C   UNL     1       1.855   1.500  -0.186  0.00  0.00    +0.055 C 
ATOM      4  C   UNL     1       2.436   0.586  -1.267  0.00  0.00    +0.118 C 
ATOM      5  C   UNL     1       2.055  -0.866  -0.970  0.00  0.00    +0.055 C 
ATOM      6  C   UNL     1       0.530  -1.004  -0.989  0.00  0.00    +0.040 C 
ATOM      7  C   UNL     1       0.137  -2.418  -0.556  0.00  0.00    +0.029 C 
ATOM      8  C   UNL     1       0.005  -0.736  -2.401  0.00  0.00    +0.029 C 
ATOM      9  C   UNL     1      -0.218   1.933  -1.519  0.00  0.00    +0.029 C 
ATOM     10  C   UNL     1      -0.254   2.191   0.970  0.00  0.00    +0.029 C 
ENDROOT
BRANCH   1  11
ATOM     11  S   UNL     1      -1.093  -0.508   1.132  0.00  0.00    +0.062 S 
ATOM     12  O   UNL     1      -0.823  -1.881   1.379  0.00  0.00    -0.153 OA
ATOM     13  O   UNL     1      -1.030   0.477   2.154  0.00  0.00    -0.153 OA
BRANCH  11  18
ATOM     14  C   UNL     1      -6.660  -0.236  -1.180  0.00  0.00    +0.044 C 
ATOM     15  C   UNL     1      -5.270  -0.304  -0.602  0.00  0.00    -0.050 A 
ATOM     16  C   UNL     1      -4.533  -1.469  -0.710  0.00  0.00    +0.005 A 
ATOM     17  C   UNL     1      -3.257  -1.531  -0.180  0.00  0.00    +0.029 A 
ATOM     18  C   UNL     1      -2.719  -0.429   0.457  0.00  0.00    +0.106 A 
ATOM     19  C   UNL     1      -3.458   0.734   0.570  0.00  0.00    +0.029 A 
ATOM     20  C   UNL     1      -4.732   0.798   0.036  0.00  0.00    +0.005 A 
ENDBRANCH  11  18
ENDBRANCH   1  11
BRANCH   4  21
ATOM     21  O   UNL     1       3.859   0.712  -1.282  0.00  0.00    -0.392 OA
ATOM     22  H   UNL     1       4.173   1.608  -1.465  0.00  0.00    +0.210 HD
ENDBRANCH   4  21
TORSDOF 3
