REMARK  Name = ZINC62042425
REMARK  8 active torsions:
REMARK  status: ('A' for Active; 'I' for Inactive)
REMARK    1  A    between atoms: C_1  and  C_2
REMARK    2  A    between atoms: C_2  and  C_3
REMARK    3  A    between atoms: C_2  and  N_14
REMARK    4  A    between atoms: C_9  and  O_12
REMARK    5  A    between atoms: O_12  and  C_13
REMARK    6  A    between atoms: C_15  and  C_17
REMARK    7  A    between atoms: N_19  and  C_20
REMARK    8  A    between atoms: C_23  and  C_27
REMARK                            x       y       z     vdW  Elec       q    Type
REMARK                         _______ _______ _______ _____ _____    ______ ____
ROOT
ATOM      1  N   UNL     1       0.711  -0.493   1.187  0.00  0.00    -0.298 N 
ATOM      2  C   UNL     1       2.054  -0.606   1.171  0.00  0.00    +0.300 C 
ATOM      3  O   UNL     1       2.675  -0.312   0.171  0.00  0.00    -0.265 OA
ATOM      4  H   UNL     1       0.213  -0.727   1.986  0.00  0.00    +0.150 HD
ENDROOT
BRANCH   2   5
ATOM      5  C   UNL     1       2.776  -1.092   2.384  0.00  0.00    +0.303 C 
ATOM      6  O   UNL     1       2.155  -1.386   3.384  0.00  0.00    -0.265 OA
ATOM      7  N   UNL     1       4.119  -1.205   2.369  0.00  0.00    -0.278 N 
ATOM      8  H   UNL     1       4.611  -1.035   1.550  0.00  0.00    +0.155 HD
BRANCH   7   9
ATOM      9  C   UNL     1       4.802  -1.566   3.529  0.00  0.00    +0.035 A 
ATOM     10  C   UNL     1       4.230  -2.473   4.417  0.00  0.00    +0.024 A 
ATOM     11  C   UNL     1       4.900  -2.832   5.564  0.00  0.00    +0.022 A 
ATOM     12  C   UNL     1       6.159  -2.287   5.837  0.00  0.00    +0.070 A 
ATOM     13  C   UNL     1       6.731  -1.377   4.942  0.00  0.00    +0.060 A 
ATOM     14  C   UNL     1       6.056  -1.025   3.793  0.00  0.00    +0.044 A 
ATOM     15 CL   UNL     1       8.293  -0.696   5.275  0.00  0.00    -0.082 Cl
BRANCH  12  16
ATOM     16  C   UNL     1       6.859  -2.659   7.029  0.00  0.00    +0.101 C 
ATOM     17  N   UNL     1       7.414  -2.954   7.975  0.00  0.00    -0.191 NA
ENDBRANCH  12  16
ENDBRANCH   7   9
ENDBRANCH   2   5
BRANCH   1  19
ATOM     18  C   UNL     1      -0.017   1.514  -0.007  0.00  0.00    +0.036 C 
ATOM     19  C   UNL     1       0.002  -0.016  -0.003  0.00  0.00    +0.136 C 
BRANCH  19  20
ATOM     20  C   UNL     1      -1.413  -0.535   0.014  0.00  0.00    +0.126 A 
ATOM     21  C   UNL     1      -2.078  -0.986  -1.059  0.00  0.00    +0.055 A 
ATOM     22  C   UNL     1      -3.407  -1.385  -0.580  0.00  0.00    +0.024 A 
ATOM     23  C   UNL     1      -4.542  -1.920  -1.188  0.00  0.00    +0.012 A 
ATOM     24  C   UNL     1      -5.654  -2.186  -0.438  0.00  0.00    +0.004 A 
ATOM     25  C   UNL     1      -5.661  -1.927   0.925  0.00  0.00    +0.049 A 
ATOM     26  C   UNL     1      -4.546  -1.395   1.547  0.00  0.00    +0.163 A 
ATOM     27  C   UNL     1      -3.404  -1.119   0.798  0.00  0.00    +0.177 A 
ATOM     28  O   UNL     1      -2.190  -0.618   1.108  0.00  0.00    -0.454 OA
BRANCH  26  29
ATOM     29  O   UNL     1      -4.564  -1.145   2.883  0.00  0.00    -0.491 OA
ATOM     30  C   UNL     1      -5.770  -1.455   3.585  0.00  0.00    +0.277 C 
ENDBRANCH  26  29
ENDBRANCH  19  20
ENDBRANCH   1  19
TORSDOF 6
