REMARK  Name = ZINC63784397
REMARK  1 active torsions:
REMARK  status: ('A' for Active; 'I' for Inactive)
REMARK    1  A    between atoms: C_10  and  C_11
REMARK                            x       y       z     vdW  Elec       q    Type
REMARK                         _______ _______ _______ _____ _____    ______ ____
ROOT
ATOM      1  C   UNL     1       4.946   0.131  -0.039  0.00  0.00    -0.041 C 
ATOM      2  C   UNL     1       5.301   0.714  -1.161  0.00  0.00    -0.004 C 
ATOM      3  C   UNL     1       6.574   1.499  -1.318  0.00  0.00    +0.137 C 
ATOM      4  N   UNL     1       7.173   1.717   0.006  0.00  0.00    -0.281 N 
ATOM      5  C   UNL     1       7.191   0.575   0.936  0.00  0.00    +0.114 C 
ATOM      6  C   UNL     1       5.739   0.186   1.232  0.00  0.00    +0.054 C 
ATOM      7  C   UNL     1       7.685   2.914   0.356  0.00  0.00    +0.308 C 
ATOM      8  O   UNL     1       8.088   3.095   1.488  0.00  0.00    -0.252 OA
ATOM      9  N   UNL     1       7.749   3.910  -0.550  0.00  0.00    -0.247 N 
ATOM     10  C   UNL     1       8.370   5.110  -0.221  0.00  0.00    +0.189 A 
ATOM     11  N   UNL     1       8.955   5.462   0.907  0.00  0.00    -0.126 NA
ATOM     12  N   UNL     1       9.482   6.600   1.059  0.00  0.00    -0.148 NA
ATOM     13  C   UNL     1       9.448   7.460   0.061  0.00  0.00    +0.183 A 
ATOM     14  S   UNL     1       8.580   6.492  -1.164  0.00  0.00    -0.039 S 
ATOM     15  H   UNL     1       7.362   3.790  -1.431  0.00  0.00    +0.158 HD
ENDROOT
BRANCH   1  25
ATOM     16  C   UNL     1      -0.016   1.351   0.032  0.00  0.00    +0.001 A 
ATOM     17  C   UNL     1       1.168   2.085   0.022  0.00  0.00    +0.001 A 
ATOM     18  C   UNL     1       2.379   1.460   0.002  0.00  0.00    +0.009 A 
ATOM     19  C   UNL     1       2.438   0.060  -0.008  0.00  0.00    -0.010 A 
ATOM     20  C   UNL     1       1.235  -0.688   0.002  0.00  0.00    -0.017 A 
ATOM     21  C   UNL     1       0.004  -0.010   0.023  0.00  0.00    +0.008 A 
ATOM     22  C   UNL     1       1.292  -2.092  -0.008  0.00  0.00    +0.008 A 
ATOM     23  C   UNL     1       2.498  -2.727  -0.027  0.00  0.00    +0.001 A 
ATOM     24  C   UNL     1       3.688  -2.010  -0.037  0.00  0.00    +0.009 A 
ATOM     25  C   UNL     1       3.678  -0.624  -0.028  0.00  0.00    -0.014 A 
ENDBRANCH   1  25
TORSDOF 1
