REMARK  Name = ZINC13147404
REMARK  9 active torsions:
REMARK  status: ('A' for Active; 'I' for Inactive)
REMARK    1  A    between atoms: C_1  and  C_2
REMARK    2  A    between atoms: C_2  and  O_3
REMARK    3  A    between atoms: O_3  and  C_4
REMARK    4  A    between atoms: C_6  and  C_12
REMARK    5  A    between atoms: C_9  and  O_10
REMARK    6  A    between atoms: C_22  and  C_28
REMARK    7  A    between atoms: C_24  and  C_27
REMARK    8  A    between atoms: C_28  and  O_30
REMARK    9  A    between atoms: O_30  and  C_31
REMARK                            x       y       z     vdW  Elec       q    Type
REMARK                         _______ _______ _______ _____ _____    ______ ____
ROOT
ATOM      1  C   UNL     1      -3.782  -1.993   3.131  0.00  0.00    +0.063 C 
ATOM      2  C   UNL     1      -5.029  -2.870   2.996  0.00  0.00    +0.109 C 
ATOM      3  C   UNL     1      -4.633  -4.205   2.420  0.00  0.00    +0.218 C 
ATOM      4  O   UNL     1      -5.221  -5.209   2.762  0.00  0.00    -0.275 OA
ATOM      5  N   UNL     1      -3.631  -4.285   1.528  0.00  0.00    -0.289 N 
ATOM      6  C   UNL     1      -2.966  -3.162   1.105  0.00  0.00    +0.018 C 
ATOM      7  C   UNL     1      -3.001  -2.030   1.838  0.00  0.00    +0.021 C 
ATOM      8  C   UNL     1      -2.321  -0.870   1.427  0.00  0.00    +0.175 C 
ATOM      9  O   UNL     1      -2.388   0.136   2.105  0.00  0.00    -0.291 OA
ATOM     10  C   UNL     1      -1.509  -0.856   0.160  0.00  0.00    +0.171 C 
ATOM     11  C   UNL     1      -0.998  -2.273  -0.121  0.00  0.00    +0.013 C 
ATOM     12  C   UNL     1      -2.199  -3.220  -0.192  0.00  0.00    +0.055 C 
ATOM     13  C   UNL     1      -0.058  -2.713   1.003  0.00  0.00    +0.009 C 
ATOM     14  H   UNL     1      -3.373  -5.152   1.177  0.00  0.00    +0.155 HD
ENDROOT
BRANCH   1  17
ATOM     15  C   UNL     1      -1.840  -2.177   6.367  0.00  0.00    +0.163 A 
ATOM     16  C   UNL     1      -2.632  -1.701   5.333  0.00  0.00    +0.053 A 
ATOM     17  C   UNL     1      -2.921  -2.513   4.253  0.00  0.00    -0.034 A 
ATOM     18  C   UNL     1      -2.426  -3.803   4.202  0.00  0.00    +0.028 A 
ATOM     19  C   UNL     1      -1.632  -4.284   5.227  0.00  0.00    +0.086 A 
ATOM     20  C   UNL     1      -1.338  -3.474   6.314  0.00  0.00    +0.177 A 
ATOM     21 CL   UNL     1      -1.008  -5.902   5.157  0.00  0.00    -0.080 Cl
BRANCH  20  22
ATOM     22  O   UNL     1      -0.560  -3.945   7.325  0.00  0.00    -0.502 OA
ATOM     23  H   UNL     1      -1.056  -4.378   8.034  0.00  0.00    +0.292 HD
ENDBRANCH  20  22
BRANCH  15  24
ATOM     24  O   UNL     1      -1.556  -1.379   7.431  0.00  0.00    -0.489 OA
BRANCH  24  26
ATOM     25  C   UNL     1      -1.680   0.682   8.686  0.00  0.00    +0.048 C 
ATOM     26  C   UNL     1      -2.106  -0.060   7.418  0.00  0.00    +0.226 C 
ENDBRANCH  24  26
ENDBRANCH  15  24
ENDBRANCH   1  17
BRANCH  10  27
ATOM     27  C   UNL     1      -0.339   0.080   0.320  0.00  0.00    +0.318 C 
ATOM     28  O   UNL     1       0.188   0.208   1.399  0.00  0.00    -0.250 OA
BRANCH  27  29
ATOM     29  O   UNL     1       0.117   0.770  -0.737  0.00  0.00    -0.467 OA
ATOM     30  C   UNL     1       1.247   1.653  -0.509  0.00  0.00    +0.280 C 
ENDBRANCH  27  29
ENDBRANCH  10  27
TORSDOF 6
