REMARK  Name = ZINC65919027
REMARK  4 active torsions:
REMARK  status: ('A' for Active; 'I' for Inactive)
REMARK    1  A    between atoms: C_5  and  C_6
REMARK    2  A    between atoms: C_12  and  C_13
REMARK    3  A    between atoms: N_15  and  N_16
REMARK    4  A    between atoms: N_19  and  C_20
REMARK                            x       y       z     vdW  Elec       q    Type
REMARK                         _______ _______ _______ _____ _____    ______ ____
ROOT
ATOM      1  C   UNL     1      -2.774  -3.206  -1.235  0.00  0.00    +0.250 C 
ATOM      2  O   UNL     1      -2.369  -2.584  -2.195  0.00  0.00    -0.272 OA
ATOM      3  N   UNL     1      -3.985  -3.797  -1.277  0.00  0.00    -0.232 N 
ATOM      4  H   UNL     1      -4.308  -4.294  -0.510  0.00  0.00    +0.173 HD
ENDROOT
BRANCH   1  11
ATOM      5  C   UNL     1      -1.123  -0.943   0.008  0.00  0.00    +0.254 C 
ATOM      6  O   UNL     1      -2.265  -0.523   0.022  0.00  0.00    -0.269 OA
ATOM      7  N   UNL     1      -0.892  -2.270  -0.001  0.00  0.00    -0.285 N 
ATOM      8  C   UNL     1       0.435  -2.912  -0.011  0.00  0.00    +0.109 C 
ATOM      9  C   UNL     1       0.200  -4.319   0.594  0.00  0.00    +0.021 C 
ATOM     10  C   UNL     1      -1.193  -4.679   0.014  0.00  0.00    +0.033 C 
ATOM     11  C   UNL     1      -1.923  -3.319   0.003  0.00  0.00    +0.164 C 
BRANCH   5  16
ATOM     12  C   UNL     1      -0.017   1.383   0.010  0.00  0.00    +0.022 A 
ATOM     13  C   UNL     1       1.212   1.997   0.001  0.00  0.00    +0.028 A 
ATOM     14  C   UNL     1       2.332   1.229  -0.014  0.00  0.00    +0.079 A 
ATOM     15  S   UNL     1       1.751  -0.347  -0.017  0.00  0.00    -0.072 S 
ATOM     16  C   UNL     1       0.002  -0.004   0.002  0.00  0.00    +0.075 A 
ATOM     17 CL   UNL     1       3.986   1.757  -0.027  0.00  0.00    -0.076 Cl
ENDBRANCH   5  16
ENDBRANCH   1  11
BRANCH   3  18
ATOM     18  N   UNL     1      -4.776  -3.692  -2.428  0.00  0.00    -0.218 N 
ATOM     19  C   UNL     1      -5.987  -4.283  -2.470  0.00  0.00    +0.316 C 
ATOM     20  O   UNL     1      -6.673  -4.192  -3.469  0.00  0.00    -0.251 OA
ATOM     21  N   UNL     1      -6.436  -4.974  -1.404  0.00  0.00    -0.295 N 
ATOM     22  H   UNL     1      -4.452  -3.195  -3.196  0.00  0.00    +0.174 HD
ATOM     23  H   UNL     1      -5.888  -5.047  -0.607  0.00  0.00    +0.151 HD
BRANCH  21  24
ATOM     24  C   UNL     1      -7.752  -5.616  -1.449  0.00  0.00    +0.074 C 
ATOM     25  C   UNL     1      -7.628  -7.035  -2.042  0.00  0.00    +0.022 C 
ATOM     26  C   UNL     1      -7.521  -7.957  -0.803  0.00  0.00    +0.002 C 
ATOM     27  C   UNL     1      -8.500  -7.297   0.200  0.00  0.00    +0.002 C 
ATOM     28  C   UNL     1      -8.307  -5.783  -0.023  0.00  0.00    +0.022 C 
ENDBRANCH  21  24
ENDBRANCH   3  18
TORSDOF 4
