REMARK  Name = ZINC54233091
REMARK  6 active torsions:
REMARK  status: ('A' for Active; 'I' for Inactive)
REMARK    1  A    between atoms: C_1  and  C_2
REMARK    2  A    between atoms: C_8  and  C_10
REMARK    3  A    between atoms: N_13  and  C_16
REMARK    4  A    between atoms: C_16  and  C_18
REMARK    5  A    between atoms: C_16  and  C_19
REMARK    6  A    between atoms: C_24  and  C_27
REMARK                            x       y       z     vdW  Elec       q    Type
REMARK                         _______ _______ _______ _____ _____    ______ ____
ROOT
ATOM      1  C   UNL     1       0.316  -5.097   3.073  0.00  0.00    +0.072 C 
ATOM      2  C   UNL     1       1.336  -4.815   4.180  0.00  0.00    -0.006 C 
ATOM      3  C   UNL     1       1.256  -5.922   5.234  0.00  0.00    -0.077 C 
ATOM      4  N   UNL     1       1.553  -7.218   4.611  0.00  0.00    +0.387 N 
ATOM      5  C   UNL     1       0.537  -7.527   3.597  0.00  0.00    -0.077 C 
ATOM      6  C   UNL     1       0.590  -6.482   2.481  0.00  0.00    -0.006 C 
ATOM      7  H   UNL     1       2.462  -7.179   4.174  0.00  0.00    -0.081 HD
ENDROOT
BRANCH   1  15
ATOM      8  C   UNL     1       0.172   1.792   0.444  0.00  0.00    +0.066 C 
ATOM      9  C   UNL     1       0.350   0.299   0.340  0.00  0.00    +0.047 A 
ATOM     10  C   UNL     1       0.668  -0.296  -0.836  0.00  0.00    +0.071 A 
ATOM     11  S   UNL     1       0.738  -2.008  -0.335  0.00  0.00    -0.060 S 
ATOM     12  C   UNL     1       0.360  -1.790   1.290  0.00  0.00    +0.165 A 
ATOM     13  N   UNL     1       0.208  -0.487   1.391  0.00  0.00    -0.230 NA
ATOM     14  N   UNL     1       0.243  -2.753   2.286  0.00  0.00    -0.264 N 
ATOM     15  C   UNL     1       0.443  -4.053   1.993  0.00  0.00    +0.222 C 
ATOM     16  O   UNL     1       0.725  -4.383   0.861  0.00  0.00    -0.275 OA
ATOM     17  H   UNL     1       0.018  -2.489   3.192  0.00  0.00    +0.157 HD
ENDBRANCH   1  15
BRANCH   4  18
ATOM     18  C   UNL     1       1.552  -8.266   5.640  0.00  0.00    +0.016 C 
ATOM     19  C   UNL     1       1.782  -9.627   4.981  0.00  0.00    -0.004 C 
BRANCH  18  20
ATOM     20  C   UNL     1       2.652  -7.996   6.633  0.00  0.00    +0.202 C 
ATOM     21  O   UNL     1       3.609  -7.324   6.311  0.00  0.00    -0.277 OA
ATOM     22  N   UNL     1       2.573  -8.501   7.880  0.00  0.00    -0.303 N 
ATOM     23  C   UNL     1       1.378  -9.236   8.316  0.00  0.00    +0.108 C 
ATOM     24  C   UNL     1       0.857  -8.605   9.611  0.00  0.00    +0.022 C 
ATOM     25  C   UNL     1       1.984  -8.569  10.646  0.00  0.00    -0.011 C 
ATOM     26  C   UNL     1       3.135  -7.709  10.119  0.00  0.00    +0.022 C 
ATOM     27  C   UNL     1       3.684  -8.334   8.827  0.00  0.00    +0.108 C 
ATOM     28  C   UNL     1       1.458  -7.971  11.952  0.00  0.00    +0.007 C 
ENDBRANCH  18  20
ENDBRANCH   4  18
TORSDOF 3
