REMARK  Name = ZINC33373454
REMARK  2 active torsions:
REMARK  status: ('A' for Active; 'I' for Inactive)
REMARK    1  A    between atoms: N_9  and  C_11
REMARK    2  A    between atoms: C_12  and  C_22
REMARK                            x       y       z     vdW  Elec       q    Type
REMARK                         _______ _______ _______ _____ _____    ______ ____
ROOT
ATOM      1  C   UNL     1      -1.273  -0.511   0.103  0.00  0.00    +0.139 A 
ATOM      2  C   UNL     1      -2.030  -0.774  -1.065  0.00  0.00    +0.119 A 
ATOM      3  C   UNL     1      -3.333  -1.309  -0.914  0.00  0.00    +0.270 A 
ATOM      4  O   UNL     1      -4.019  -1.554  -1.890  0.00  0.00    -0.266 OA
ATOM      5  N   UNL     1      -3.805  -1.535   0.331  0.00  0.00    -0.268 N 
ATOM      6  C   UNL     1      -5.059  -2.045   0.486  0.00  0.00    +0.096 A 
ATOM      7  C   UNL     1      -5.562  -2.284   1.718  0.00  0.00    +0.018 A 
ATOM      8  C   UNL     1      -4.793  -2.009   2.857  0.00  0.00    +0.005 A 
ATOM      9  C   UNL     1      -3.537  -1.499   2.712  0.00  0.00    +0.047 A 
ATOM     10  C   UNL     1      -3.031  -1.257   1.423  0.00  0.00    +0.142 A 
ATOM     11  N   UNL     1      -1.800  -0.758   1.292  0.00  0.00    -0.214 NA
ENDROOT
BRANCH   1  20
ATOM     12  C   UNL     1       3.943   3.087   0.099  0.00  0.00    +0.000 A 
ATOM     13  C   UNL     1       2.847   3.898  -0.127  0.00  0.00    +0.000 A 
ATOM     14  C   UNL     1       1.577   3.359  -0.109  0.00  0.00    +0.005 A 
ATOM     15  C   UNL     1       1.393   2.005   0.133  0.00  0.00    -0.027 A 
ATOM     16  C   UNL     1       2.486   1.196   0.356  0.00  0.00    -0.041 A 
ATOM     17  C   UNL     1       3.762   1.740   0.340  0.00  0.00    +0.004 A 
ATOM     18  C   UNL     1       2.338  -0.281   0.619  0.00  0.00    +0.054 C 
ATOM     19  C   UNL     1       0.893  -0.599   1.004  0.00  0.00    +0.111 C 
ATOM     20  N   UNL     1      -0.001   0.004   0.002  0.00  0.00    -0.310 N 
ATOM     21  C   UNL     1      -0.012   1.463   0.146  0.00  0.00    +0.142 C 
ENDBRANCH   1  20
BRANCH   2  22
ATOM     22  C   UNL     1      -1.499  -0.516  -2.345  0.00  0.00    +0.267 C 
ATOM     23  O   UNL     1      -2.194  -0.658  -3.332  0.00  0.00    -0.295 OA
ENDBRANCH   2  22
TORSDOF 2
