REMARK  Name = ZINC39573974
REMARK  3 active torsions:
REMARK  status: ('A' for Active; 'I' for Inactive)
REMARK    1  A    between atoms: C_13  and  C_15
REMARK    2  A    between atoms: N_17  and  N_18
REMARK    3  A    between atoms: C_19  and  C_20
REMARK                            x       y       z     vdW  Elec       q    Type
REMARK                         _______ _______ _______ _____ _____    ______ ____
ROOT
ATOM      1  C   UNL     1      -0.017   1.378   0.010  0.00  0.00    +0.000 A 
ATOM      2  C   UNL     1       1.165   2.099   0.002  0.00  0.00    +0.001 A 
ATOM      3  C   UNL     1       2.376   1.433  -0.031  0.00  0.00    +0.010 A 
ATOM      4  C   UNL     1       2.396   0.048  -0.056  0.00  0.00    +0.005 A 
ATOM      5  C   UNL     1       1.206  -0.684  -0.013  0.00  0.00    -0.038 A 
ATOM      6  C   UNL     1       0.002  -0.004   0.002  0.00  0.00    +0.004 A 
ATOM      7  C   UNL     1       1.218  -2.186   0.066  0.00  0.00    +0.040 C 
ATOM      8  C   UNL     1       2.381  -2.796  -0.718  0.00  0.00    +0.040 C 
ATOM      9  C   UNL     1       3.638  -2.039  -0.426  0.00  0.00    -0.007 C 
ATOM     10  C   UNL     1       3.667  -0.716  -0.125  0.00  0.00    +0.095 C 
ATOM     11  N   UNL     1       4.941  -0.317   0.071  0.00  0.00    -0.153 NA
ATOM     12  N   UNL     1       5.784  -1.215  -0.052  0.00  0.00    -0.170 NA
ATOM     13  C   UNL     1       5.077  -2.468  -0.388  0.00  0.00    +0.243 C 
ENDROOT
BRANCH  13  14
ATOM     14  C   UNL     1       5.295  -3.507   0.681  0.00  0.00    +0.263 C 
ATOM     15  O   UNL     1       5.765  -3.186   1.752  0.00  0.00    -0.271 OA
ATOM     16  N   UNL     1       4.969  -4.794   0.446  0.00  0.00    -0.205 N 
ATOM     17  H   UNL     1       4.593  -5.051  -0.410  0.00  0.00    +0.177 HD
BRANCH  16  18
ATOM     18  N   UNL     1       5.172  -5.760   1.440  0.00  0.00    -0.188 NA
ATOM     19  C   UNL     1       4.858  -6.999   1.214  0.00  0.00    +0.139 C 
BRANCH  19  20
ATOM     20  C   UNL     1       5.072  -8.016   2.260  0.00  0.00    +0.008 A 
ATOM     21  C   UNL     1       4.741  -9.352   2.018  0.00  0.00    +0.010 A 
ATOM     22  C   UNL     1       4.944 -10.298   3.001  0.00  0.00    +0.001 A 
ATOM     23  C   UNL     1       5.476  -9.928   4.224  0.00  0.00    +0.001 A 
ATOM     24  C   UNL     1       5.806  -8.608   4.471  0.00  0.00    +0.016 A 
ATOM     25  C   UNL     1       5.614  -7.650   3.495  0.00  0.00    +0.027 A 
ATOM     26 BR   UNL     1       6.074  -5.847   3.832  0.00  0.00    -0.050 Br
ENDBRANCH  19  20
ENDBRANCH  16  18
ENDBRANCH  13  14
TORSDOF 3
