REMARK  Name = ZINC41512676
REMARK  4 active torsions:
REMARK  status: ('A' for Active; 'I' for Inactive)
REMARK    1  A    between atoms: C_1  and  C_2
REMARK    2  A    between atoms: N_7  and  C_9
REMARK    3  A    between atoms: C_9  and  C_10
REMARK    4  A    between atoms: C_11  and  O_22
REMARK                            x       y       z     vdW  Elec       q    Type
REMARK                         _______ _______ _______ _____ _____    ______ ____
ROOT
ATOM      1  C   UNL     1       1.666  -3.960   2.315  0.00  0.00    +0.020 A 
ATOM      2  C   UNL     1       0.713  -4.773   2.906  0.00  0.00    +0.122 A 
ATOM      3  C   UNL     1       0.826  -6.160   2.842  0.00  0.00    +0.046 A 
ATOM      4  C   UNL     1       1.881  -6.738   2.195  0.00  0.00    +0.019 A 
ATOM      5  C   UNL     1       2.849  -5.933   1.595  0.00  0.00    +0.066 A 
ATOM      6  C   UNL     1       2.740  -4.532   1.649  0.00  0.00    +0.143 A 
ATOM      7  O   UNL     1       3.680  -3.765   1.060  0.00  0.00    -0.461 OA
ATOM      8  C   UNL     1       4.727  -4.287   0.410  0.00  0.00    +0.219 A 
ATOM      9  C   UNL     1       4.926  -5.612   0.293  0.00  0.00    +0.123 A 
ATOM     10  C   UNL     1       4.003  -6.516   0.887  0.00  0.00    +0.211 A 
ATOM     11  O   UNL     1       4.152  -7.723   0.802  0.00  0.00    -0.285 OA
ATOM     12 CL   UNL     1       6.308  -6.215  -0.567  0.00  0.00    -0.076 Cl
ENDROOT
BRANCH   2  13
ATOM     13  O   UNL     1      -0.341  -4.213   3.553  0.00  0.00    -0.506 OA
ATOM     14  H   UNL     1      -1.110  -4.054   2.988  0.00  0.00    +0.292 HD
ENDBRANCH   2  13
BRANCH   1  15
ATOM     15  C   UNL     1       1.534  -2.461   2.390  0.00  0.00    -0.036 C 
BRANCH  15  21
ATOM     16  C   UNL     1      -0.019   1.526   0.010  0.00  0.00    +0.005 C 
ATOM     17  C   UNL     1       0.002  -0.004   0.002  0.00  0.00    -0.031 C 
ATOM     18  C   UNL     1      -1.434  -0.535   0.015  0.00  0.00    -0.001 C 
ATOM     19  C   UNL     1      -1.402  -2.064   0.086  0.00  0.00    -0.018 C 
ATOM     20  C   UNL     1      -0.613  -2.496   1.324  0.00  0.00    -0.078 C 
ATOM     21  N   UNL     1       0.758  -1.980   1.239  0.00  0.00    +0.383 N 
ATOM     22  C   UNL     1       0.740  -0.512   1.242  0.00  0.00    -0.075 C 
ATOM     23  H   UNL     1       1.188  -2.307   0.386  0.00  0.00    -0.081 HD
ENDBRANCH  15  21
ENDBRANCH   1  15
TORSDOF 3
