REMARK  Name = ZINC09001952
REMARK  6 active torsions:
REMARK  status: ('A' for Active; 'I' for Inactive)
REMARK    1  A    between atoms: C_1  and  C_2
REMARK    2  A    between atoms: C_2  and  N_3
REMARK    3  A    between atoms: N_12  and  C_13
REMARK    4  A    between atoms: C_13  and  C_15
REMARK    5  A    between atoms: C_17  and  C_21
REMARK    6  A    between atoms: N_18  and  C_20
REMARK                            x       y       z     vdW  Elec       q    Type
REMARK                         _______ _______ _______ _____ _____    ______ ____
ROOT
ATOM      1  N   UNL     1      -1.191  -0.611   0.084  0.00  0.00    -0.321 N 
ATOM      2  C   UNL     1       0.076  -0.058   0.116  0.00  0.00    +0.058 A 
ATOM      3  C   UNL     1       1.315  -0.718   0.083  0.00  0.00    +0.028 A 
ATOM      4  C   UNL     1       2.491  -0.007   0.124  0.00  0.00    +0.022 A 
ATOM      5  C   UNL     1       2.492   1.377   0.200  0.00  0.00    +0.042 A 
ATOM      6  C   UNL     1       1.284   2.053   0.234  0.00  0.00    +0.037 A 
ATOM      7  C   UNL     1       0.108   1.342   0.193  0.00  0.00    +0.040 A 
ATOM      8  S   UNL     1      -1.610   1.788   0.220  0.00  0.00    -0.052 S 
ATOM      9  C   UNL     1      -2.287   0.194   0.126  0.00  0.00    +0.167 A 
ATOM     10  N   UNL     1      -3.568  -0.157   0.104  0.00  0.00    -0.151 NA
ATOM     11 CL   UNL     1       3.990   2.252   0.250  0.00  0.00    -0.084 Cl
ENDROOT
BRANCH   1  13
ATOM     12  C   UNL     1      -2.562  -2.489   0.841  0.00  0.00    +0.027 C 
ATOM     13  C   UNL     1      -1.354  -2.064   0.004  0.00  0.00    +0.121 C 
ENDBRANCH   1  13
BRANCH  10  14
ATOM     14  C   UNL     1      -4.520   0.782   0.154  0.00  0.00    +0.290 C 
ATOM     15  O   UNL     1      -4.211   1.959   0.218  0.00  0.00    -0.266 OA
BRANCH  14  16
ATOM     16  C   UNL     1      -5.947   0.391   0.130  0.00  0.00    +0.149 A 
ATOM     17  C   UNL     1      -7.059   1.263   0.175  0.00  0.00    +0.057 A 
ATOM     18  C   UNL     1      -8.150   0.462   0.130  0.00  0.00    +0.037 A 
ATOM     19  N   UNL     1      -7.707  -0.812   0.061  0.00  0.00    -0.271 N 
ATOM     20  N   UNL     1      -6.423  -0.835   0.056  0.00  0.00    -0.167 NA
ATOM     21  C   UNL     1      -8.567  -1.996  -0.005  0.00  0.00    +0.172 C 
ATOM     22  C   UNL     1      -9.589   0.909   0.151  0.00  0.00    +0.065 C 
ENDBRANCH  14  16
ENDBRANCH  10  14
TORSDOF 3
