REMARK  Name = ZINC39345185
REMARK  8 active torsions:
REMARK  status: ('A' for Active; 'I' for Inactive)
REMARK    1  A    between atoms: C_1  and  C_2
REMARK    2  A    between atoms: C_4  and  C_15
REMARK    3  A    between atoms: C_5  and  C_14
REMARK    4  A    between atoms: N_7  and  C_8
REMARK    5  A    between atoms: C_18  and  C_20
REMARK    6  A    between atoms: N_22  and  N_23
REMARK    7  A    between atoms: C_24  and  C_25
REMARK    8  A    between atoms: C_24  and  C_26
REMARK                            x       y       z     vdW  Elec       q    Type
REMARK                         _______ _______ _______ _____ _____    ______ ____
ROOT
ATOM      1  C   UNL     1       0.403  -0.301  -2.552  0.00  0.00    +0.076 C 
ATOM      2  N   UNL     1      -0.622   0.390  -3.022  0.00  0.00    -0.153 NA
ATOM      3  N   UNL     1      -0.688   0.419  -4.295  0.00  0.00    -0.148 NA
ATOM      4  C   UNL     1       0.269  -0.239  -4.903  0.00  0.00    +0.132 C 
ATOM      5  C   UNL     1       1.132  -0.805  -3.787  0.00  0.00    +0.120 C 
ENDROOT
BRANCH   1   8
ATOM      6  C   UNL     1      -0.019   1.526   0.010  0.00  0.00    +0.035 C 
ATOM      7  C   UNL     1       0.002  -0.004   0.002  0.00  0.00    +0.124 C 
ATOM      8  C   UNL     1       0.745  -0.517  -1.213  0.00  0.00    +0.016 C 
ATOM      9  C   UNL     1       1.806  -1.227  -0.752  0.00  0.00    +0.026 C 
ATOM     10  N   UNL     1       1.846  -1.240   0.601  0.00  0.00    -0.267 N 
ATOM     11  N   UNL     1       0.775  -0.515   1.146  0.00  0.00    -0.246 N 
ATOM     12  C   UNL     1       2.814  -1.915  -1.636  0.00  0.00    +0.062 C 
ATOM     13  H   UNL     1       2.525  -1.692   1.126  0.00  0.00    +0.170 HD
BRANCH  11  14
ATOM     14  C   UNL     1       0.497  -0.316   2.501  0.00  0.00    +0.048 A 
ATOM     15  C   UNL     1      -0.612   0.427   2.882  0.00  0.00    +0.025 A 
ATOM     16  C   UNL     1      -0.884   0.621   4.222  0.00  0.00    +0.002 A 
ATOM     17  C   UNL     1      -0.053   0.077   5.184  0.00  0.00    +0.000 A 
ATOM     18  C   UNL     1       1.052  -0.664   4.808  0.00  0.00    +0.002 A 
ATOM     19  C   UNL     1       1.327  -0.866   3.470  0.00  0.00    +0.025 A 
ENDBRANCH  11  14
ENDBRANCH   1   8
BRANCH   4  20
ATOM     20  C   UNL     1       0.461  -0.387  -6.299  0.00  0.00    +0.280 C 
ATOM     21  O   UNL     1       1.404  -1.034  -6.719  0.00  0.00    -0.267 OA
ATOM     22  N   UNL     1      -0.400   0.188  -7.162  0.00  0.00    -0.202 N 
ATOM     23  H   UNL     1      -1.151   0.703  -6.827  0.00  0.00    +0.178 HD
BRANCH  22  24
ATOM     24  N   UNL     1      -0.210   0.042  -8.542  0.00  0.00    -0.184 NA
ATOM     25  C   UNL     1      -1.041   0.597  -9.375  0.00  0.00    +0.070 C 
ATOM     26  C   UNL     1      -2.208   1.397  -8.856  0.00  0.00    +0.068 C 
BRANCH  25  27
ATOM     27  C   UNL     1      -0.843   0.444 -10.820  0.00  0.00    +0.035 A 
ATOM     28  C   UNL     1       0.148  -0.246 -11.497  0.00  0.00    +0.017 A 
ATOM     29  C   UNL     1       0.123  -0.245 -12.872  0.00  0.00    +0.008 A 
ATOM     30  C   UNL     1      -0.866   0.426 -13.518  0.00  0.00    +0.046 A 
ATOM     31  S   UNL     1      -1.821   1.092 -12.165  0.00  0.00    -0.095 S 
ENDBRANCH  25  27
ENDBRANCH  22  24
ENDBRANCH   4  20
TORSDOF 5
