REMARK  Name = ZINC13121813
REMARK  6 active torsions:
REMARK  status: ('A' for Active; 'I' for Inactive)
REMARK    1  A    between atoms: C_1  and  C_2
REMARK    2  A    between atoms: C_2  and  O_3
REMARK    3  A    between atoms: O_3  and  C_4
REMARK    4  A    between atoms: C_4  and  C_6
REMARK    5  A    between atoms: C_9  and  C_13
REMARK    6  A    between atoms: C_18  and  O_19
REMARK                            x       y       z     vdW  Elec       q    Type
REMARK                         _______ _______ _______ _____ _____    ______ ____
ROOT
ATOM      1  C   UNL     1       1.453  -2.346  -2.524  0.00  0.00    +0.114 A 
ATOM      2  C   UNL     1       2.000  -1.497  -3.496  0.00  0.00    +0.131 A 
ATOM      3  N   UNL     1       2.598  -2.026  -4.545  0.00  0.00    -0.235 NA
ATOM      4  C   UNL     1       2.686  -3.344  -4.689  0.00  0.00    +0.165 A 
ATOM      5  N   UNL     1       2.182  -4.183  -3.792  0.00  0.00    -0.215 NA
ATOM      6  C   UNL     1       1.573  -3.733  -2.710  0.00  0.00    +0.147 A 
ATOM      7 CL   UNL     1       0.924  -4.838  -1.540  0.00  0.00    -0.061 Cl
ENDROOT
BRANCH   4   8
ATOM      8  C   UNL     1       3.366  -3.892  -5.883  0.00  0.00    +0.060 A 
ATOM      9  C   UNL     1       3.909  -3.032  -6.838  0.00  0.00    +0.015 A 
ATOM     10  C   UNL     1       4.541  -3.548  -7.949  0.00  0.00    +0.001 A 
ATOM     11  C   UNL     1       4.640  -4.919  -8.122  0.00  0.00    +0.004 A 
ATOM     12  C   UNL     1       4.106  -5.781  -7.184  0.00  0.00    +0.046 A 
ATOM     13  C   UNL     1       3.473  -5.277  -6.059  0.00  0.00    +0.128 A 
BRANCH  13  14
ATOM     14  O   UNL     1       2.953  -6.123  -5.133  0.00  0.00    -0.506 OA
ATOM     15  H   UNL     1       2.034  -6.372  -5.300  0.00  0.00    +0.292 HD
ENDBRANCH  13  14
ENDBRANCH   4   8
BRANCH   1  16
ATOM     16  C   UNL     1       0.776  -1.799  -1.335  0.00  0.00    +0.344 C 
ATOM     17  O   UNL     1       0.312  -2.550  -0.500  0.00  0.00    -0.245 OA
BRANCH  16  18
ATOM     18  O   UNL     1       0.671  -0.465  -1.174  0.00  0.00    -0.461 OA
BRANCH  18  20
ATOM     19  C   UNL     1      -0.019   1.526   0.010  0.00  0.00    +0.048 C 
ATOM     20  C   UNL     1       0.002  -0.004   0.002  0.00  0.00    +0.229 C 
ENDBRANCH  18  20
ENDBRANCH  16  18
ENDBRANCH   1  16
TORSDOF 5
