REMARK  Name = ZINC39264162
REMARK  6 active torsions:
REMARK  status: ('A' for Active; 'I' for Inactive)
REMARK    1  A    between atoms: C_1  and  C_2
REMARK    2  A    between atoms: C_4  and  C_22
REMARK    3  A    between atoms: C_7  and  C_8
REMARK    4  A    between atoms: C_13  and  C_20
REMARK    5  A    between atoms: C_16  and  C_18
REMARK    6  A    between atoms: C_16  and  C_19
REMARK                            x       y       z     vdW  Elec       q    Type
REMARK                         _______ _______ _______ _____ _____    ______ ____
ROOT
ATOM      1  C   UNL     1      -0.703   3.888  -0.507  0.00  0.00    +0.252 C 
ATOM      2  O   UNL     1      -1.190   3.114  -1.309  0.00  0.00    -0.270 OA
ATOM      3  N   UNL     1      -0.865   5.216  -0.669  0.00  0.00    -0.297 N 
ATOM      4  C   UNL     1      -1.716   5.685  -1.740  0.00  0.00    +0.108 C 
ATOM      5  C   UNL     1      -3.173   5.806  -1.231  0.00  0.00    +0.022 C 
ATOM      6  C   UNL     1      -3.298   6.941  -0.303  0.00  0.00    -0.012 C 
ATOM      7  C   UNL     1      -2.463   6.808   0.968  0.00  0.00    +0.011 C 
ATOM      8  C   UNL     1      -1.063   7.301   0.700  0.00  0.00    -0.019 C 
ATOM      9  C   UNL     1      -0.171   6.132   0.258  0.00  0.00    +0.114 C 
ATOM     10  C   UNL     1      -0.491   7.921   1.977  0.00  0.00    +0.012 C 
ATOM     11  C   UNL     1      -1.100   8.361  -0.403  0.00  0.00    +0.012 C 
ATOM     12  C   UNL     1      -4.768   7.082   0.097  0.00  0.00    +0.007 C 
ENDROOT
BRANCH   1  19
ATOM     13  C   UNL     1       2.202   3.835  -0.606  0.00  0.00    +0.045 C 
ATOM     14  C   UNL     1       1.454   3.344   0.607  0.00  0.00    -0.031 A 
ATOM     15  C   UNL     1       2.146   2.856   1.715  0.00  0.00    +0.025 A 
ATOM     16  C   UNL     1       1.464   2.415   2.804  0.00  0.00    +0.016 A 
ATOM     17  N   UNL     1       0.111   2.437   2.841  0.00  0.00    -0.326 N 
ATOM     18  C   UNL     1      -0.606   2.898   1.798  0.00  0.00    +0.261 A 
ATOM     19  C   UNL     1       0.062   3.375   0.640  0.00  0.00    +0.104 A 
ATOM     20  O   UNL     1      -1.823   2.909   1.850  0.00  0.00    -0.267 OA
ATOM     21  C   UNL     1       2.229   1.892   3.992  0.00  0.00    +0.063 C 
ATOM     22  H   UNL     1      -0.350   2.115   3.631  0.00  0.00    +0.169 HD
ENDBRANCH   1  19
TORSDOF 1
