REMARK  Name = ZINC18243913
REMARK  2 active torsions:
REMARK  status: ('A' for Active; 'I' for Inactive)
REMARK    1  A    between atoms: C_1  and  C_2
REMARK    2  A    between atoms: C_14  and  C_21
REMARK                            x       y       z     vdW  Elec       q    Type
REMARK                         _______ _______ _______ _____ _____    ______ ____
ROOT
ATOM      1  C   UNL     1      -0.018   1.503   0.010  0.00  0.00    +0.089 C 
ATOM      2  C   UNL     1       0.002  -0.004   0.002  0.00  0.00    +0.136 A 
ATOM      3  C   UNL     1      -1.076  -0.808   0.003  0.00  0.00    +0.091 A 
ATOM      4  C   UNL     1      -0.625  -2.146  -0.007  0.00  0.00    +0.177 A 
ATOM      5  N   UNL     1       0.682  -2.130  -0.013  0.00  0.00    -0.062 NA
ATOM      6  O   UNL     1       1.099  -0.777  -0.013  0.00  0.00    -0.358 OA
ATOM      7  N   UNL     1      -1.434  -3.287  -0.009  0.00  0.00    -0.191 N 
ATOM      8  C   UNL     1      -0.941  -4.537   0.085  0.00  0.00    +0.231 C 
ATOM      9  O   UNL     1       0.229  -4.854   0.041  0.00  0.00    -0.274 OA
ATOM     10  C   UNL     1      -2.116  -5.471   0.257  0.00  0.00    +0.088 C 
ATOM     11  C   UNL     1      -1.894  -6.832  -0.311  0.00  0.00    +0.014 C 
ATOM     12  C   UNL     1      -2.204  -6.993  -1.786  0.00  0.00    +0.009 C 
ATOM     13  C   UNL     1      -3.545  -6.345  -2.125  0.00  0.00    +0.020 C 
ATOM     14  C   UNL     1      -3.455  -4.854  -1.802  0.00  0.00    +0.021 C 
ATOM     15  C   UNL     1      -3.284  -4.662  -0.308  0.00  0.00    +0.088 C 
ATOM     16  C   UNL     1      -2.775  -3.235  -0.101  0.00  0.00    +0.231 C 
ATOM     17  O   UNL     1      -3.457  -2.235  -0.033  0.00  0.00    -0.274 OA
ENDROOT
BRANCH  13  18
ATOM     18  C   UNL     1      -3.842  -6.530  -3.591  0.00  0.00    -0.044 A 
ATOM     19  C   UNL     1      -2.975  -6.024  -4.541  0.00  0.00    +0.004 A 
ATOM     20  C   UNL     1      -3.247  -6.194  -5.886  0.00  0.00    +0.000 A 
ATOM     21  C   UNL     1      -4.386  -6.871  -6.280  0.00  0.00    +0.000 A 
ATOM     22  C   UNL     1      -5.253  -7.378  -5.330  0.00  0.00    +0.000 A 
ATOM     23  C   UNL     1      -4.978  -7.212  -3.985  0.00  0.00    +0.004 A 
ENDBRANCH  13  18
TORSDOF 1
