REMARK  Name = ZINC04088487
REMARK  4 active torsions:
REMARK  status: ('A' for Active; 'I' for Inactive)
REMARK    1  A    between atoms: C_1  and  C_2
REMARK    2  A    between atoms: C_9  and  N_13
REMARK    3  A    between atoms: C_10  and  C_11
REMARK    4  A    between atoms: C_14  and  C_16
REMARK                            x       y       z     vdW  Elec       q    Type
REMARK                         _______ _______ _______ _____ _____    ______ ____
ROOT
ATOM      1  N   UNL     1      -2.728   5.349   0.385  0.00  0.00    -0.276 N 
ATOM      2  C   UNL     1      -2.497   4.066   0.043  0.00  0.00    +0.262 C 
ATOM      3  O   UNL     1      -3.342   3.437  -0.558  0.00  0.00    -0.271 OA
ATOM      4  H   UNL     1      -2.052   5.852   0.865  0.00  0.00    +0.155 HD
ENDROOT
BRANCH   1  12
ATOM      5  C   UNL     1      -9.602   8.396  -1.774  0.00  0.00    +0.008 C 
ATOM      6  C   UNL     1      -8.108   8.259  -1.475  0.00  0.00    -0.009 C 
ATOM      7  C   UNL     1      -7.790   8.929  -0.135  0.00  0.00    +0.008 C 
ATOM      8  C   UNL     1      -6.275   9.017   0.056  0.00  0.00    +0.037 C 
ATOM      9  C   UNL     1      -5.673   7.633  -0.154  0.00  0.00    -0.018 A 
ATOM     10  C   UNL     1      -6.361   6.666  -0.801  0.00  0.00    -0.004 A 
ATOM     11  S   UNL     1      -5.280   5.264  -0.799  0.00  0.00    -0.077 S 
ATOM     12  C   UNL     1      -3.933   5.950   0.049  0.00  0.00    +0.090 A 
ATOM     13  C   UNL     1      -4.354   7.245   0.315  0.00  0.00    +0.084 A 
ATOM     14  C   UNL     1      -7.735   6.773  -1.387  0.00  0.00    +0.046 C 
BRANCH  13  15
ATOM     15  C   UNL     1      -3.517   8.166   1.022  0.00  0.00    +0.102 C 
ATOM     16  N   UNL     1      -2.853   8.898   1.583  0.00  0.00    -0.191 NA
ENDBRANCH  13  15
ENDBRANCH   1  12
BRANCH   2  17
ATOM     17  C   UNL     1      -1.189   3.413   0.408  0.00  0.00    +0.296 C 
ATOM     18  C   UNL     1      -0.040   4.103  -0.340  0.00  0.00    +0.283 C 
ATOM     19  O   UNL     1       1.184   3.451   0.018  0.00  0.00    -0.484 OA
ATOM     20  C   UNL     1       1.179   2.090   0.002  0.00  0.00    +0.162 A 
ATOM     21  C   UNL     1       2.385   1.406  -0.018  0.00  0.00    +0.049 A 
ATOM     22  C   UNL     1       2.397   0.024  -0.026  0.00  0.00    +0.004 A 
ATOM     23  C   UNL     1       1.207  -0.680  -0.015  0.00  0.00    +0.004 A 
ATOM     24  C   UNL     1       0.002  -0.004   0.002  0.00  0.00    +0.049 A 
ATOM     25  C   UNL     1      -0.017   1.383   0.010  0.00  0.00    +0.163 A 
ATOM     26  O   UNL     1      -1.212   2.035   0.019  0.00  0.00    -0.473 OA
ENDBRANCH   2  17
TORSDOF 3
