REMARK  Name = ZINC67401492
REMARK  6 active torsions:
REMARK  status: ('A' for Active; 'I' for Inactive)
REMARK    1  A    between atoms: C_1  and  C_2
REMARK    2  A    between atoms: C_2  and  N_3
REMARK    3  A    between atoms: C_7  and  C_8
REMARK    4  A    between atoms: C_8  and  N_9
REMARK    5  A    between atoms: C_17  and  N_18
REMARK    6  A    between atoms: N_21  and  C_22
REMARK                            x       y       z     vdW  Elec       q    Type
REMARK                         _______ _______ _______ _____ _____    ______ ____
ROOT
ATOM      1  N   UNL     1       3.134   1.390  -1.212  0.00  0.00    -0.291 NA
ATOM      2  C   UNL     1       4.226   1.618  -0.252  0.00  0.00    +0.090 C 
ATOM      3  C   UNL     1       4.560   3.110  -0.241  0.00  0.00    +0.052 C 
ATOM      4  C   UNL     1       3.300   3.917  -0.061  0.00  0.00    -0.021 A 
ATOM      5  C   UNL     1       2.054   3.370  -0.275  0.00  0.00    -0.028 A 
ATOM      6  C   UNL     1       0.920   4.152  -0.103  0.00  0.00    +0.005 A 
ATOM      7  C   UNL     1       1.031   5.473   0.285  0.00  0.00    +0.002 A 
ATOM      8  C   UNL     1       2.277   6.025   0.504  0.00  0.00    +0.023 A 
ATOM      9  C   UNL     1       3.414   5.248   0.331  0.00  0.00    +0.038 A 
ATOM     10  C   UNL     1       1.877   1.933  -0.688  0.00  0.00    +0.120 C 
ENDROOT
BRANCH   9  11
ATOM     11  N   UNL     1       4.679   5.804   0.552  0.00  0.00    -0.269 N 
ATOM     12  C   UNL     1       4.804   6.917   1.303  0.00  0.00    +0.308 C 
ATOM     13  O   UNL     1       3.834   7.377   1.874  0.00  0.00    -0.252 OA
ATOM     14  N   UNL     1       6.004   7.519   1.421  0.00  0.00    -0.269 N 
ATOM     15  H   UNL     1       5.465   5.389   0.165  0.00  0.00    +0.156 HD
ATOM     16  H   UNL     1       6.761   7.197   0.905  0.00  0.00    +0.156 HD
BRANCH  14  17
ATOM     17  C   UNL     1       6.160   8.607   2.288  0.00  0.00    +0.035 A 
ATOM     18  C   UNL     1       5.423   8.671   3.463  0.00  0.00    +0.026 A 
ATOM     19  C   UNL     1       5.577   9.745   4.316  0.00  0.00    +0.040 A 
ATOM     20  C   UNL     1       6.466  10.759   4.001  0.00  0.00    +0.124 A 
ATOM     21  C   UNL     1       7.202  10.698   2.830  0.00  0.00    +0.040 A 
ATOM     22  C   UNL     1       7.055   9.622   1.976  0.00  0.00    +0.026 A 
ATOM     23  F   UNL     1       6.616  11.809   4.838  0.00  0.00    -0.205 F 
ENDBRANCH  14  17
ENDBRANCH   9  11
BRANCH   1  24
ATOM     24  C   UNL     1       3.001  -0.038  -1.528  0.00  0.00    +0.157 C 
BRANCH  24  29
ATOM     25  N   UNL     1       2.469  -0.149  -4.013  0.00  0.00    -0.335 N 
ATOM     26  C   UNL     1       1.348  -0.356  -4.771  0.00  0.00    +0.104 A 
ATOM     27  C   UNL     1       0.324  -0.527  -3.914  0.00  0.00    +0.101 A 
ATOM     28  N   UNL     1       0.805  -0.427  -2.667  0.00  0.00    -0.349 N 
ATOM     29  C   UNL     1       2.090  -0.206  -2.718  0.00  0.00    +0.101 A 
ATOM     30  H   UNL     1       0.281  -0.510  -1.854  0.00  0.00    +0.166 HD
BRANCH  25  32
ATOM     31  C   UNL     1       4.620  -1.222  -4.461  0.00  0.00    +0.027 C 
ATOM     32  C   UNL     1       3.826   0.084  -4.512  0.00  0.00    +0.119 C 
ENDBRANCH  25  32
ENDBRANCH  24  29
ENDBRANCH   1  24
TORSDOF 5
