REMARK  Name = ZINC04087149
REMARK  9 active torsions:
REMARK  status: ('A' for Active; 'I' for Inactive)
REMARK    1  A    between atoms: C_1  and  C_2
REMARK    2  A    between atoms: C_2  and  N_52
REMARK    3  A    between atoms: C_8  and  N_13
REMARK    4  A    between atoms: C_9  and  C_10
REMARK    5  A    between atoms: C_14  and  C_16
REMARK    6  A    between atoms: C_19  and  O_22
REMARK    7  A    between atoms: O_22  and  C_23
REMARK    8  A    between atoms: C_23  and  C_24
REMARK    9  A    between atoms: C_23  and  C_25
REMARK                            x       y       z     vdW  Elec       q    Type
REMARK                         _______ _______ _______ _____ _____    ______ ____
ROOT
ATOM      1  C   UNL     1       1.907   3.387  -3.592  0.00  0.00    -0.074 C 
ATOM      2  C   UNL     1       1.097   2.533  -2.611  0.00  0.00    +0.018 C 
ATOM      3  C   UNL     1       1.730   2.667  -1.231  0.00  0.00    -0.027 A 
ATOM      4  C   UNL     1       2.992   3.137  -1.106  0.00  0.00    -0.021 A 
ATOM      5  S   UNL     1       3.307   3.127   0.635  0.00  0.00    -0.079 S 
ATOM      6  C   UNL     1       1.785   2.512   1.191  0.00  0.00    +0.085 A 
ATOM      7  C   UNL     1       1.071   2.322   0.015  0.00  0.00    +0.068 A 
ATOM      8  C   UNL     1       3.896   3.563  -2.220  0.00  0.00    -0.035 C 
ATOM      9  N   UNL     1       3.337   3.031  -3.486  0.00  0.00    +0.383 N 
ATOM     10  H   UNL     1       3.428   2.008  -3.488  0.00  0.00    -0.081 HD
ENDROOT
BRANCH   7  11
ATOM     11  C   UNL     1      -0.298   1.799   0.032  0.00  0.00    +0.244 C 
ATOM     12  O   UNL     1      -0.493   0.599  -0.035  0.00  0.00    -0.270 OA
ATOM     13  N   UNL     1      -1.343   2.647   0.116  0.00  0.00    -0.325 N 
ATOM     14  H   UNL     1      -2.249   2.301   0.123  0.00  0.00    +0.145 HD
ATOM     15  H   UNL     1      -1.188   3.603   0.169  0.00  0.00    +0.145 HD
ENDBRANCH   7  11
BRANCH   6  16
ATOM     16  N   UNL     1       1.380   2.266   2.493  0.00  0.00    -0.275 N 
ATOM     17  C   UNL     1       2.219   2.514   3.518  0.00  0.00    +0.249 C 
ATOM     18  O   UNL     1       3.332   2.953   3.300  0.00  0.00    -0.270 OA
ATOM     19  H   UNL     1       0.492   1.916   2.667  0.00  0.00    +0.156 HD
BRANCH  17  20
ATOM     20  C   UNL     1       1.788   2.253   4.904  0.00  0.00    +0.037 A 
ATOM     21  C   UNL     1       0.507   1.753   5.157  0.00  0.00    +0.016 A 
ATOM     22  C   UNL     1       0.111   1.505   6.452  0.00  0.00    +0.046 A 
ATOM     23  C   UNL     1       0.978   1.761   7.508  0.00  0.00    +0.121 A 
ATOM     24  C   UNL     1       2.250   2.264   7.261  0.00  0.00    +0.046 A 
ATOM     25  C   UNL     1       2.657   2.509   5.969  0.00  0.00    +0.016 A 
BRANCH  23  26
ATOM     26  O   UNL     1       0.581   1.520   8.784  0.00  0.00    -0.489 OA
BRANCH  26  27
ATOM     27  C   UNL     1       1.474   1.917   9.826  0.00  0.00    +0.167 C 
ATOM     28  C   UNL     1       0.681   2.158  11.112  0.00  0.00    +0.051 C 
ATOM     29  C   UNL     1       2.505   0.811  10.063  0.00  0.00    +0.051 C 
ENDBRANCH  26  27
ENDBRANCH  23  26
ENDBRANCH  17  20
ENDBRANCH   6  16
BRANCH   9  31
ATOM     30  C   UNL     1       3.881   5.096  -4.731  0.00  0.00    -0.017 C 
ATOM     31  C   UNL     1       4.081   3.582  -4.639  0.00  0.00    -0.082 C 
ENDBRANCH   9  31
TORSDOF 6
