REMARK  Name = ZINC29646340
REMARK  4 active torsions:
REMARK  status: ('A' for Active; 'I' for Inactive)
REMARK    1  A    between atoms: C_1  and  C_2
REMARK    2  A    between atoms: C_2  and  O_3
REMARK    3  A    between atoms: O_3  and  C_4
REMARK    4  A    between atoms: C_12  and  C_14
REMARK                            x       y       z     vdW  Elec       q    Type
REMARK                         _______ _______ _______ _____ _____    ______ ____
ROOT
ATOM      1  C   UNL     1      -6.038   1.242   0.056  0.00  0.00    +0.403 C 
ATOM      2  O   UNL     1      -6.956   0.803  -0.608  0.00  0.00    -0.226 OA
ATOM      3  N   UNL     1      -4.764   1.039  -0.338  0.00  0.00    -0.264 N 
ATOM      4  C   UNL     1      -4.472   0.289  -1.567  0.00  0.00    +0.130 C 
ATOM      5  C   UNL     1      -3.530  -0.871  -1.220  0.00  0.00    +0.127 C 
ATOM      6  N   UNL     1      -2.410  -0.346  -0.428  0.00  0.00    -0.295 N 
ATOM      7  C   UNL     1      -2.702   0.400   0.804  0.00  0.00    +0.127 C 
ATOM      8  C   UNL     1      -3.644   1.565   0.455  0.00  0.00    +0.130 C 
ATOM      9  C   UNL     1      -1.137  -0.549  -0.821  0.00  0.00    +0.257 C 
ATOM     10  O   UNL     1      -0.908  -1.170  -1.837  0.00  0.00    -0.272 OA
ENDROOT
BRANCH   9  11
ATOM     11  C   UNL     1       0.002  -0.004   0.002  0.00  0.00    +0.263 C 
ATOM     12  C   UNL     1      -0.019   1.543   0.011  0.00  0.00    +0.093 C 
ATOM     13  C   UNL     1       1.460   1.876  -0.002  0.00  0.00    -0.000 A 
ATOM     14  C   UNL     1       2.149   3.036   0.275  0.00  0.00    +0.027 A 
ATOM     15  C   UNL     1       3.531   3.057   0.190  0.00  0.00    +0.041 A 
ATOM     16  C   UNL     1       4.214   1.909  -0.172  0.00  0.00    +0.023 A 
ATOM     17  C   UNL     1       3.525   0.748  -0.453  0.00  0.00    +0.047 A 
ATOM     18  C   UNL     1       2.135   0.720  -0.374  0.00  0.00    +0.125 A 
ATOM     19  O   UNL     1       1.267  -0.302  -0.612  0.00  0.00    -0.479 OA
ATOM     20 CL   UNL     1       4.404   4.517   0.538  0.00  0.00    -0.084 Cl
ENDBRANCH   9  11
BRANCH   1  21
ATOM     21  O   UNL     1      -6.292   1.932   1.184  0.00  0.00    -0.451 OA
BRANCH  21  23
ATOM     22  C   UNL     1      -7.776   2.913   2.847  0.00  0.00    +0.048 C 
ATOM     23  C   UNL     1      -7.686   2.112   1.546  0.00  0.00    +0.230 C 
ENDBRANCH  21  23
ENDBRANCH   1  21
TORSDOF 3
