REMARK  Name = ZINC09925938
REMARK  7 active torsions:
REMARK  status: ('A' for Active; 'I' for Inactive)
REMARK    1  A    between atoms: C_1  and  C_2
REMARK    2  A    between atoms: C_8  and  N_9
REMARK    3  A    between atoms: C_8  and  N_64
REMARK    4  A    between atoms: C_16  and  C_19
REMARK    5  A    between atoms: C_16  and  O_32
REMARK    6  A    between atoms: C_19  and  C_20
REMARK    7  A    between atoms: C_20  and  C_22
REMARK                            x       y       z     vdW  Elec       q    Type
REMARK                         _______ _______ _______ _____ _____    ______ ____
ROOT
ATOM      1  N   UNL     1       2.569   3.615   0.048  0.00  0.00    -0.285 N 
ATOM      2  C   UNL     1       1.325   3.056  -0.245  0.00  0.00    +0.041 A 
ATOM      3  C   UNL     1       0.118   3.655  -0.601  0.00  0.00    +0.024 A 
ATOM      4  C   UNL     1      -0.995   2.878  -0.845  0.00  0.00    +0.002 A 
ATOM      5  C   UNL     1      -0.922   1.501  -0.745  0.00  0.00    +0.000 A 
ATOM      6  C   UNL     1       0.271   0.899  -0.386  0.00  0.00    +0.009 A 
ATOM      7  C   UNL     1       1.383   1.672  -0.141  0.00  0.00    +0.014 A 
ATOM      8  C   UNL     1       2.803   1.335   0.254  0.00  0.00    +0.175 C 
ATOM      9  C   UNL     1       3.488   2.682   0.349  0.00  0.00    +0.255 C 
ATOM     10  O   UNL     1       4.648   2.881   0.642  0.00  0.00    -0.272 OA
ENDROOT
BRANCH   8  11
ATOM     11  O   UNL     1       3.423   0.527  -0.748  0.00  0.00    -0.374 OA
ATOM     12  H   UNL     1       4.336   0.281  -0.546  0.00  0.00    +0.211 HD
ENDBRANCH   8  11
BRANCH   1  13
ATOM     13  C   UNL     1       2.843   5.054   0.029  0.00  0.00    +0.039 C 
BRANCH  13  20
ATOM     14  C   UNL     1       4.475   7.251   0.684  0.00  0.00    -0.013 C 
ATOM     15  C   UNL     1       3.161   7.004   1.428  0.00  0.00    -0.070 C 
ATOM     16  C   UNL     1       3.300   7.474   2.878  0.00  0.00    -0.016 C 
ATOM     17  C   UNL     1       1.990   7.206   3.624  0.00  0.00    -0.003 C 
ATOM     18  C   UNL     1       1.661   5.713   3.543  0.00  0.00    -0.019 C 
ATOM     19  C   UNL     1       1.570   5.294   2.074  0.00  0.00    -0.076 C 
ATOM     20  N   UNL     1       2.869   5.555   1.419  0.00  0.00    +0.392 N 
ATOM     21  H   UNL     1       3.608   5.064   1.936  0.00  0.00    -0.079 HD
ENDBRANCH  13  20
ENDBRANCH   1  13
BRANCH   8  22
ATOM     22  C   UNL     1       2.828   0.625   1.609  0.00  0.00    +0.129 C 
BRANCH  22  23
ATOM     23  C   UNL     1       4.256   0.409   2.037  0.00  0.00    +0.167 C 
ATOM     24  O   UNL     1       5.165   0.787   1.329  0.00  0.00    -0.292 OA
BRANCH  23  25
ATOM     25  C   UNL     1       4.549  -0.259   3.315  0.00  0.00    +0.018 A 
ATOM     26  C   UNL     1       3.505  -0.698   4.137  0.00  0.00    +0.011 A 
ATOM     27  C   UNL     1       3.795  -1.319   5.329  0.00  0.00    +0.004 A 
ATOM     28  C   UNL     1       5.114  -1.519   5.726  0.00  0.00    -0.044 A 
ATOM     29  C   UNL     1       6.147  -1.092   4.920  0.00  0.00    -0.044 A 
ATOM     30  C   UNL     1       5.869  -0.467   3.715  0.00  0.00    +0.015 A 
ATOM     31  C   UNL     1       7.596  -1.286   5.288  0.00  0.00    +0.035 C 
ATOM     32  C   UNL     1       7.736  -1.582   6.780  0.00  0.00    +0.005 C 
ATOM     33  C   UNL     1       6.780  -2.726   7.137  0.00  0.00    +0.005 C 
ATOM     34  C   UNL     1       5.348  -2.201   7.049  0.00  0.00    +0.035 C 
ENDBRANCH  23  25
ENDBRANCH  22  23
ENDBRANCH   8  22
TORSDOF 6
