REMARK  Name = ZINC49418659
REMARK  4 active torsions:
REMARK  status: ('A' for Active; 'I' for Inactive)
REMARK    1  A    between atoms: C_1  and  C_2
REMARK    2  A    between atoms: C_5  and  N_16
REMARK    3  A    between atoms: N_6  and  C_7
REMARK    4  A    between atoms: C_7  and  C_8
REMARK                            x       y       z     vdW  Elec       q    Type
REMARK                         _______ _______ _______ _____ _____    ______ ____
ROOT
ATOM      1  C   UNL     1      -0.018   1.503   0.010  0.00  0.00    +0.086 C 
ATOM      2  C   UNL     1       0.002  -0.004   0.002  0.00  0.00    +0.108 A 
ATOM      3  N   UNL     1       0.008  -0.759  -1.063  0.00  0.00    -0.238 NA
ATOM      4  C   UNL     1       0.028  -2.047  -0.691  0.00  0.00    +0.164 A 
ATOM      5  C   UNL     1       0.035  -2.093   0.655  0.00  0.00    +0.216 A 
ATOM      6  N   UNL     1       0.023  -0.797   1.095  0.00  0.00    -0.305 N 
ENDROOT
BRANCH   5   7
ATOM      7  N   UNL     1       0.055  -3.311   1.496  0.00  0.00    +0.075 N 
ATOM      8  O   UNL     1       0.069  -4.403   0.979  0.00  0.00    -0.125 OA
ATOM      9  O   UNL     1       0.059  -3.213   2.701  0.00  0.00    -0.125 OA
ENDBRANCH   5   7
BRANCH   6  10
ATOM     10  C   UNL     1       0.030  -0.353   2.491  0.00  0.00    +0.160 C 
BRANCH  10  11
ATOM     11  C   UNL     1      -1.389  -0.221   2.983  0.00  0.00    -0.026 A 
ATOM     12  C   UNL     1      -2.060   0.979   2.840  0.00  0.00    +0.008 A 
ATOM     13  C   UNL     1      -3.361   1.102   3.290  0.00  0.00    +0.040 A 
ATOM     14  C   UNL     1      -3.993   0.023   3.884  0.00  0.00    +0.137 A 
ATOM     15  C   UNL     1      -3.319  -1.179   4.027  0.00  0.00    +0.053 A 
ATOM     16  C   UNL     1      -2.019  -1.301   3.571  0.00  0.00    +0.023 A 
ATOM     17 BR   UNL     1      -4.179  -2.655   4.838  0.00  0.00    -0.047 Br
ATOM     18  F   UNL     1      -5.264   0.142   4.324  0.00  0.00    -0.204 F 
ENDBRANCH  10  11
ENDBRANCH   6  10
TORSDOF 3
