REMARK  Name = ZINC46539276
REMARK  9 active torsions:
REMARK  status: ('A' for Active; 'I' for Inactive)
REMARK    1  A    between atoms: C_1  and  C_2
REMARK    2  A    between atoms: C_2  and  O_3
REMARK    3  A    between atoms: O_3  and  C_4
REMARK    4  A    between atoms: C_11  and  C_27
REMARK    5  A    between atoms: C_12  and  C_15
REMARK    6  A    between atoms: N_17  and  C_18
REMARK    7  A    between atoms: C_23  and  C_24
REMARK    8  A    between atoms: C_24  and  C_25
REMARK    9  A    between atoms: C_24  and  C_26
REMARK                            x       y       z     vdW  Elec       q    Type
REMARK                         _______ _______ _______ _____ _____    ______ ____
ROOT
ATOM      1  C   UNL     1       0.833  -1.807  -1.337  0.00  0.00    +0.234 A 
ATOM      2  C   UNL     1       1.482  -2.330  -2.454  0.00  0.00    +0.072 A 
ATOM      3  C   UNL     1       1.558  -3.707  -2.575  0.00  0.00    +0.055 A 
ATOM      4  C   UNL     1       0.980  -4.485  -1.573  0.00  0.00    +0.176 A 
ATOM      5  N   UNL     1       0.384  -3.900  -0.547  0.00  0.00    -0.126 NA
ATOM      6  N   UNL     1       0.318  -2.623  -0.433  0.00  0.00    -0.110 NA
ATOM      7  N   UNL     1       1.031  -5.881  -1.651  0.00  0.00    -0.216 N 
ATOM      8  C   UNL     1       0.958  -6.731  -0.610  0.00  0.00    +0.056 A 
ATOM      9  C   UNL     1       1.045  -8.012  -1.116  0.00  0.00    +0.078 A 
ATOM     10  C   UNL     1       1.174  -7.898  -2.519  0.00  0.00    +0.148 A 
ATOM     11  N   UNL     1       1.159  -6.630  -2.826  0.00  0.00    -0.172 NA
ATOM     12  C   UNL     1       0.810  -6.353   0.842  0.00  0.00    +0.066 C 
ENDROOT
BRANCH   9  13
ATOM     13  C   UNL     1       1.011  -9.264  -0.339  0.00  0.00    +0.252 C 
ATOM     14  O   UNL     1       0.896  -9.226   0.871  0.00  0.00    -0.270 OA
ATOM     15  N   UNL     1       1.107 -10.451  -0.970  0.00  0.00    -0.281 N 
ATOM     16  H   UNL     1       1.118 -10.486  -1.939  0.00  0.00    +0.155 HD
BRANCH  15  17
ATOM     17  C   UNL     1       1.190 -11.633  -0.227  0.00  0.00    +0.037 A 
ATOM     18  C   UNL     1       1.684 -11.606   1.071  0.00  0.00    +0.023 A 
ATOM     19  C   UNL     1       1.765 -12.775   1.802  0.00  0.00    +0.002 A 
ATOM     20  C   UNL     1       1.355 -13.972   1.243  0.00  0.00    +0.000 A 
ATOM     21  C   UNL     1       0.863 -14.002  -0.049  0.00  0.00    +0.006 A 
ATOM     22  C   UNL     1       0.773 -12.836  -0.783  0.00  0.00    -0.024 A 
BRANCH  22  23
ATOM     23  C   UNL     1       0.231 -12.869  -2.188  0.00  0.00    +0.015 C 
ATOM     24  C   UNL     1       1.024 -13.881  -3.018  0.00  0.00    +0.012 C 
ATOM     25  C   UNL     1      -1.243 -13.279  -2.157  0.00  0.00    +0.012 C 
ENDBRANCH  22  23
ENDBRANCH  15  17
ENDBRANCH   9  13
BRANCH   1  26
ATOM     26  O   UNL     1       0.734  -0.463  -1.175  0.00  0.00    -0.476 OA
BRANCH  26  28
ATOM     27  C   UNL     1       0.049   1.532   0.005  0.00  0.00    +0.048 C 
ATOM     28  C   UNL     1       0.060   0.002  -0.004  0.00  0.00    +0.227 C 
ENDBRANCH  26  28
ENDBRANCH   1  26
TORSDOF 5
