REMARK  Name = ZINC49362163
REMARK  5 active torsions:
REMARK  status: ('A' for Active; 'I' for Inactive)
REMARK    1  A    between atoms: C_4  and  N_7
REMARK    2  A    between atoms: C_8  and  C_10
REMARK    3  A    between atoms: C_10  and  S_11
REMARK    4  A    between atoms: S_11  and  C_12
REMARK    5  A    between atoms: N_20  and  C_21
REMARK                            x       y       z     vdW  Elec       q    Type
REMARK                         _______ _______ _______ _____ _____    ______ ____
ROOT
ATOM      1  C   UNL     1       5.683  -4.271   4.796  0.00  0.00    +0.160 A 
ATOM      2  N   UNL     1       5.790  -3.586   5.919  0.00  0.00    -0.133 NA
ATOM      3  N   UNL     1       6.477  -4.123   6.984  0.00  0.00    -0.125 NA
ATOM      4  C   UNL     1       7.024  -5.317   6.877  0.00  0.00    +0.190 A 
ATOM      5  S   UNL     1       6.573  -5.763   5.207  0.00  0.00    -0.024 S 
ATOM      6  N   UNL     1       7.754  -6.041   7.818  0.00  0.00    -0.247 N 
ATOM      7  C   UNL     1       7.982  -5.520   9.040  0.00  0.00    +0.306 C 
ATOM      8  O   UNL     1       7.550  -4.419   9.322  0.00  0.00    -0.252 OA
ATOM      9  N   UNL     1       8.688  -6.220   9.950  0.00  0.00    -0.296 N 
ATOM     10  H   UNL     1       8.099  -6.919   7.593  0.00  0.00    +0.158 HD
ATOM     11  H   UNL     1       9.033  -7.098   9.725  0.00  0.00    +0.151 HD
ENDROOT
BRANCH   9  12
ATOM     12  C   UNL     1       8.935  -5.654  11.278  0.00  0.00    +0.075 C 
ATOM     13  C   UNL     1      10.345  -5.798  11.856  0.00  0.00    +0.024 C 
ATOM     14  C   UNL     1       9.195  -6.632  12.426  0.00  0.00    +0.024 C 
ENDBRANCH   9  12
BRANCH   1  15
ATOM     15  S   UNL     1       4.872  -3.832   3.294  0.00  0.00    -0.088 S 
BRANCH  15  16
ATOM     16  C   UNL     1       4.200  -2.180   3.624  0.00  0.00    +0.172 C 
BRANCH  16  18
ATOM     17  N   UNL     1       2.886  -0.467   2.418  0.00  0.00    -0.312 N 
ATOM     18  C   UNL     1       3.471  -1.681   2.404  0.00  0.00    +0.224 C 
ATOM     19  O   UNL     1       3.411  -2.372   1.409  0.00  0.00    -0.275 OA
ATOM     20  H   UNL     1       2.934   0.086   3.213  0.00  0.00    +0.149 HD
BRANCH  17  24
ATOM     21  C   UNL     1      -0.019   1.526   0.010  0.00  0.00    +0.000 C 
ATOM     22  C   UNL     1       1.417   2.055  -0.000  0.00  0.00    +0.002 C 
ATOM     23  C   UNL     1       2.157   1.548   1.239  0.00  0.00    +0.022 C 
ATOM     24  C   UNL     1       2.178   0.019   1.231  0.00  0.00    +0.073 C 
ATOM     25  C   UNL     1       0.742  -0.511   1.242  0.00  0.00    +0.022 C 
ATOM     26  C   UNL     1       0.002  -0.004   0.002  0.00  0.00    +0.002 C 
ENDBRANCH  17  24
ENDBRANCH  16  18
ENDBRANCH  15  16
ENDBRANCH   1  15
TORSDOF 5
