REMARK  Name = ZINC10680195
REMARK  7 active torsions:
REMARK  status: ('A' for Active; 'I' for Inactive)
REMARK    1  A    between atoms: C_1  and  C_2
REMARK    2  A    between atoms: C_2  and  N_3
REMARK    3  A    between atoms: N_14  and  N_15
REMARK    4  A    between atoms: C_16  and  C_18
REMARK    5  A    between atoms: C_18  and  C_19
REMARK    6  A    between atoms: C_26  and  C_29
REMARK    7  A    between atoms: C_27  and  C_28
REMARK                            x       y       z     vdW  Elec       q    Type
REMARK                         _______ _______ _______ _____ _____    ______ ____
ROOT
ATOM      1  N   UNL     1      -2.080  -0.744   3.509  0.00  0.00    -0.234 N 
ATOM      2  C   UNL     1      -3.410  -0.525   3.515  0.00  0.00    +0.234 C 
ATOM      3  O   UNL     1      -3.963  -0.123   2.514  0.00  0.00    -0.274 OA
ATOM      4  H   UNL     1      -1.638  -1.066   4.310  0.00  0.00    +0.173 HD
ENDROOT
BRANCH   1  16
ATOM      5  N   UNL     1       0.711  -0.489   1.189  0.00  0.00    -0.280 N 
ATOM      6  C   UNL     1       2.048  -0.689   1.137  0.00  0.00    +0.263 A 
ATOM      7  O   UNL     1       2.679  -0.473   0.119  0.00  0.00    -0.267 OA
ATOM      8  C   UNL     1       2.710  -1.177   2.355  0.00  0.00    +0.065 A 
ATOM      9  C   UNL     1       4.083  -1.413   2.403  0.00  0.00    +0.015 A 
ATOM     10  C   UNL     1       4.648  -1.867   3.563  0.00  0.00    +0.001 A 
ATOM     11  C   UNL     1       3.869  -2.093   4.691  0.00  0.00    +0.002 A 
ATOM     12  C   UNL     1       2.521  -1.869   4.671  0.00  0.00    +0.028 A 
ATOM     13  C   UNL     1       1.914  -1.406   3.500  0.00  0.00    +0.080 A 
ATOM     14  N   UNL     1       0.583  -1.170   3.436  0.00  0.00    -0.214 NA
ATOM     15  C   UNL     1       0.018  -0.731   2.339  0.00  0.00    +0.216 A 
ATOM     16  N   UNL     1      -1.336  -0.507   2.346  0.00  0.00    -0.234 N 
ATOM     17  H   UNL     1      -1.779  -0.185   1.545  0.00  0.00    +0.173 HD
BRANCH   5  19
ATOM     18  C   UNL     1      -0.019   1.526   0.010  0.00  0.00    +0.027 C 
ATOM     19  C   UNL     1       0.002  -0.004   0.002  0.00  0.00    +0.125 C 
ENDBRANCH   5  19
ENDBRANCH   1  16
BRANCH   2  20
ATOM     20  C   UNL     1      -4.209  -0.780   4.767  0.00  0.00    +0.136 C 
BRANCH  20  21
ATOM     21  C   UNL     1      -5.659  -0.459   4.511  0.00  0.00    +0.007 A 
ATOM     22  C   UNL     1      -6.285   0.697   4.769  0.00  0.00    +0.200 A 
ATOM     23  O   UNL     1      -7.578   0.615   4.406  0.00  0.00    -0.462 OA
ATOM     24  C   UNL     1      -7.857  -0.601   3.894  0.00  0.00    +0.138 A 
ATOM     25  C   UNL     1      -6.668  -1.349   3.923  0.00  0.00    +0.024 A 
ATOM     26  C   UNL     1      -6.653  -2.658   3.445  0.00  0.00    +0.012 A 
ATOM     27  C   UNL     1      -7.810  -3.212   2.942  0.00  0.00    +0.004 A 
ATOM     28  C   UNL     1      -8.983  -2.473   2.911  0.00  0.00    -0.044 A 
ATOM     29  C   UNL     1      -9.013  -1.180   3.387  0.00  0.00    -0.005 A 
ATOM     30  C   UNL     1     -10.296  -0.390   3.343  0.00  0.00    +0.048 C 
ATOM     31  C   UNL     1     -10.240  -3.093   2.357  0.00  0.00    +0.044 C 
ENDBRANCH  20  21
ENDBRANCH   2  20
TORSDOF 4
