REMARK  Name = ZINC48628818
REMARK  3 active torsions:
REMARK  status: ('A' for Active; 'I' for Inactive)
REMARK    1  A    between atoms: C_3  and  N_8
REMARK    2  A    between atoms: C_9  and  C_11
REMARK    3  A    between atoms: C_11  and  N_12
REMARK                            x       y       z     vdW  Elec       q    Type
REMARK                         _______ _______ _______ _____ _____    ______ ____
ROOT
ATOM      1  N   UNL     1       3.597   2.002  -0.022  0.00  0.00    -0.269 N 
ATOM      2  C   UNL     1       3.629   3.346  -0.117  0.00  0.00    +0.240 C 
ATOM      3  O   UNL     1       2.595   3.980  -0.104  0.00  0.00    -0.273 OA
ATOM      4  H   UNL     1       4.425   1.501   0.042  0.00  0.00    +0.156 HD
ENDROOT
BRANCH   1   7
ATOM      5  C   UNL     1       1.130  -0.710  -0.017  0.00  0.00    +0.025 A 
ATOM      6  C   UNL     1       2.350  -0.057  -0.024  0.00  0.00    +0.045 A 
ATOM      7  C   UNL     1       2.374   1.332  -0.015  0.00  0.00    +0.125 A 
ATOM      8  N   UNL     1       1.247   2.026  -0.000  0.00  0.00    -0.239 NA
ATOM      9  C   UNL     1       0.069   1.433   0.007  0.00  0.00    +0.132 A 
ATOM     10  C   UNL     1      -0.030   0.054  -0.001  0.00  0.00    +0.059 A 
ATOM     11 CL   UNL     1      -1.587  -0.714   0.009  0.00  0.00    -0.082 Cl
ENDBRANCH   1   7
BRANCH   2  12
ATOM     12  C   UNL     1       4.950   4.062  -0.240  0.00  0.00    +0.239 C 
BRANCH  12  13
ATOM     13  N   UNL     1       4.716   5.505  -0.328  0.00  0.00    -0.259 N 
ATOM     14  C   UNL     1       5.261   6.448   0.471  0.00  0.00    +0.126 A 
ATOM     15  C   UNL     1       4.795   7.652   0.065  0.00  0.00    +0.086 A 
ATOM     16  C   UNL     1       3.938   7.438  -1.020  0.00  0.00    +0.249 A 
ATOM     17  N   UNL     1       3.894   6.152  -1.259  0.00  0.00    -0.145 NA
ATOM     18  N   UNL     1       3.210   8.486  -1.771  0.00  0.00    +0.078 N 
ATOM     19  O   UNL     1       3.333   9.648  -1.460  0.00  0.00    -0.125 OA
ATOM     20  O   UNL     1       2.493   8.180  -2.695  0.00  0.00    -0.125 OA
ATOM     21 BR   UNL     1       5.228   9.328   0.828  0.00  0.00    -0.045 Br
ENDBRANCH  12  13
ENDBRANCH   2  12
TORSDOF 3
