REMARK  Name = ZINC13138290
REMARK  7 active torsions:
REMARK  status: ('A' for Active; 'I' for Inactive)
REMARK    1  A    between atoms: C_1  and  C_2
REMARK    2  A    between atoms: C_2  and  C_32
REMARK    3  A    between atoms: C_6  and  C_22
REMARK    4  A    between atoms: N_15  and  C_18
REMARK    5  A    between atoms: C_18  and  C_19
REMARK    6  A    between atoms: C_19  and  O_20
REMARK    7  A    between atoms: O_20  and  C_21
REMARK                            x       y       z     vdW  Elec       q    Type
REMARK                         _______ _______ _______ _____ _____    ______ ____
ROOT
ATOM      1  C   UNL     1      -0.867  -3.257   2.759  0.00  0.00    +0.011 C 
ATOM      2  C   UNL     1      -1.574  -2.071   3.419  0.00  0.00    -0.023 C 
ATOM      3  C   UNL     1      -2.616  -1.494   2.459  0.00  0.00    +0.058 C 
ATOM      4  C   UNL     1      -1.933  -0.995   1.209  0.00  0.00    +0.017 C 
ATOM      5  C   UNL     1      -0.673  -0.514   1.250  0.00  0.00    +0.024 C 
ATOM      6  C   UNL     1       0.002  -0.004   0.002  0.00  0.00    +0.094 C 
ATOM      7  C   UNL     1      -0.694  -0.498  -1.232  0.00  0.00    +0.067 A 
ATOM      8  C   UNL     1      -0.035  -0.457  -2.476  0.00  0.00    +0.260 A 
ATOM      9  O   UNL     1       1.103  -0.026  -2.554  0.00  0.00    -0.267 OA
ATOM     10  N   UNL     1      -0.670  -0.898  -3.579  0.00  0.00    -0.275 N 
ATOM     11  H   UNL     1      -0.205  -0.871  -4.464  0.00  0.00    +0.173 HD
ATOM     12  C   UNL     1      -1.926  -1.375  -3.500  0.00  0.00    +0.331 A 
ATOM     13  O   UNL     1      -2.483  -1.765  -4.508  0.00  0.00    -0.246 OA
ATOM     14  N   UNL     1      -2.575  -1.426  -2.322  0.00  0.00    -0.279 N 
ATOM     15  C   UNL     1      -1.962  -0.989  -1.173  0.00  0.00    +0.116 A 
ATOM     16  N   UNL     1      -2.624  -1.044   0.028  0.00  0.00    -0.303 N 
ATOM     17  C   UNL     1       0.049  -0.474   2.456  0.00  0.00    +0.162 C 
ATOM     18  O   UNL     1       1.178  -0.026   2.460  0.00  0.00    -0.292 OA
ATOM     19  C   UNL     1      -0.551  -0.976   3.741  0.00  0.00    +0.086 C 
ATOM     20  C   UNL     1      -2.256  -2.532   4.709  0.00  0.00    +0.011 C 
ATOM     21  H   UNL     1      -3.591  -1.118   0.040  0.00  0.00    +0.153 HD
ENDROOT
BRANCH   6  22
ATOM     22  C   UNL     1      -0.018   1.503   0.010  0.00  0.00    -0.017 A 
ATOM     23  C   UNL     1      -1.225   2.178   0.020  0.00  0.00    +0.006 A 
ATOM     24  C   UNL     1      -1.244   3.560   0.032  0.00  0.00    +0.000 A 
ATOM     25  C   UNL     1      -0.056   4.268   0.025  0.00  0.00    +0.001 A 
ATOM     26  C   UNL     1       1.150   3.594   0.010  0.00  0.00    +0.020 A 
ATOM     27  C   UNL     1       1.170   2.211   0.003  0.00  0.00    +0.045 A 
ATOM     28 CL   UNL     1       2.685   1.364  -0.016  0.00  0.00    -0.083 Cl
ENDBRANCH   6  22
BRANCH  14  29
ATOM     29  C   UNL     1      -3.942  -1.950  -2.265  0.00  0.00    +0.156 C 
BRANCH  29  30
ATOM     30  C   UNL     1      -4.936  -0.806  -2.473  0.00  0.00    +0.181 C 
BRANCH  30  31
ATOM     31  O   UNL     1      -4.788  -0.280  -3.793  0.00  0.00    -0.381 OA
ATOM     32  C   UNL     1      -5.676   0.799  -4.092  0.00  0.00    +0.194 C 
ENDBRANCH  30  31
ENDBRANCH  29  30
ENDBRANCH  14  29
TORSDOF 4
