REMARK  Name = ZINC46017124
REMARK  9 active torsions:
REMARK  status: ('A' for Active; 'I' for Inactive)
REMARK    1  A    between atoms: C_1  and  C_2
REMARK    2  A    between atoms: C_6  and  C_8
REMARK    3  A    between atoms: C_8  and  S_9
REMARK    4  A    between atoms: S_9  and  C_10
REMARK    5  A    between atoms: N_16  and  C_17
REMARK    6  A    between atoms: C_22  and  C_24
REMARK    7  A    between atoms: C_27  and  O_31
REMARK    8  A    between atoms: C_28  and  O_30
REMARK    9  A    between atoms: O_31  and  C_32
REMARK                            x       y       z     vdW  Elec       q    Type
REMARK                         _______ _______ _______ _____ _____    ______ ____
ROOT
ATOM      1  C   UNL     1       1.622  -4.015   4.517  0.00  0.00    +0.174 A 
ATOM      2  N   UNL     1       0.423  -4.304   4.981  0.00  0.00    -0.185 NA
ATOM      3  C   UNL     1       0.274  -4.980   6.131  0.00  0.00    +0.279 A 
ATOM      4  O   UNL     1      -0.844  -5.242   6.551  0.00  0.00    -0.265 OA
ATOM      5  C   UNL     1       1.417  -5.384   6.852  0.00  0.00    +0.065 A 
ATOM      6  C   UNL     1       2.650  -5.079   6.364  0.00  0.00    +0.116 A 
ATOM      7  N   UNL     1       2.748  -4.393   5.183  0.00  0.00    -0.311 N 
ATOM      8  C   UNL     1       4.067  -4.061   4.638  0.00  0.00    +0.152 C 
ATOM      9  N   UNL     1       3.785  -5.460   7.048  0.00  0.00    -0.271 N 
ATOM     10  C   UNL     1       3.724  -5.798   8.349  0.00  0.00    +0.219 C 
ATOM     11  O   UNL     1       4.732  -6.140   8.930  0.00  0.00    -0.275 OA
ATOM     12  C   UNL     1       2.413  -5.753   9.090  0.00  0.00    +0.109 C 
ATOM     13  C   UNL     1       1.276  -6.142   8.144  0.00  0.00    +0.066 C 
ATOM     14  H   UNL     1       4.638  -5.486   6.585  0.00  0.00    +0.156 HD
ENDROOT
BRANCH  13  15
ATOM     15  C   UNL     1       1.337  -7.622   7.867  0.00  0.00    -0.036 A 
ATOM     16  C   UNL     1       2.465  -8.169   7.284  0.00  0.00    +0.008 A 
ATOM     17  C   UNL     1       2.525  -9.526   7.027  0.00  0.00    +0.049 A 
ATOM     18  C   UNL     1       1.454 -10.342   7.355  0.00  0.00    +0.161 A 
ATOM     19  C   UNL     1       0.319  -9.791   7.942  0.00  0.00    +0.159 A 
ATOM     20  C   UNL     1       0.266  -8.431   8.201  0.00  0.00    +0.053 A 
BRANCH  19  21
ATOM     21  O   UNL     1      -0.735 -10.588   8.265  0.00  0.00    -0.503 OA
ATOM     22  H   UNL     1      -0.692 -10.954   9.159  0.00  0.00    +0.292 HD
ENDBRANCH  19  21
BRANCH  18  23
ATOM     23  O   UNL     1       1.512 -11.677   7.103  0.00  0.00    -0.491 OA
ATOM     24  C   UNL     1       2.708 -12.172   6.498  0.00  0.00    +0.277 C 
ENDBRANCH  18  23
ENDBRANCH  13  15
BRANCH   1  25
ATOM     25  S   UNL     1       1.770  -3.127   3.002  0.00  0.00    -0.083 S 
BRANCH  25  26
ATOM     26  C   UNL     1       0.054  -2.845   2.489  0.00  0.00    +0.112 C 
BRANCH  26  32
ATOM     27  C   UNL     1      -0.018   1.503   0.010  0.00  0.00    +0.044 C 
ATOM     28  C   UNL     1       0.002  -0.004   0.002  0.00  0.00    -0.050 A 
ATOM     29  C   UNL     1       0.006  -0.689  -1.199  0.00  0.00    +0.003 A 
ATOM     30  C   UNL     1       0.025  -2.071  -1.207  0.00  0.00    +0.001 A 
ATOM     31  C   UNL     1       0.040  -2.768  -0.013  0.00  0.00    +0.004 A 
ATOM     32  C   UNL     1       0.037  -2.084   1.188  0.00  0.00    -0.037 A 
ATOM     33  C   UNL     1       0.023  -0.702   1.195  0.00  0.00    +0.007 A 
ENDBRANCH  26  32
ENDBRANCH  25  26
ENDBRANCH   1  25
TORSDOF 6
