REMARK  Name = ZINC22801707
REMARK  6 active torsions:
REMARK  status: ('A' for Active; 'I' for Inactive)
REMARK    1  A    between atoms: C_6  and  C_7
REMARK    2  A    between atoms: C_7  and  N_8
REMARK    3  A    between atoms: N_11  and  C_14
REMARK    4  A    between atoms: C_14  and  C_15
REMARK    5  A    between atoms: N_17  and  C_18
REMARK    6  A    between atoms: N_17  and  C_26
REMARK                            x       y       z     vdW  Elec       q    Type
REMARK                         _______ _______ _______ _____ _____    ______ ____
ROOT
ATOM      1  N   UNL     1      -2.021  -0.186  -1.897  0.00  0.00    -0.302 NA
ATOM      2  C   UNL     1      -1.112  -1.321  -2.108  0.00  0.00    +0.066 C 
ATOM      3  C   UNL     1      -1.374  -1.932  -3.486  0.00  0.00    -0.063 C 
ATOM      4  N   UNL     1      -2.771  -2.379  -3.567  0.00  0.00    +0.387 N 
ATOM      5  C   UNL     1      -3.666  -1.229  -3.379  0.00  0.00    -0.063 C 
ATOM      6  C   UNL     1      -3.423  -0.613  -2.000  0.00  0.00    +0.066 C 
ATOM      7  H   UNL     1      -2.947  -3.063  -2.846  0.00  0.00    -0.081 HD
ENDROOT
BRANCH   1   8
ATOM      8  C   UNL     1      -1.761   0.464  -0.606  0.00  0.00    +0.119 C 
BRANCH   8  14
ATOM      9  C   UNL     1      -0.251   2.411  -1.053  0.00  0.00    +0.008 A 
ATOM     10  C   UNL     1       0.996   3.002  -1.073  0.00  0.00    +0.046 A 
ATOM     11  C   UNL     1       2.118   2.285  -0.667  0.00  0.00    +0.124 A 
ATOM     12  C   UNL     1       1.960   0.970  -0.251  0.00  0.00    -0.002 A 
ATOM     13  C   UNL     1       0.714   0.383  -0.227  0.00  0.00    +0.012 A 
ATOM     14  C   UNL     1      -0.397   1.103  -0.630  0.00  0.00    -0.033 A 
ATOM     15  C   UNL     1       3.339   0.446   0.102  0.00  0.00    +0.080 C 
ATOM     16  C   UNL     1       4.259   1.503  -0.552  0.00  0.00    +0.234 C 
ATOM     17  O   UNL     1       3.422   2.671  -0.596  0.00  0.00    -0.491 OA
ENDBRANCH   8  14
ENDBRANCH   1   8
BRANCH   4  18
ATOM     18  C   UNL     1      -3.017  -2.981  -4.884  0.00  0.00    +0.019 C 
BRANCH  18  19
ATOM     19  C   UNL     1      -4.412  -3.549  -4.924  0.00  0.00    +0.200 C 
ATOM     20  O   UNL     1      -4.978  -3.839  -3.891  0.00  0.00    -0.278 OA
ATOM     21  N   UNL     1      -5.030  -3.735  -6.107  0.00  0.00    -0.295 N 
BRANCH  21  22
ATOM     22  C   UNL     1      -6.451  -4.090  -6.143  0.00  0.00    +0.099 C 
ATOM     23  C   UNL     1      -7.262  -3.073  -5.322  0.00  0.00    +0.046 C 
ATOM     24  C   UNL     1      -8.695  -3.608  -5.086  0.00  0.00    +0.168 C 
ATOM     25  S   UNL     1      -8.457  -5.431  -5.122  0.00  0.00    -0.029 S 
ATOM     26  O   UNL     1      -8.667  -5.950  -3.816  0.00  0.00    -0.174 OA
ATOM     27  O   UNL     1      -9.187  -5.971  -6.215  0.00  0.00    -0.174 OA
ATOM     28  C   UNL     1      -6.657  -5.497  -5.511  0.00  0.00    +0.188 C 
ENDBRANCH  21  22
BRANCH  21  29
ATOM     29  C   UNL     1      -4.282  -3.582  -7.357  0.00  0.00    +0.076 C 
ATOM     30  C   UNL     1      -2.929  -4.286  -7.231  0.00  0.00    +0.022 C 
ATOM     31  C   UNL     1      -2.147  -4.126  -8.536  0.00  0.00    +0.002 C 
ATOM     32  C   UNL     1      -1.924  -2.639  -8.818  0.00  0.00    +0.000 C 
ATOM     33  C   UNL     1      -3.277  -1.935  -8.944  0.00  0.00    +0.002 C 
ATOM     34  C   UNL     1      -4.059  -2.095  -7.639  0.00  0.00    +0.022 C 
ENDBRANCH  21  29
ENDBRANCH  18  19
ENDBRANCH   4  18
TORSDOF 6
