REMARK  Name = ZINC66599654
REMARK  4 active torsions:
REMARK  status: ('A' for Active; 'I' for Inactive)
REMARK    1  A    between atoms: C_1  and  C_2
REMARK    2  A    between atoms: N_15  and  C_16
REMARK    3  A    between atoms: C_16  and  C_17
REMARK    4  A    between atoms: C_17  and  C_22
REMARK                            x       y       z     vdW  Elec       q    Type
REMARK                         _______ _______ _______ _____ _____    ______ ____
ROOT
ATOM      1  C   UNL     1      -0.025   1.506   0.013  0.00  0.00    +0.066 C 
ATOM      2  C   UNL     1      -0.000  -0.001   0.005  0.00  0.00    +0.047 A 
ATOM      3  C   UNL     1       0.009  -0.702  -1.154  0.00  0.00    +0.071 A 
ATOM      4  S   UNL     1       0.039  -2.375  -0.532  0.00  0.00    -0.060 S 
ATOM      5  C   UNL     1       0.036  -2.013   1.112  0.00  0.00    +0.161 A 
ATOM      6  N   UNL     1       0.019  -0.697   1.128  0.00  0.00    -0.230 NA
ATOM      7  N   UNL     1       0.053  -2.887   2.187  0.00  0.00    -0.307 N 
ATOM      8  C   UNL     1       0.041  -2.379   3.565  0.00  0.00    +0.126 C 
ATOM      9  C   UNL     1      -1.141  -3.011   4.310  0.00  0.00    +0.128 C 
ATOM     10  N   UNL     1      -1.111  -4.464   4.092  0.00  0.00    -0.283 N 
ATOM     11  C   UNL     1      -1.099  -4.973   2.713  0.00  0.00    +0.128 C 
ATOM     12  C   UNL     1       0.078  -4.340   1.968  0.00  0.00    +0.126 C 
ATOM     13  C   UNL     1      -1.095  -5.315   5.137  0.00  0.00    +0.302 C 
ATOM     14  O   UNL     1      -1.009  -4.883   6.271  0.00  0.00    -0.253 OA
ATOM     15  N   UNL     1      -1.173  -6.644   4.926  0.00  0.00    -0.299 N 
ATOM     16  H   UNL     1      -1.168  -6.992   4.020  0.00  0.00    +0.150 HD
ENDROOT
BRANCH  15  17
ATOM     17  C   UNL     1      -1.265  -7.562   6.063  0.00  0.00    +0.112 C 
BRANCH  17  18
ATOM     18  C   UNL     1      -1.342  -9.002   5.551  0.00  0.00    -0.016 C 
ATOM     19  C   UNL     1      -2.622  -9.197   4.713  0.00  0.00    +0.008 C 
ATOM     20  C   UNL     1      -3.091 -10.631   5.065  0.00  0.00    +0.001 C 
ATOM     21  C   UNL     1      -2.776 -10.733   6.577  0.00  0.00    +0.001 C 
ATOM     22  C   UNL     1      -1.439  -9.978   6.737  0.00  0.00    +0.008 C 
ATOM     23  C   UNL     1      -0.107  -9.324   4.707  0.00  0.00    +0.013 C 
ENDBRANCH  17  18
ENDBRANCH  15  17
TORSDOF 2
