REMARK  Name = ZINC40151547
REMARK  1 active torsions:
REMARK  status: ('A' for Active; 'I' for Inactive)
REMARK    1  A    between atoms: C_17  and  C_19
REMARK                            x       y       z     vdW  Elec       q    Type
REMARK                         _______ _______ _______ _____ _____    ______ ____
ROOT
ATOM      1  C   UNL     1      -0.017   1.366   0.010  0.00  0.00    +0.002 A 
ATOM      2  C   UNL     1       1.156   2.107   0.002  0.00  0.00    +0.001 A 
ATOM      3  C   UNL     1       2.373   1.450  -0.013  0.00  0.00    +0.017 A 
ATOM      4  C   UNL     1       2.401   0.077  -0.020  0.00  0.00    +0.041 A 
ATOM      5  C   UNL     1       1.227  -0.710  -0.013  0.00  0.00    +0.080 A 
ATOM      6  C   UNL     1       0.002  -0.004   0.002  0.00  0.00    +0.029 A 
ATOM      7  N   UNL     1       1.419  -2.047  -0.023  0.00  0.00    -0.225 NA
ATOM      8  C   UNL     1       2.616  -2.588  -0.038  0.00  0.00    +0.167 A 
ATOM      9  S   UNL     1       3.682  -1.153  -0.040  0.00  0.00    -0.052 S 
ATOM     10  N   UNL     1       2.963  -3.928  -0.049  0.00  0.00    -0.248 N 
ATOM     11  C   UNL     1       4.262  -4.288  -0.064  0.00  0.00    +0.308 C 
ATOM     12  O   UNL     1       5.128  -3.436  -0.068  0.00  0.00    -0.252 OA
ATOM     13  N   UNL     1       4.599  -5.593  -0.074  0.00  0.00    -0.275 N 
ATOM     14  C   UNL     1       3.655  -6.725  -0.077  0.00  0.00    +0.110 C 
ATOM     15  C   UNL     1       4.454  -7.909   0.522  0.00  0.00    +0.021 C 
ATOM     16  C   UNL     1       5.867  -7.662  -0.069  0.00  0.00    +0.032 C 
ATOM     17  C   UNL     1       5.971  -6.123  -0.091  0.00  0.00    +0.146 C 
ATOM     18  H   UNL     1       2.271  -4.609  -0.046  0.00  0.00    +0.158 HD
ENDROOT
BRANCH  17  19
ATOM     19  C   UNL     1       6.679  -5.672  -1.342  0.00  0.00    +0.158 A 
ATOM     20  N   UNL     1       6.179  -5.654  -2.550  0.00  0.00    -0.132 NA
ATOM     21  N   UNL     1       7.050  -5.212  -3.388  0.00  0.00    -0.129 NA
ATOM     22  C   UNL     1       8.170  -4.920  -2.747  0.00  0.00    +0.161 A 
ATOM     23  N   UNL     1       7.955  -5.204  -1.420  0.00  0.00    -0.285 N 
ATOM     24  C   UNL     1       8.940  -4.997  -0.500  0.00  0.00    +0.094 A 
ATOM     25  C   UNL     1      10.139  -4.509  -0.879  0.00  0.00    +0.018 A 
ATOM     26  C   UNL     1      10.389  -4.206  -2.229  0.00  0.00    +0.005 A 
ATOM     27  C   UNL     1       9.418  -4.415  -3.158  0.00  0.00    +0.048 A 
ENDBRANCH  17  19
TORSDOF 1
