REMARK  Name = ZINC12329882
REMARK  9 active torsions:
REMARK  status: ('A' for Active; 'I' for Inactive)
REMARK    1  A    between atoms: C_1  and  O_2
REMARK    2  A    between atoms: O_2  and  C_3
REMARK    3  A    between atoms: C_6  and  C_9
REMARK    4  A    between atoms: C_9  and  C_11
REMARK    5  A    between atoms: C_9  and  O_30
REMARK    6  A    between atoms: C_11  and  N_58
REMARK    7  A    between atoms: C_18  and  O_29
REMARK    8  A    between atoms: C_23  and  O_27
REMARK    9  A    between atoms: O_27  and  C_28
REMARK                            x       y       z     vdW  Elec       q    Type
REMARK                         _______ _______ _______ _____ _____    ______ ____
ROOT
ATOM      1  C   UNL     1      -1.052  -2.574   0.431  0.00  0.00    -0.075 C 
ATOM      2  C   UNL     1      -0.746  -4.061   0.235  0.00  0.00    +0.029 C 
ATOM      3  C   UNL     1      -0.756  -4.763   1.593  0.00  0.00    +0.110 C 
ATOM      4  C   UNL     1       0.259  -4.093   2.521  0.00  0.00    +0.029 C 
ATOM      5  C   UNL     1      -0.079  -2.606   2.650  0.00  0.00    -0.075 C 
ATOM      6  C   UNL     1      -0.386  -6.239   1.409  0.00  0.00    +0.084 C 
ATOM      7  C   UNL     1      -1.351  -6.854   0.392  0.00  0.00    +0.152 C 
ATOM      8  C   UNL     1      -2.768  -6.487   0.751  0.00  0.00    +0.023 A 
ATOM      9  C   UNL     1      -3.805  -7.227   0.206  0.00  0.00    +0.013 A 
ATOM     10  C   UNL     1      -5.116  -6.920   0.509  0.00  0.00    +0.046 A 
ATOM     11  C   UNL     1      -5.401  -5.863   1.363  0.00  0.00    +0.124 A 
ATOM     12  C   UNL     1      -4.367  -5.122   1.910  0.00  0.00    +0.091 A 
ATOM     13  C   UNL     1      -3.047  -5.434   1.605  0.00  0.00    +0.130 A 
ATOM     14  O   UNL     1      -2.060  -4.689   2.168  0.00  0.00    -0.485 OA
ATOM     15  N   UNL     1      -0.021  -1.984   1.310  0.00  0.00    +0.382 N 
ATOM     16  H   UNL     1       0.905  -2.159   0.902  0.00  0.00    -0.082 HD
ENDROOT
BRANCH  11  17
ATOM     17  O   UNL     1      -6.691  -5.557   1.661  0.00  0.00    -0.495 OA
ATOM     18  C   UNL     1      -7.705  -6.365   1.061  0.00  0.00    +0.277 C 
ENDBRANCH  11  17
BRANCH   7  19
ATOM     19  O   UNL     1      -1.210  -8.276   0.401  0.00  0.00    -0.387 OA
ATOM     20  H   UNL     1      -1.793  -8.733  -0.221  0.00  0.00    +0.210 HD
ENDBRANCH   7  19
BRANCH  15  21
ATOM     21  C   UNL     1      -0.228  -0.525   1.422  0.00  0.00    -0.042 C 
BRANCH  21  22
ATOM     22  C   UNL     1       1.070   0.117   1.917  0.00  0.00    +0.128 C 
BRANCH  22  26
ATOM     23  C   UNL     1       0.535   4.344   2.241  0.00  0.00    +0.120 A 
ATOM     24  C   UNL     1       0.458   3.545   3.373  0.00  0.00    +0.046 A 
ATOM     25  C   UNL     1       0.631   2.179   3.265  0.00  0.00    +0.009 A 
ATOM     26  C   UNL     1       0.881   1.607   2.031  0.00  0.00    -0.021 A 
ATOM     27  C   UNL     1       0.965   2.402   0.903  0.00  0.00    +0.009 A 
ATOM     28  C   UNL     1       0.787   3.768   1.004  0.00  0.00    +0.046 A 
BRANCH  23  30
ATOM     29  C   UNL     1       0.458   6.449   1.137  0.00  0.00    +0.277 C 
ATOM     30  O   UNL     1       0.365   5.688   2.344  0.00  0.00    -0.495 OA
ENDBRANCH  23  30
ENDBRANCH  22  26
BRANCH  22  31
ATOM     31  O   UNL     1       2.122  -0.161   0.990  0.00  0.00    -0.389 OA
ATOM     32  H   UNL     1       1.959   0.175   0.098  0.00  0.00    +0.210 HD
ENDBRANCH  22  31
ENDBRANCH  21  22
ENDBRANCH  15  21
TORSDOF 7
