REMARK  Name = ZINC63697500
REMARK  8 active torsions:
REMARK  status: ('A' for Active; 'I' for Inactive)
REMARK    1  A    between atoms: C_1  and  O_2
REMARK    2  A    between atoms: O_2  and  C_3
REMARK    3  A    between atoms: C_6  and  C_11
REMARK    4  A    between atoms: C_8  and  O_9
REMARK    5  A    between atoms: O_9  and  C_10
REMARK    6  A    between atoms: C_26  and  C_28
REMARK    7  A    between atoms: C_31  and  S_34
REMARK    8  A    between atoms: S_34  and  C_35
REMARK                            x       y       z     vdW  Elec       q    Type
REMARK                         _______ _______ _______ _____ _____    ______ ____
ROOT
ATOM      1  C   UNL     1      -4.966  -2.691   0.012  0.00  0.00    +0.247 C 
ATOM      2  O   UNL     1      -5.055  -3.902  -0.040  0.00  0.00    -0.270 OA
ATOM      3  N   UNL     1      -6.079  -1.937   0.118  0.00  0.00    -0.288 N 
ATOM      4  C   UNL     1      -5.971  -0.475   0.078  0.00  0.00    +0.113 C 
ATOM      5  C   UNL     1      -6.572   0.118   1.365  0.00  0.00    +0.052 C 
ATOM      6  C   UNL     1      -7.883  -0.592   1.598  0.00  0.00    -0.035 C 
ATOM      7  C   UNL     1      -9.107  -0.126   1.816  0.00  0.00    -0.001 A 
ATOM      8  C   UNL     1      -9.613   1.240   2.019  0.00  0.00    +0.010 A 
ATOM      9  C   UNL     1     -10.955   1.362   2.200  0.00  0.00    +0.001 A 
ATOM     10  C   UNL     1     -11.833   0.273   2.200  0.00  0.00    +0.002 A 
ATOM     11  C   UNL     1     -11.453  -1.018   2.029  0.00  0.00    +0.026 A 
ATOM     12  C   UNL     1     -10.064  -1.274   1.837  0.00  0.00    +0.043 A 
ATOM     13  N   UNL     1      -9.430  -2.398   1.675  0.00  0.00    -0.375 N 
ATOM     14  C   UNL     1      -7.997  -2.112   1.594  0.00  0.00    +0.131 C 
ATOM     15  C   UNL     1      -7.389  -2.590   0.267  0.00  0.00    +0.133 C 
ATOM     16  H   UNL     1      -9.838  -3.276   1.618  0.00  0.00    +0.160 HD
ENDROOT
BRANCH   1  20
ATOM     17  C   UNL     1      -1.150  -0.828  -0.143  0.00  0.00    +0.162 A 
ATOM     18  C   UNL     1      -2.180  -0.368  -0.952  0.00  0.00    +0.050 A 
ATOM     19  C   UNL     1      -3.418  -0.970  -0.904  0.00  0.00    +0.017 A 
ATOM     20  C   UNL     1      -3.640  -2.045  -0.041  0.00  0.00    +0.041 A 
ATOM     21  C   UNL     1      -2.603  -2.509   0.773  0.00  0.00    +0.062 A 
ATOM     22  C   UNL     1      -1.362  -1.904   0.717  0.00  0.00    +0.162 A 
BRANCH  17  24
ATOM     23  C   UNL     1       0.218   0.866  -1.097  0.00  0.00    +0.277 C 
ATOM     24  O   UNL     1       0.069  -0.231  -0.194  0.00  0.00    -0.491 OA
ENDBRANCH  17  24
BRANCH  22  25
ATOM     25  O   UNL     1      -0.349  -2.355   1.505  0.00  0.00    -0.491 OA
ATOM     26  C   UNL     1      -0.637  -3.462   2.362  0.00  0.00    +0.277 C 
ENDBRANCH  22  25
ENDBRANCH   1  20
BRANCH  15  27
ATOM     27  C   UNL     1      -8.286  -2.201  -0.880  0.00  0.00    -0.025 A 
ATOM     28  C   UNL     1      -8.842  -3.180  -1.684  0.00  0.00    +0.006 A 
ATOM     29  C   UNL     1      -9.664  -2.827  -2.735  0.00  0.00    +0.015 A 
ATOM     30  C   UNL     1      -9.933  -1.486  -2.985  0.00  0.00    +0.008 A 
ATOM     31  C   UNL     1      -9.373  -0.506  -2.175  0.00  0.00    +0.015 A 
ATOM     32  C   UNL     1      -8.556  -0.867  -1.122  0.00  0.00    +0.006 A 
BRANCH  30  33
ATOM     33  S   UNL     1     -10.981  -1.031  -4.327  0.00  0.00    -0.129 S 
ATOM     34  C   UNL     1     -11.029   0.781  -4.251  0.00  0.00    +0.090 C 
ENDBRANCH  30  33
ENDBRANCH  15  27
TORSDOF 5
