REMARK  Name = ZINC44903326
REMARK  3 active torsions:
REMARK  status: ('A' for Active; 'I' for Inactive)
REMARK    1  A    between atoms: C_9  and  N_14
REMARK    2  A    between atoms: C_11  and  O_13
REMARK    3  A    between atoms: C_19  and  C_21
REMARK                            x       y       z     vdW  Elec       q    Type
REMARK                         _______ _______ _______ _____ _____    ______ ____
ROOT
ATOM      1  N   UNL     1       3.234  -3.378   1.339  0.00  0.00    -0.217 N 
ATOM      2  C   UNL     1       3.728  -4.547   1.789  0.00  0.00    +0.268 A 
ATOM      3  O   UNL     1       4.345  -5.283   1.037  0.00  0.00    -0.266 OA
ATOM      4  C   UNL     1       3.526  -4.914   3.138  0.00  0.00    +0.074 A 
ATOM      5  C   UNL     1       2.829  -4.055   3.936  0.00  0.00    +0.035 A 
ATOM      6  C   UNL     1       2.352  -2.851   3.368  0.00  0.00    +0.094 A 
ATOM      7  N   UNL     1       2.585  -2.578   2.105  0.00  0.00    -0.167 NA
ENDROOT
BRANCH   1  16
ATOM      8  C   UNL     1      -0.249   1.179  -0.078  0.00  0.00    +0.000 A 
ATOM      9  C   UNL     1       0.905   1.941  -0.074  0.00  0.00    +0.002 A 
ATOM     10  C   UNL     1       2.130   1.321  -0.072  0.00  0.00    +0.028 A 
ATOM     11  C   UNL     1       2.241  -0.086  -0.070  0.00  0.00    +0.071 A 
ATOM     12  C   UNL     1       1.078  -0.841  -0.064  0.00  0.00    -0.022 A 
ATOM     13  C   UNL     1      -0.156  -0.195  -0.073  0.00  0.00    +0.006 A 
ATOM     14  C   UNL     1       1.030  -2.336  -0.033  0.00  0.00    +0.040 C 
ATOM     15  C   UNL     1       2.124  -3.030  -0.784  0.00  0.00    +0.041 C 
ATOM     16  C   UNL     1       3.449  -3.006  -0.061  0.00  0.00    +0.196 C 
ATOM     17  C   UNL     1       4.089  -1.665  -0.110  0.00  0.00    +0.213 C 
ATOM     18  N   UNL     1       3.502  -0.556  -0.081  0.00  0.00    -0.215 NA
BRANCH  17  19
ATOM     19  O   UNL     1       5.435  -1.637  -0.195  0.00  0.00    -0.494 OA
ATOM     20  H   UNL     1       5.809  -0.746  -0.224  0.00  0.00    +0.293 HD
ENDBRANCH  17  19
ENDBRANCH   1  16
BRANCH   6  21
ATOM     21  C   UNL     1       1.590  -1.890   4.203  0.00  0.00    +0.037 A 
ATOM     22  C   UNL     1       1.349  -2.170   5.546  0.00  0.00    +0.013 A 
ATOM     23  C   UNL     1       0.640  -1.272   6.319  0.00  0.00    +0.001 A 
ATOM     24  C   UNL     1       0.168  -0.097   5.763  0.00  0.00    +0.003 A 
ATOM     25  C   UNL     1       0.403   0.188   4.430  0.00  0.00    +0.039 A 
ATOM     26  C   UNL     1       1.117  -0.701   3.647  0.00  0.00    +0.133 A 
ATOM     27  F   UNL     1       1.351  -0.420   2.347  0.00  0.00    -0.205 F 
ENDBRANCH   6  21
TORSDOF 3
