REMARK  Name = ZINC51037579
REMARK  4 active torsions:
REMARK  status: ('A' for Active; 'I' for Inactive)
REMARK    1  A    between atoms: C_1  and  C_2
REMARK    2  A    between atoms: C_5  and  S_7
REMARK    3  A    between atoms: S_7  and  C_8
REMARK    4  A    between atoms: C_13  and  N_14
REMARK                            x       y       z     vdW  Elec       q    Type
REMARK                         _______ _______ _______ _____ _____    ______ ____
ROOT
ATOM      1  C   UNL     1       0.113  -4.929   0.507  0.00  0.00    +0.038 A 
ATOM      2  C   UNL     1       0.206  -4.739  -0.864  0.00  0.00    +0.018 A 
ATOM      3  C   UNL     1       0.249  -5.830  -1.712  0.00  0.00    +0.021 A 
ATOM      4  C   UNL     1       0.200  -7.114  -1.198  0.00  0.00    +0.043 A 
ATOM      5  C   UNL     1       0.106  -7.312   0.169  0.00  0.00    +0.043 A 
ATOM      6  C   UNL     1       0.068  -6.223   1.026  0.00  0.00    +0.040 A 
ATOM      7 CL   UNL     1       0.254  -8.478  -2.269  0.00  0.00    -0.083 Cl
ENDROOT
BRANCH   6   8
ATOM      8  N   UNL     1      -0.021  -6.421   2.409  0.00  0.00    -0.357 N 
ATOM      9  H   UNL     1      -0.052  -5.659   3.007  0.00  0.00    +0.142 HD
ATOM     10  H   UNL     1      -0.053  -7.322   2.768  0.00  0.00    +0.142 HD
ENDBRANCH   6   8
BRANCH   1  11
ATOM     11  S   UNL     1       0.058  -3.540   1.589  0.00  0.00    -0.028 S 
BRANCH  11  16
ATOM     12  C   UNL     1      -4.495  -2.174   3.900  0.00  0.00    +0.111 C 
ATOM     13  C   UNL     1      -3.478  -2.865   3.028  0.00  0.00    +0.215 A 
ATOM     14  N   UNL     1      -3.714  -3.831   2.190  0.00  0.00    -0.112 NA
ATOM     15  N   UNL     1      -2.617  -4.180   1.615  0.00  0.00    -0.101 NA
ATOM     16  C   UNL     1      -1.634  -3.441   2.071  0.00  0.00    +0.282 A 
ATOM     17  O   UNL     1      -2.160  -2.589   2.971  0.00  0.00    -0.416 OA
ENDBRANCH  11  16
ENDBRANCH   1  11
TORSDOF 3
