REMARK  Name = ZINC39661389
REMARK  8 active torsions:
REMARK  status: ('A' for Active; 'I' for Inactive)
REMARK    1  A    between atoms: C_1  and  C_2
REMARK    2  A    between atoms: C_2  and  C_3
REMARK    3  A    between atoms: C_2  and  C_4
REMARK    4  A    between atoms: C_4  and  C_6
REMARK    5  A    between atoms: C_4  and  O_29
REMARK    6  A    between atoms: C_10  and  C_19
REMARK    7  A    between atoms: N_21  and  C_22
REMARK    8  A    between atoms: O_29  and  C_30
REMARK                            x       y       z     vdW  Elec       q    Type
REMARK                         _______ _______ _______ _____ _____    ______ ____
ROOT
ATOM      1  C   UNL     1      -1.134  -1.601   0.251  0.00  0.00    +0.257 C 
ATOM      2  O   UNL     1      -1.455  -2.379  -0.623  0.00  0.00    -0.272 OA
ATOM      3  N   UNL     1      -0.660  -2.063   1.425  0.00  0.00    -0.297 N 
ATOM      4  C   UNL     1      -0.333  -1.285   2.642  0.00  0.00    +0.121 C 
ATOM      5  C   UNL     1      -0.816  -2.170   3.813  0.00  0.00    +0.100 C 
ATOM      6  C   UNL     1      -0.821  -3.600   3.247  0.00  0.00    -0.004 C 
ATOM      7  C   UNL     1      -0.353  -3.467   1.791  0.00  0.00    +0.115 C 
ATOM      8  C   UNL     1      -2.232  -4.180   3.290  0.00  0.00    -0.010 C 
ATOM      9  C   UNL     1      -2.202  -5.622   2.776  0.00  0.00    -0.082 C 
ATOM     10  N   UNL     1      -1.296  -6.422   3.609  0.00  0.00    +0.379 N 
ATOM     11  C   UNL     1       0.076  -5.914   3.489  0.00  0.00    -0.082 C 
ATOM     12  C   UNL     1       0.142  -4.484   4.034  0.00  0.00    -0.010 C 
ATOM     13  H   UNL     1      -1.591  -6.367   4.573  0.00  0.00    -0.086 HD
ATOM     14  H   UNL     1      -1.325  -7.384   3.307  0.00  0.00    -0.086 HD
ENDROOT
BRANCH   5  15
ATOM     15  C   UNL     1       0.136  -2.068   4.976  0.00  0.00    +0.219 C 
ATOM     16  O   UNL     1       1.300  -1.786   4.784  0.00  0.00    -0.275 OA
ATOM     17  N   UNL     1      -0.305  -2.288   6.230  0.00  0.00    -0.304 N 
ATOM     18  H   UNL     1      -1.236  -2.513   6.384  0.00  0.00    +0.149 HD
BRANCH  17  19
ATOM     19  C   UNL     1       0.621  -2.188   7.361  0.00  0.00    +0.151 C 
ATOM     20  C   UNL     1       0.119  -3.085   8.495  0.00  0.00    +0.042 C 
ATOM     21  C   UNL     1       0.721  -2.552   9.817  0.00  0.00    +0.079 C 
ATOM     22  S   UNL     1       0.889  -0.762   9.455  0.00  0.00    -0.086 S 
ATOM     23  C   UNL     1       0.721  -0.743   7.787  0.00  0.00    +0.209 C 
ATOM     24  O   UNL     1       0.689   0.234   7.069  0.00  0.00    -0.283 OA
ENDBRANCH  17  19
ENDBRANCH   5  15
BRANCH   1  25
ATOM     25  C   UNL     1      -1.266  -0.117   0.024  0.00  0.00    +0.261 C 
BRANCH  25  27
ATOM     26  C   UNL     1      -0.036   1.969  -0.594  0.00  0.00    +0.011 C 
ATOM     27  C   UNL     1       0.083   0.453  -0.419  0.00  0.00    +0.033 C 
ATOM     28  C   UNL     1       1.141   0.144   0.642  0.00  0.00    +0.011 C 
ENDBRANCH  25  27
BRANCH  25  29
ATOM     29  O   UNL     1      -2.242   0.125  -0.992  0.00  0.00    -0.479 OA
BRANCH  29  30
ATOM     30  C   UNL     1      -3.104   1.156  -0.786  0.00  0.00    +0.122 A 
ATOM     31  C   UNL     1      -4.154   1.369  -1.667  0.00  0.00    +0.045 A 
ATOM     32  C   UNL     1      -5.029   2.417  -1.456  0.00  0.00    +0.004 A 
ATOM     33  C   UNL     1      -4.858   3.253  -0.368  0.00  0.00    +0.000 A 
ATOM     34  C   UNL     1      -3.812   3.043   0.510  0.00  0.00    +0.004 A 
ATOM     35  C   UNL     1      -2.938   1.993   0.307  0.00  0.00    +0.045 A 
ENDBRANCH  29  30
ENDBRANCH  25  29
ENDBRANCH   1  25
TORSDOF 6
