REMARK  Name = ZINC00872263
REMARK  4 active torsions:
REMARK  status: ('A' for Active; 'I' for Inactive)
REMARK    1  A    between atoms: C_3  and  C_8
REMARK    2  A    between atoms: C_5  and  O_7
REMARK    3  A    between atoms: N_9  and  N_10
REMARK    4  A    between atoms: C_11  and  C_13
REMARK                            x       y       z     vdW  Elec       q    Type
REMARK                         _______ _______ _______ _____ _____    ______ ____
ROOT
ATOM      1  C   UNL     1      -0.076   5.323   0.029  0.00  0.00    +0.138 C 
ATOM      2  N   UNL     1      -1.210   5.953   0.043  0.00  0.00    -0.187 NA
ENDROOT
BRANCH   1   5
ATOM      3  C   UNL     1      -1.221   1.748   0.017  0.00  0.00    +0.004 A 
ATOM      4  C   UNL     1      -1.248   3.127   0.030  0.00  0.00    +0.010 A 
ATOM      5  C   UNL     1      -0.051   3.849   0.022  0.00  0.00    -0.002 A 
ATOM      6  C   UNL     1       1.168   3.168   0.007  0.00  0.00    +0.054 A 
ATOM      7  C   UNL     1       1.182   1.784   0.000  0.00  0.00    +0.117 A 
ATOM      8  C   UNL     1      -0.013   1.076   0.008  0.00  0.00    +0.045 A 
BRANCH   7   9
ATOM      9  O   UNL     1       2.366   1.117  -0.014  0.00  0.00    -0.507 OA
ATOM     10  H   UNL     1       2.701   0.929  -0.902  0.00  0.00    +0.292 HD
ENDBRANCH   7   9
ENDBRANCH   1   5
BRANCH   2  11
ATOM     11  N   UNL     1      -1.233   7.354   0.051  0.00  0.00    -0.200 N 
ATOM     12  C   UNL     1      -2.411   8.009   0.065  0.00  0.00    +0.336 C 
ATOM     13  O   UNL     1      -3.452   7.385   0.071  0.00  0.00    -0.264 OA
ATOM     14  H   UNL     1      -0.401   7.853   0.045  0.00  0.00    +0.178 HD
BRANCH  12  15
ATOM     15  C   UNL     1      -2.436   9.515   0.073  0.00  0.00    +0.471 C 
ATOM     16  F   UNL     1      -3.763   9.960   0.087  0.00  0.00    -0.162 F 
ATOM     17  F   UNL     1      -1.774   9.987   1.211  0.00  0.00    -0.162 F 
ATOM     18  F   UNL     1      -1.795   9.998  -1.073  0.00  0.00    -0.162 F 
ENDBRANCH  12  15
ENDBRANCH   2  11
TORSDOF 4
