REMARK  Name = ZINC64227958
REMARK  4 active torsions:
REMARK  status: ('A' for Active; 'I' for Inactive)
REMARK    1  A    between atoms: C_4  and  C_7
REMARK    2  A    between atoms: C_7  and  N_8
REMARK    3  A    between atoms: C_28  and  C_30
REMARK    4  A    between atoms: C_34  and  N_36
REMARK                            x       y       z     vdW  Elec       q    Type
REMARK                         _______ _______ _______ _____ _____    ______ ____
ROOT
ATOM      1  N   UNL     1       4.155  -0.706   1.388  0.00  0.00    -0.287 N 
ATOM      2  C   UNL     1       5.023   0.235   2.077  0.00  0.00    +0.204 C 
ATOM      3  C   UNL     1       5.378  -0.227   3.452  0.00  0.00    +0.234 C 
ATOM      4  O   UNL     1       6.099   0.486   4.117  0.00  0.00    -0.274 OA
ATOM      5  N   UNL     1       4.956  -1.371   4.003  0.00  0.00    -0.279 N 
ATOM      6  C   UNL     1       4.101  -2.318   3.295  0.00  0.00    +0.167 C 
ATOM      7  C   UNL     1       3.734  -1.849   1.926  0.00  0.00    +0.237 C 
ATOM      8  O   UNL     1       3.009  -2.557   1.259  0.00  0.00    -0.274 OA
ATOM      9  C   UNL     1       4.794  -3.690   3.210  0.00  0.00    +0.065 C 
ATOM     10  C   UNL     1       5.338  -3.983   4.586  0.00  0.00    -0.034 C 
ATOM     11  C   UNL     1       5.215  -5.044   5.373  0.00  0.00    -0.001 A 
ATOM     12  C   UNL     1       4.601  -6.363   5.152  0.00  0.00    +0.010 A 
ATOM     13  C   UNL     1       4.634  -7.224   6.204  0.00  0.00    +0.001 A 
ATOM     14  C   UNL     1       5.210  -6.909   7.438  0.00  0.00    +0.002 A 
ATOM     15  C   UNL     1       5.805  -5.724   7.726  0.00  0.00    +0.026 A 
ATOM     16  C   UNL     1       5.841  -4.740   6.696  0.00  0.00    +0.043 A 
ATOM     17  N   UNL     1       6.360  -3.548   6.690  0.00  0.00    -0.375 N 
ATOM     18  C   UNL     1       6.184  -2.975   5.355  0.00  0.00    +0.131 C 
ATOM     19  C   UNL     1       5.385  -1.670   5.388  0.00  0.00    +0.133 C 
ATOM     20  H   UNL     1       6.790  -3.112   7.442  0.00  0.00    +0.160 HD
ENDROOT
BRANCH  19  21
ATOM     21  C   UNL     1       4.176  -1.833   6.273  0.00  0.00    -0.023 A 
ATOM     22  C   UNL     1       3.233  -2.801   5.984  0.00  0.00    +0.005 A 
ATOM     23  C   UNL     1       2.125  -2.951   6.796  0.00  0.00    +0.003 A 
ATOM     24  C   UNL     1       1.959  -2.132   7.898  0.00  0.00    +0.033 A 
ATOM     25  C   UNL     1       2.902  -1.164   8.187  0.00  0.00    +0.127 A 
ATOM     26  C   UNL     1       4.013  -1.017   7.377  0.00  0.00    +0.038 A 
BRANCH  25  27
ATOM     27  N   UNL     1       2.725  -0.287   9.366  0.00  0.00    +0.056 N 
ATOM     28  O   UNL     1       1.755  -0.417  10.076  0.00  0.00    -0.126 OA
ATOM     29  O   UNL     1       3.550   0.560   9.620  0.00  0.00    -0.126 OA
ENDBRANCH  25  27
ENDBRANCH  19  21
BRANCH   1  30
ATOM     30  C   UNL     1       3.716  -0.376   0.030  0.00  0.00    +0.143 C 
BRANCH  30  34
ATOM     31  C   UNL     1       0.068   1.839   0.210  0.00  0.00    +0.000 A 
ATOM     32  C   UNL     1       1.281   2.502   0.229  0.00  0.00    +0.000 A 
ATOM     33  C   UNL     1       2.461   1.786   0.171  0.00  0.00    +0.005 A 
ATOM     34  C   UNL     1       2.429   0.406   0.095  0.00  0.00    -0.030 A 
ATOM     35  C   UNL     1       1.216  -0.257   0.077  0.00  0.00    +0.005 A 
ATOM     36  C   UNL     1       0.036   0.460   0.133  0.00  0.00    +0.000 A 
ENDBRANCH  30  34
ENDBRANCH   1  30
TORSDOF 4
