REMARK  Name = ZINC61614365
REMARK  5 active torsions:
REMARK  status: ('A' for Active; 'I' for Inactive)
REMARK    1  A    between atoms: C_4  and  C_7
REMARK    2  A    between atoms: C_7  and  C_9
REMARK    3  A    between atoms: C_7  and  C_11
REMARK    4  A    between atoms: N_13  and  C_14
REMARK    5  A    between atoms: C_17  and  C_21
REMARK                            x       y       z     vdW  Elec       q    Type
REMARK                         _______ _______ _______ _____ _____    ______ ____
ROOT
ATOM      1  C   UNL     1       3.817  -1.577   1.188  0.00  0.00    +0.239 C 
ATOM      2  O   UNL     1       2.916  -1.591   2.001  0.00  0.00    -0.274 OA
ATOM      3  N   UNL     1       4.914  -2.334   1.385  0.00  0.00    -0.284 N 
ATOM      4  H   UNL     1       5.604  -2.374   0.705  0.00  0.00    +0.155 HD
ENDROOT
BRANCH   3   5
ATOM      5  C   UNL     1       5.058  -3.060   2.569  0.00  0.00    +0.035 A 
ATOM      6  C   UNL     1       3.940  -3.623   3.177  0.00  0.00    +0.024 A 
ATOM      7  C   UNL     1       4.077  -4.339   4.345  0.00  0.00    +0.022 A 
ATOM      8  C   UNL     1       5.341  -4.502   4.919  0.00  0.00    +0.070 A 
ATOM      9  C   UNL     1       6.463  -3.935   4.305  0.00  0.00    +0.060 A 
ATOM     10  C   UNL     1       6.318  -3.223   3.133  0.00  0.00    +0.044 A 
ATOM     11 CL   UNL     1       8.035  -4.133   5.013  0.00  0.00    -0.082 Cl
BRANCH   8  12
ATOM     12  C   UNL     1       5.487  -5.246   6.134  0.00  0.00    +0.101 C 
ATOM     13  N   UNL     1       5.603  -5.837   7.097  0.00  0.00    -0.191 NA
ENDBRANCH   8  12
ENDBRANCH   3   5
BRANCH   1  14
ATOM     14  C   UNL     1       3.708  -0.712  -0.041  0.00  0.00    +0.207 C 
BRANCH  14  18
ATOM     15  C   UNL     1      -0.013   1.383   0.012  0.00  0.00    +0.000 A 
ATOM     16  C   UNL     1       1.176   2.087  -0.005  0.00  0.00    +0.000 A 
ATOM     17  C   UNL     1       2.381   1.409  -0.022  0.00  0.00    +0.005 A 
ATOM     18  C   UNL     1       2.396   0.027  -0.021  0.00  0.00    -0.022 A 
ATOM     19  C   UNL     1       1.206  -0.677  -0.003  0.00  0.00    +0.005 A 
ATOM     20  C   UNL     1       0.002   0.001   0.013  0.00  0.00    +0.000 A 
ENDBRANCH  14  18
BRANCH  14  21
ATOM     21  C   UNL     1       3.777  -1.559  -1.244  0.00  0.00    +0.080 C 
ATOM     22  N   UNL     1       3.830  -2.212  -2.171  0.00  0.00    -0.195 NA
ENDBRANCH  14  21
ENDBRANCH   1  14
TORSDOF 5
