REMARK  Name = ZINC39007366
REMARK  6 active torsions:
REMARK  status: ('A' for Active; 'I' for Inactive)
REMARK    1  A    between atoms: C_8  and  C_13
REMARK    2  A    between atoms: C_13  and  N_14
REMARK    3  A    between atoms: N_14  and  C_15
REMARK    4  A    between atoms: N_14  and  S_22
REMARK    5  A    between atoms: C_15  and  C_16
REMARK    6  A    between atoms: S_22  and  C_25
REMARK                            x       y       z     vdW  Elec       q    Type
REMARK                         _______ _______ _______ _____ _____    ______ ____
ROOT
ATOM      1  N   UNL     1       3.974  -4.518   1.005  0.00  0.00    -0.171 NA
ENDROOT
BRANCH   1   2
ATOM      2  S   UNL     1       3.726  -5.952   0.216  0.00  0.00    +0.061 S 
ATOM      3  O   UNL     1       4.789  -6.815   0.599  0.00  0.00    -0.153 OA
ATOM      4  O   UNL     1       2.361  -6.293   0.411  0.00  0.00    -0.153 OA
BRANCH   2   5
ATOM      5  C   UNL     1       3.926  -5.641  -1.507  0.00  0.00    +0.106 A 
ATOM      6  C   UNL     1       2.839  -5.262  -2.272  0.00  0.00    +0.030 A 
ATOM      7  C   UNL     1       2.995  -5.018  -3.623  0.00  0.00    +0.022 A 
ATOM      8  C   UNL     1       4.241  -5.152  -4.210  0.00  0.00    +0.041 A 
ATOM      9  C   UNL     1       5.329  -5.531  -3.444  0.00  0.00    +0.022 A 
ATOM     10  C   UNL     1       5.172  -5.770  -2.092  0.00  0.00    +0.030 A 
ATOM     11 CL   UNL     1       4.438  -4.846  -5.907  0.00  0.00    -0.084 Cl
ENDBRANCH   2   5
ENDBRANCH   1   2
BRANCH   1  12
ATOM     12  C   UNL     1       2.846  -3.617   1.258  0.00  0.00    +0.126 C 
BRANCH  12  20
ATOM     13  C   UNL     1       0.037   1.402   0.275  0.00  0.00    +0.001 A 
ATOM     14  C   UNL     1       1.234   2.089   0.073  0.00  0.00    +0.002 A 
ATOM     15  C   UNL     1       2.425   1.454  -0.086  0.00  0.00    +0.024 A 
ATOM     16  C   UNL     1       2.496   0.049  -0.053  0.00  0.00    +0.040 A 
ATOM     17  N   UNL     1       3.669  -0.563  -0.210  0.00  0.00    -0.284 N 
ATOM     18  C   UNL     1       3.807  -1.878  -0.190  0.00  0.00    +0.225 C 
ATOM     19  O   UNL     1       4.905  -2.380  -0.340  0.00  0.00    -0.275 OA
ATOM     20  C   UNL     1       2.593  -2.755   0.019  0.00  0.00    +0.114 C 
ATOM     21  C   UNL     1       1.256  -2.064   0.200  0.00  0.00    -0.003 C 
ATOM     22  C   UNL     1       1.246  -0.702   0.159  0.00  0.00    -0.007 A 
ATOM     23  C   UNL     1      -0.001   0.045   0.324  0.00  0.00    +0.009 A 
ATOM     24  H   UNL     1       4.460  -0.018  -0.346  0.00  0.00    +0.155 HD
ENDBRANCH  12  20
ENDBRANCH   1  12
BRANCH   1  25
ATOM     25  C   UNL     1       5.320  -4.149   1.450  0.00  0.00    +0.146 C 
BRANCH  25  26
ATOM     26  C   UNL     1       5.516  -4.592   2.877  0.00  0.00    -0.014 A 
ATOM     27  C   UNL     1       5.187  -3.747   3.926  0.00  0.00    +0.008 A 
ATOM     28  C   UNL     1       5.385  -4.197   5.222  0.00  0.00    +0.020 A 
ATOM     29  C   UNL     1       5.900  -5.464   5.424  0.00  0.00    +0.111 A 
ATOM     30  N   UNL     1       6.202  -6.240   4.402  0.00  0.00    -0.263 NA
ATOM     31  C   UNL     1       6.022  -5.847   3.156  0.00  0.00    +0.115 A 
ENDBRANCH  25  26
ENDBRANCH   1  25
TORSDOF 6
