REMARK  Name = ZINC02761702
REMARK  6 active torsions:
REMARK  status: ('A' for Active; 'I' for Inactive)
REMARK    1  A    between atoms: C_1  and  N_2
REMARK    2  A    between atoms: C_5  and  C_7
REMARK    3  A    between atoms: N_9  and  C_10
REMARK    4  A    between atoms: C_13  and  S_16
REMARK    5  A    between atoms: S_16  and  N_19
REMARK    6  A    between atoms: N_19  and  C_20
REMARK                            x       y       z     vdW  Elec       q    Type
REMARK                         _______ _______ _______ _____ _____    ______ ____
ROOT
ATOM      1  C   UNL     1       6.460  -1.770   0.551  0.00  0.00    +0.034 A 
ATOM      2  C   UNL     1       5.779  -2.876   1.044  0.00  0.00    +0.025 A 
ATOM      3  C   UNL     1       4.524  -3.186   0.556  0.00  0.00    +0.030 A 
ATOM      4  C   UNL     1       3.946  -2.397  -0.422  0.00  0.00    +0.109 A 
ATOM      5  C   UNL     1       4.624  -1.299  -0.918  0.00  0.00    +0.030 A 
ATOM      6  C   UNL     1       5.877  -0.981  -0.431  0.00  0.00    +0.025 A 
ENDROOT
BRANCH   1   9
ATOM      7  C   UNL     1       8.115  -0.165   1.134  0.00  0.00    +0.269 C 
ATOM      8  O   UNL     1       7.327   0.725   0.880  0.00  0.00    -0.268 OA
ATOM      9  N   UNL     1       7.730  -1.454   1.043  0.00  0.00    -0.280 N 
ATOM     10  H   UNL     1       8.334  -2.161   1.317  0.00  0.00    +0.155 HD
BRANCH   7  15
ATOM     11  C   UNL     1      12.784  -0.701   2.555  0.00  0.00    +0.172 C 
ATOM     12  N   UNL     1      11.524  -0.064   2.162  0.00  0.00    -0.273 N 
ATOM     13  C   UNL     1      11.325   1.275   2.076  0.00  0.00    +0.124 A 
ATOM     14  C   UNL     1      10.042   1.463   1.685  0.00  0.00    +0.068 A 
ATOM     15  C   UNL     1       9.495   0.166   1.544  0.00  0.00    +0.161 A 
ATOM     16  N   UNL     1      10.447  -0.692   1.854  0.00  0.00    -0.166 NA
ATOM     17 BR   UNL     1       9.166   3.113   1.389  0.00  0.00    -0.046 Br
ENDBRANCH   7  15
ENDBRANCH   1   9
BRANCH   4  18
ATOM     18  S   UNL     1       2.346  -2.797  -1.041  0.00  0.00    +0.072 S 
ATOM     19  O   UNL     1       2.105  -4.154  -0.697  0.00  0.00    -0.150 OA
ATOM     20  O   UNL     1       2.302  -2.332  -2.383  0.00  0.00    -0.150 OA
BRANCH  18  21
ATOM     21  N   UNL     1       1.252  -1.891  -0.190  0.00  0.00    -0.216 N 
ATOM     22  H   UNL     1       0.693  -1.247  -0.652  0.00  0.00    +0.174 HD
BRANCH  21  23
ATOM     23  C   UNL     1       1.133  -2.056   1.192  0.00  0.00    +0.048 A 
ATOM     24  C   UNL     1       1.083  -0.944   2.023  0.00  0.00    +0.026 A 
ATOM     25  C   UNL     1       0.967  -1.109   3.390  0.00  0.00    +0.022 A 
ATOM     26  C   UNL     1       0.900  -2.381   3.931  0.00  0.00    +0.041 A 
ATOM     27  C   UNL     1       0.950  -3.491   3.105  0.00  0.00    +0.022 A 
ATOM     28  C   UNL     1       1.066  -3.331   1.738  0.00  0.00    +0.026 A 
ATOM     29 CL   UNL     1       0.753  -2.585   5.648  0.00  0.00    -0.084 Cl
ENDBRANCH  21  23
ENDBRANCH  18  21
ENDBRANCH   4  18
TORSDOF 5
