REMARK  Name = ZINC50981360
REMARK  6 active torsions:
REMARK  status: ('A' for Active; 'I' for Inactive)
REMARK    1  A    between atoms: C_1  and  C_2
REMARK    2  A    between atoms: C_3  and  C_8
REMARK    3  A    between atoms: C_5  and  C_7
REMARK    4  A    between atoms: C_10  and  C_11
REMARK    5  A    between atoms: C_10  and  C_13
REMARK    6  A    between atoms: N_15  and  C_16
REMARK                            x       y       z     vdW  Elec       q    Type
REMARK                         _______ _______ _______ _____ _____    ______ ____
ROOT
ATOM      1  C   UNL     1      -0.007  -0.280  -2.528  0.00  0.00    +0.217 C 
ATOM      2  O   UNL     1      -0.147   1.036  -2.796  0.00  0.00    -0.285 OA
ATOM      3  C   UNL     1       0.097  -1.198  -3.575  0.00  0.00    +0.161 C 
ENDROOT
BRANCH   1   6
ATOM      4  C   UNL     1       2.545  -0.799  -0.846  0.00  0.00    +0.067 C 
ATOM      5  C   UNL     1       1.129  -0.985  -0.365  0.00  0.00    +0.057 A 
ATOM      6  C   UNL     1       0.034  -0.729  -1.185  0.00  0.00    +0.083 A 
ATOM      7  S   UNL     1      -1.305  -1.126  -0.072  0.00  0.00    -0.069 S 
ATOM      8  C   UNL     1      -0.377  -1.557   1.264  0.00  0.00    +0.076 A 
ATOM      9  N   UNL     1       0.859  -1.401   0.846  0.00  0.00    -0.249 NA
ATOM     10  C   UNL     1      -0.851  -2.019   2.618  0.00  0.00    +0.073 C 
ENDBRANCH   1   6
BRANCH   3  11
ATOM     11  C   UNL     1       0.131  -2.633  -3.289  0.00  0.00    +0.262 C 
ATOM     12  O   UNL     1      -0.028  -3.030  -2.149  0.00  0.00    -0.269 OA
ATOM     13  N   UNL     1       0.337  -3.514  -4.288  0.00  0.00    -0.281 N 
ATOM     14  H   UNL     1       0.400  -3.203  -5.204  0.00  0.00    +0.155 HD
BRANCH  13  15
ATOM     15  C   UNL     1       0.462  -4.877  -4.002  0.00  0.00    +0.036 A 
ATOM     16  C   UNL     1       1.336  -5.665  -4.740  0.00  0.00    +0.043 A 
ATOM     17  C   UNL     1       1.458  -7.013  -4.456  0.00  0.00    +0.044 A 
ATOM     18  C   UNL     1       0.710  -7.577  -3.438  0.00  0.00    +0.040 A 
ATOM     19  C   UNL     1      -0.161  -6.794  -2.700  0.00  0.00    +0.044 A 
ATOM     20  C   UNL     1      -0.283  -5.445  -2.977  0.00  0.00    +0.043 A 
ATOM     21 CL   UNL     1      -1.098  -7.505  -1.423  0.00  0.00    -0.083 Cl
ATOM     22 CL   UNL     1       2.549  -7.998  -5.379  0.00  0.00    -0.083 Cl
ENDBRANCH  13  15
ENDBRANCH   3  11
BRANCH   3  23
ATOM     23  C   UNL     1       0.170  -0.735  -4.928  0.00  0.00    +0.108 C 
ATOM     24  N   UNL     1       0.228  -0.368  -6.002  0.00  0.00    -0.191 NA
ENDBRANCH   3  23
TORSDOF 4
