REMARK  Name = ZINC62943078
REMARK  2 active torsions:
REMARK  status: ('A' for Active; 'I' for Inactive)
REMARK    1  A    between atoms: C_3  and  C_19
REMARK    2  A    between atoms: C_4  and  N_8
REMARK                            x       y       z     vdW  Elec       q    Type
REMARK                         _______ _______ _______ _____ _____    ______ ____
ROOT
ATOM      1  N   UNL     1       3.582  -0.721  -0.041  0.00  0.00    -0.329 N 
ATOM      2  C   UNL     1       4.251  -0.973  -1.313  0.00  0.00    +0.103 C 
ATOM      3  C   UNL     1       5.769  -0.787  -1.249  0.00  0.00    +0.000 C 
ATOM      4  C   UNL     1       6.096   0.461  -0.409  0.00  0.00    -0.077 C 
ATOM      5  N   UNL     1       6.253   0.066   0.960  0.00  0.00    +0.383 N 
ATOM      6  C   UNL     1       7.238   0.785   1.769  0.00  0.00    -0.078 C 
ATOM      7  C   UNL     1       6.905   0.428   3.240  0.00  0.00    -0.020 C 
ATOM      8  C   UNL     1       5.659  -0.496   3.159  0.00  0.00    -0.016 C 
ATOM      9  C   UNL     1       5.087  -0.146   1.769  0.00  0.00    -0.051 C 
ATOM     10  C   UNL     1       4.158  -1.205   1.223  0.00  0.00    +0.090 C 
ATOM     11  H   UNL     1       6.658  -0.856   0.900  0.00  0.00    -0.081 HD
ENDROOT
BRANCH   1  15
ATOM     12  C   UNL     1      -0.000   1.411   0.014  0.00  0.00    +0.004 A 
ATOM     13  C   UNL     1      -0.033   0.039  -0.092  0.00  0.00    +0.017 A 
ATOM     14  C   UNL     1       1.161  -0.690  -0.112  0.00  0.00    +0.087 A 
ATOM     15  C   UNL     1       2.388  -0.012  -0.023  0.00  0.00    +0.080 A 
ATOM     16  C   UNL     1       2.401   1.376   0.083  0.00  0.00    +0.145 A 
ATOM     17  C   UNL     1       1.212   2.079   0.101  0.00  0.00    +0.040 A 
ATOM     18  F   UNL     1       3.576   2.036   0.169  0.00  0.00    -0.204 F 
BRANCH  14  19
ATOM     19  C   UNL     1       1.133  -2.156  -0.225  0.00  0.00    +0.388 C 
ATOM     20  O   UNL     1       0.063  -2.750  -0.203  0.00  0.00    -0.241 OA
ATOM     21  O   UNL     1       2.178  -2.781  -0.340  0.00  0.00    -0.241 OA
ENDBRANCH  14  19
ENDBRANCH   1  15
TORSDOF 2
