REMARK  Name = ZINC02270349
REMARK  6 active torsions:
REMARK  status: ('A' for Active; 'I' for Inactive)
REMARK    1  A    between atoms: C_1  and  C_2
REMARK    2  A    between atoms: N_5  and  C_7
REMARK    3  A    between atoms: C_16  and  C_17
REMARK    4  A    between atoms: C_16  and  C_21
REMARK    5  A    between atoms: C_17  and  O_19
REMARK    6  A    between atoms: O_19  and  C_20
REMARK                            x       y       z     vdW  Elec       q    Type
REMARK                         _______ _______ _______ _____ _____    ______ ____
ROOT
ATOM      1  C   UNL     1       0.046  -1.201   1.849  0.00  0.00    +0.068 C 
ATOM      2  C   UNL     1       0.261  -0.023   2.764  0.00  0.00    +0.070 A 
ATOM      3  C   UNL     1       0.123   1.312   2.415  0.00  0.00    +0.084 A 
ATOM      4  C   UNL     1       0.406   2.070   3.520  0.00  0.00    +0.233 A 
ATOM      5  N   UNL     1       0.708   1.225   4.526  0.00  0.00    -0.199 N 
ATOM      6  N   UNL     1       0.611  -0.084   4.027  0.00  0.00    -0.168 NA
ATOM      7  O   UNL     1       0.358   3.425   3.485  0.00  0.00    -0.408 OA
ATOM      8  C   UNL     1       0.275   4.000   2.266  0.00  0.00    +0.289 C 
ATOM      9  N   UNL     1       0.004   3.373   1.173  0.00  0.00    -0.204 NA
ATOM     10  C   UNL     1      -0.261   1.934   1.098  0.00  0.00    +0.287 C 
ATOM     11  N   UNL     1       0.497   5.353   2.184  0.00  0.00    -0.285 N 
ATOM     12  C   UNL     1       0.430   6.046   0.890  0.00  0.00    +0.109 C 
ATOM     13  C   UNL     1      -0.550   7.221   1.016  0.00  0.00    +0.019 C 
ATOM     14  C   UNL     1      -0.123   8.113   2.184  0.00  0.00    +0.003 C 
ATOM     15  C   UNL     1      -0.167   7.308   3.485  0.00  0.00    +0.019 C 
ATOM     16  C   UNL     1       0.813   6.134   3.388  0.00  0.00    +0.109 C 
ENDROOT
BRANCH   5  17
ATOM     17  C   UNL     1       1.056   1.588   5.835  0.00  0.00    +0.069 A 
ATOM     18  C   UNL     1       1.804   2.736   6.062  0.00  0.00    +0.028 A 
ATOM     19  C   UNL     1       2.141   3.094   7.353  0.00  0.00    +0.002 A 
ATOM     20  C   UNL     1       1.745   2.305   8.417  0.00  0.00    +0.000 A 
ATOM     21  C   UNL     1       1.005   1.158   8.193  0.00  0.00    +0.002 A 
ATOM     22  C   UNL     1       0.660   0.798   6.905  0.00  0.00    +0.028 A 
ENDBRANCH   5  17
BRANCH  10  23
ATOM     23  C   UNL     1       0.572   1.315  -0.026  0.00  0.00    +0.430 C 
ATOM     24  F   UNL     1       0.221  -0.030  -0.180  0.00  0.00    -0.167 F 
ATOM     25  F   UNL     1       1.931   1.410   0.293  0.00  0.00    -0.167 F 
ATOM     26  F   UNL     1       0.325   2.001  -1.221  0.00  0.00    -0.167 F 
ENDBRANCH  10  23
BRANCH  10  27
ATOM     27  C   UNL     1      -1.726   1.699   0.834  0.00  0.00    +0.349 C 
ATOM     28  O   UNL     1      -2.285   0.753   1.334  0.00  0.00    -0.247 OA
BRANCH  27  29
ATOM     29  O   UNL     1      -2.408   2.542   0.043  0.00  0.00    -0.466 OA
ATOM     30  C   UNL     1      -3.816   2.254  -0.168  0.00  0.00    +0.280 C 
ENDBRANCH  27  29
ENDBRANCH  10  27
TORSDOF 4
