REMARK  Name = ZINC50294345
REMARK  4 active torsions:
REMARK  status: ('A' for Active; 'I' for Inactive)
REMARK    1  A    between atoms: C_1  and  C_2
REMARK    2  A    between atoms: C_2  and  C_4
REMARK    3  A    between atoms: C_10  and  C_12
REMARK    4  A    between atoms: N_15  and  C_17
REMARK                            x       y       z     vdW  Elec       q    Type
REMARK                         _______ _______ _______ _____ _____    ______ ____
ROOT
ATOM      1  C   UNL     1      -1.255  -0.753   0.010  0.00  0.00    +0.115 A 
ATOM      2  C   UNL     1      -1.255  -2.134   0.008  0.00  0.00    +0.079 A 
ATOM      3  S   UNL     1      -2.897  -2.499   0.020  0.00  0.00    -0.060 S 
ATOM      4  C   UNL     1      -3.534  -0.833   0.027  0.00  0.00    +0.165 A 
ATOM      5  N   UNL     1      -2.431  -0.115   0.025  0.00  0.00    -0.222 NA
ATOM      6  N   UNL     1      -4.854  -0.404   0.038  0.00  0.00    -0.259 N 
ATOM      7  C   UNL     1      -5.855  -1.306   0.045  0.00  0.00    +0.270 C 
ATOM      8  O   UNL     1      -5.603  -2.495   0.042  0.00  0.00    -0.268 OA
ATOM      9  H   UNL     1      -5.056   0.544   0.041  0.00  0.00    +0.157 HD
ENDROOT
BRANCH   7  10
ATOM     10  C   UNL     1      -7.259  -0.850   0.056  0.00  0.00    +0.148 A 
ATOM     11  C   UNL     1      -8.411  -1.673   0.070  0.00  0.00    +0.054 A 
ATOM     12  C   UNL     1      -9.464  -0.823   0.077  0.00  0.00    +0.115 A 
ATOM     13  N   UNL     1      -8.961   0.439   0.068  0.00  0.00    -0.238 N 
ATOM     14  N   UNL     1      -7.676   0.401   0.061  0.00  0.00    -0.162 NA
BRANCH  13  15
ATOM     15  C   UNL     1      -9.730   1.610   0.070  0.00  0.00    +0.084 A 
ATOM     16  C   UNL     1     -11.116   1.532   0.088  0.00  0.00    +0.029 A 
ATOM     17  C   UNL     1     -11.871   2.688   0.090  0.00  0.00    +0.002 A 
ATOM     18  C   UNL     1     -11.249   3.923   0.074  0.00  0.00    +0.002 A 
ATOM     19  C   UNL     1      -9.869   4.005   0.056  0.00  0.00    +0.022 A 
ATOM     20  C   UNL     1      -9.107   2.852   0.060  0.00  0.00    +0.066 A 
ATOM     21 CL   UNL     1      -7.374   2.955   0.044  0.00  0.00    -0.081 Cl
ENDBRANCH  13  15
ENDBRANCH   7  10
BRANCH   1  23
ATOM     22  C   UNL     1      -0.018   1.503   0.010  0.00  0.00    +0.093 C 
ATOM     23  C   UNL     1       0.002  -0.004   0.002  0.00  0.00    +0.179 C 
ATOM     24  O   UNL     1       1.061  -0.597  -0.011  0.00  0.00    -0.291 OA
ENDBRANCH   1  23
TORSDOF 3
