REMARK  Name = ZINC38914916
REMARK  3 active torsions:
REMARK  status: ('A' for Active; 'I' for Inactive)
REMARK    1  A    between atoms: C_5  and  N_7
REMARK    2  A    between atoms: C_9  and  C_14
REMARK    3  A    between atoms: C_16  and  C_19
REMARK                            x       y       z     vdW  Elec       q    Type
REMARK                         _______ _______ _______ _____ _____    ______ ____
ROOT
ATOM      1  N   UNL     1       1.236  -2.081  -0.022  0.00  0.00    -0.268 N 
ATOM      2  C   UNL     1       1.256  -2.916   1.184  0.00  0.00    +0.127 C 
ATOM      3  C   UNL     1       0.840  -4.328   0.715  0.00  0.00    +0.104 C 
ATOM      4  C   UNL     1       1.257  -4.301  -0.774  0.00  0.00    +0.111 C 
ATOM      5  C   UNL     1       1.236  -2.833  -1.137  0.00  0.00    +0.221 C 
ATOM      6  O   UNL     1       1.224  -2.397  -2.268  0.00  0.00    -0.275 OA
ENDROOT
BRANCH   1  11
ATOM      7  C   UNL     1      -0.017   1.377   0.010  0.00  0.00    +0.002 A 
ATOM      8  C   UNL     1       1.170   2.087   0.002  0.00  0.00    +0.003 A 
ATOM      9  C   UNL     1       2.380   1.418  -0.013  0.00  0.00    +0.040 A 
ATOM     10  C   UNL     1       2.406   0.035  -0.022  0.00  0.00    +0.145 A 
ATOM     11  C   UNL     1       1.214  -0.681  -0.014  0.00  0.00    +0.072 A 
ATOM     12  C   UNL     1       0.002  -0.004   0.002  0.00  0.00    +0.026 A 
ATOM     13  F   UNL     1       3.588  -0.619  -0.038  0.00  0.00    -0.204 F 
ENDBRANCH   1  11
BRANCH   3  14
ATOM     14  C   UNL     1      -0.648  -4.527   0.856  0.00  0.00    +0.233 A 
ATOM     15  N   UNL     1      -1.228  -5.433   1.589  0.00  0.00    -0.191 NA
ATOM     16  C   UNL     1      -2.565  -5.325   1.482  0.00  0.00    +0.202 A 
ATOM     17  N   UNL     1      -2.841  -4.336   0.668  0.00  0.00    -0.056 NA
ATOM     18  O   UNL     1      -1.595  -3.798   0.252  0.00  0.00    -0.337 OA
BRANCH  16  19
ATOM     19  C   UNL     1      -3.561  -6.183   2.170  0.00  0.00    +0.024 A 
ATOM     20  C   UNL     1      -3.135  -7.204   3.019  0.00  0.00    +0.014 A 
ATOM     21  C   UNL     1      -4.064  -8.000   3.657  0.00  0.00    +0.040 A 
ATOM     22  C   UNL     1      -5.418  -7.786   3.456  0.00  0.00    +0.137 A 
ATOM     23  C   UNL     1      -5.846  -6.772   2.613  0.00  0.00    +0.054 A 
ATOM     24  C   UNL     1      -4.923  -5.968   1.975  0.00  0.00    +0.029 A 
ATOM     25 BR   UNL     1      -7.695  -6.487   2.342  0.00  0.00    -0.047 Br
ATOM     26  F   UNL     1      -6.324  -8.568   4.083  0.00  0.00    -0.204 F 
ENDBRANCH  16  19
ENDBRANCH   3  14
TORSDOF 3
