REMARK  Name = ZINC01725492
REMARK  3 active torsions:
REMARK  status: ('A' for Active; 'I' for Inactive)
REMARK    1  A    between atoms: C_1  and  C_2
REMARK    2  A    between atoms: C_5  and  C_8
REMARK    3  A    between atoms: C_10  and  C_22
REMARK                            x       y       z     vdW  Elec       q    Type
REMARK                         _______ _______ _______ _____ _____    ______ ____
ROOT
ATOM      1  C   UNL     1       3.904  -0.283  -0.069  0.00  0.00    +0.130 C 
ATOM      2  C   UNL     1       4.357  -0.638   1.356  0.00  0.00    +0.190 C 
ATOM      3  S   UNL     1       4.411   0.910   2.312  0.00  0.00    +0.008 S 
ATOM      4  O   UNL     1       3.100   1.432   2.478  0.00  0.00    -0.169 OA
ATOM      5  O   UNL     1       5.288   0.773   3.421  0.00  0.00    -0.169 OA
ATOM      6  C   UNL     1       5.220   2.047   1.230  0.00  0.00    +0.110 A 
ATOM      7  C   UNL     1       5.707   3.234   1.744  0.00  0.00    +0.029 A 
ATOM      8  C   UNL     1       6.338   4.144   0.918  0.00  0.00    +0.002 A 
ATOM      9  C   UNL     1       6.482   3.867  -0.429  0.00  0.00    +0.002 A 
ATOM     10  C   UNL     1       6.000   2.684  -0.947  0.00  0.00    +0.025 A 
ATOM     11  C   UNL     1       5.365   1.758  -0.118  0.00  0.00    +0.053 A 
ATOM     12  N   UNL     1       4.916   0.569  -0.686  0.00  0.00    -0.333 N 
ATOM     13  H   UNL     1       5.295   0.292  -1.535  0.00  0.00    +0.147 HD
ENDROOT
BRANCH   1  18
ATOM     14  C   UNL     1      -1.133   2.540   0.148  0.00  0.00    +0.044 C 
ATOM     15  C   UNL     1       0.180   1.803   0.087  0.00  0.00    -0.050 A 
ATOM     16  C   UNL     1       0.222   0.444   0.337  0.00  0.00    +0.004 A 
ATOM     17  C   UNL     1       1.427  -0.231   0.288  0.00  0.00    +0.006 A 
ATOM     18  C   UNL     1       2.590   0.453  -0.013  0.00  0.00    -0.025 A 
ATOM     19  C   UNL     1       2.548   1.812  -0.264  0.00  0.00    +0.006 A 
ATOM     20  C   UNL     1       1.343   2.487  -0.213  0.00  0.00    +0.004 A 
ENDBRANCH   1  18
BRANCH   2  21
ATOM     21  C   UNL     1       5.727  -1.264   1.318  0.00  0.00    -0.021 A 
ATOM     22  C   UNL     1       5.867  -2.630   1.478  0.00  0.00    +0.005 A 
ATOM     23  C   UNL     1       7.124  -3.205   1.437  0.00  0.00    +0.000 A 
ATOM     24  C   UNL     1       8.241  -2.413   1.248  0.00  0.00    +0.000 A 
ATOM     25  C   UNL     1       8.101  -1.046   1.093  0.00  0.00    +0.000 A 
ATOM     26  C   UNL     1       6.844  -0.472   1.128  0.00  0.00    +0.005 A 
ENDBRANCH   2  21
TORSDOF 2
