REMARK  Name = ZINC57503260
REMARK  3 active torsions:
REMARK  status: ('A' for Active; 'I' for Inactive)
REMARK    1  A    between atoms: C_1  and  C_2
REMARK    2  A    between atoms: N_8  and  C_9
REMARK    3  A    between atoms: C_9  and  C_10
REMARK                            x       y       z     vdW  Elec       q    Type
REMARK                         _______ _______ _______ _____ _____    ______ ____
ROOT
ATOM      1  C   UNL     1       0.865  -0.347   3.613  0.00  0.00    +0.032 A 
ATOM      2  C   UNL     1       1.485   0.622   4.378  0.00  0.00    +0.092 A 
ATOM      3  C   UNL     1       2.220   0.229   5.502  0.00  0.00    +0.259 A 
ATOM      4  O   UNL     1       2.780   1.061   6.199  0.00  0.00    -0.267 OA
ATOM      5  N   UNL     1       2.300  -1.084   5.805  0.00  0.00    -0.267 N 
ATOM      6  C   UNL     1       3.012  -1.482   6.896  0.00  0.00    +0.116 A 
ATOM      7  C   UNL     1       3.107  -2.793   7.219  0.00  0.00    +0.058 A 
ATOM      8  C   UNL     1       2.469  -3.761   6.429  0.00  0.00    +0.025 A 
ATOM      9  C   UNL     1       1.755  -3.372   5.335  0.00  0.00    +0.048 A 
ATOM     10  C   UNL     1       1.668  -2.004   5.016  0.00  0.00    +0.140 A 
ATOM     11  N   UNL     1       0.967  -1.623   3.950  0.00  0.00    -0.236 NA
ATOM     12 CL   UNL     1       4.019  -3.277   8.614  0.00  0.00    -0.082 Cl
ENDROOT
BRANCH   1  13
ATOM     13  C   UNL     1       0.067   0.050   2.397  0.00  0.00    -0.022 C 
BRANCH  13  20
ATOM     14  C   UNL     1      -0.019   1.526   0.010  0.00  0.00    -0.013 C 
ATOM     15  C   UNL     1       0.002  -0.004   0.002  0.00  0.00    -0.071 C 
ATOM     16  C   UNL     1       0.717  -0.497  -1.258  0.00  0.00    -0.016 C 
ATOM     17  C   UNL     1       0.735  -2.028  -1.262  0.00  0.00    -0.003 C 
ATOM     18  C   UNL     1       1.410  -2.524   0.020  0.00  0.00    -0.019 C 
ATOM     19  C   UNL     1       0.669  -1.956   1.232  0.00  0.00    -0.078 C 
ATOM     20  N   UNL     1       0.711  -0.490   1.192  0.00  0.00    +0.385 N 
ATOM     21  H   UNL     1       1.671  -0.182   1.159  0.00  0.00    -0.081 HD
ENDBRANCH  13  20
ENDBRANCH   1  13
TORSDOF 2
