REMARK  Name = ZINC23381312
REMARK  2 active torsions:
REMARK  status: ('A' for Active; 'I' for Inactive)
REMARK    1  A    between atoms: N_9  and  C_11
REMARK    2  A    between atoms: C_11  and  N_12
REMARK                            x       y       z     vdW  Elec       q    Type
REMARK                         _______ _______ _______ _____ _____    ______ ____
ROOT
ATOM      1  N   UNL     1      -4.002   3.247  -0.751  0.00  0.00    -0.211 N 
ATOM      2  C   UNL     1      -2.907   2.632  -0.263  0.00  0.00    +0.248 C 
ATOM      3  O   UNL     1      -2.838   1.511   0.195  0.00  0.00    -0.273 OA
ATOM      4  C   UNL     1      -1.778   3.632  -0.407  0.00  0.00    +0.113 C 
ATOM      5  C   UNL     1      -0.694   3.094  -1.300  0.00  0.00    +0.035 C 
ATOM      6  C   UNL     1      -0.689   1.554  -1.193  0.00  0.00    +0.003 C 
ATOM      7  C   UNL     1      -0.013   1.086   0.008  0.00  0.00    +0.000 C 
ATOM      8  C   UNL     1      -0.704   1.568   1.299  0.00  0.00    +0.000 C 
ATOM      9  C   UNL     1      -0.274   2.986   1.568  0.00  0.00    +0.003 C 
ATOM     10  C   UNL     1      -1.267   4.015   0.995  0.00  0.00    +0.035 C 
ATOM     11  N   UNL     1      -2.428   4.805  -1.016  0.00  0.00    -0.285 N 
ATOM     12  C   UNL     1      -3.724   4.484  -1.179  0.00  0.00    +0.310 C 
ATOM     13  O   UNL     1      -4.550   5.234  -1.661  0.00  0.00    -0.252 OA
ATOM     14  H   UNL     1      -1.838   5.706  -1.240  0.00  0.00    +0.151 HD
ENDROOT
BRANCH   1  15
ATOM     15  C   UNL     1      -5.333   2.636  -0.807  0.00  0.00    +0.205 C 
BRANCH  15  24
ATOM     16  C   UNL     1      -5.535  -1.580  -5.654  0.00  0.00    +0.000 A 
ATOM     17  C   UNL     1      -4.526  -1.950  -4.784  0.00  0.00    +0.000 A 
ATOM     18  C   UNL     1      -4.321  -1.231  -3.624  0.00  0.00    +0.005 A 
ATOM     19  C   UNL     1      -5.122  -0.139  -3.325  0.00  0.00    -0.030 A 
ATOM     20  C   UNL     1      -6.126   0.231  -4.194  0.00  0.00    -0.042 A 
ATOM     21  C   UNL     1      -6.332  -0.493  -5.359  0.00  0.00    +0.004 A 
ATOM     22  C   UNL     1      -7.018   1.413  -3.915  0.00  0.00    +0.051 C 
ATOM     23  C   UNL     1      -6.919   1.806  -2.441  0.00  0.00    +0.091 C 
ATOM     24  N   UNL     1      -5.496   1.933  -2.087  0.00  0.00    -0.282 NA
ATOM     25  C   UNL     1      -4.863   0.612  -2.045  0.00  0.00    +0.121 C 
ENDBRANCH  15  24
ENDBRANCH   1  15
TORSDOF 2
