REMARK  Name = ZINC02209727
REMARK  5 active torsions:
REMARK  status: ('A' for Active; 'I' for Inactive)
REMARK    1  A    between atoms: C_8  and  C_9
REMARK    2  A    between atoms: C_8  and  C_11
REMARK    3  A    between atoms: N_13  and  C_14
REMARK    4  A    between atoms: C_14  and  C_15
REMARK    5  A    between atoms: C_23  and  C_25
REMARK                            x       y       z     vdW  Elec       q    Type
REMARK                         _______ _______ _______ _____ _____    ______ ____
ROOT
ATOM      1  C   UNL     1      -0.017   1.384   0.010  0.00  0.00    +0.001 A 
ATOM      2  C   UNL     1       1.165   2.100   0.002  0.00  0.00    +0.001 A 
ATOM      3  C   UNL     1       2.386   1.443  -0.013  0.00  0.00    +0.012 A 
ATOM      4  C   UNL     1       2.420   0.057  -0.021  0.00  0.00    +0.024 A 
ATOM      5  C   UNL     1       1.213  -0.673  -0.013  0.00  0.00    +0.012 A 
ATOM      6  C   UNL     1       0.002  -0.004   0.002  0.00  0.00    +0.011 A 
ATOM      7  C   UNL     1       1.616  -2.097  -0.025  0.00  0.00    +0.096 C 
ATOM      8  C   UNL     1       0.753  -3.189  -0.023  0.00  0.00    +0.139 C 
ATOM      9  N   UNL     1       2.959  -2.155  -0.039  0.00  0.00    -0.230 NA
ATOM     10  C   UNL     1       3.496  -0.952  -0.038  0.00  0.00    +0.134 C 
ATOM     11  N   UNL     1       4.842  -0.682  -0.050  0.00  0.00    -0.265 N 
ATOM     12  C   UNL     1       5.733  -1.693  -0.064  0.00  0.00    +0.256 C 
ATOM     13  O   UNL     1       5.344  -2.846  -0.067  0.00  0.00    -0.269 OA
ATOM     14  H   UNL     1       5.152   0.237  -0.048  0.00  0.00    +0.157 HD
ENDROOT
BRANCH  12  15
ATOM     15  C   UNL     1       7.169  -1.405  -0.077  0.00  0.00    +0.074 A 
ATOM     16  C   UNL     1       8.238  -2.288  -0.099  0.00  0.00    +0.021 A 
ATOM     17  C   UNL     1       9.486  -1.714  -0.106  0.00  0.00    +0.008 A 
ATOM     18  C   UNL     1       9.590  -0.361  -0.093  0.00  0.00    +0.046 A 
ATOM     19  S   UNL     1       7.998   0.174  -0.077  0.00  0.00    -0.092 S 
ENDBRANCH  12  15
BRANCH   8  20
ATOM     20  C   UNL     1       1.296  -4.557  -0.036  0.00  0.00    +0.257 C 
ATOM     21  O   UNL     1       2.500  -4.733  -0.049  0.00  0.00    -0.269 OA
ATOM     22  N   UNL     1       0.461  -5.614  -0.034  0.00  0.00    -0.304 N 
ATOM     23  H   UNL     1      -0.499  -5.474  -0.024  0.00  0.00    +0.149 HD
BRANCH  22  24
ATOM     24  C   UNL     1       1.002  -6.975  -0.047  0.00  0.00    +0.179 C 
BRANCH  24  25
ATOM     25  C   UNL     1      -0.133  -7.967  -0.042  0.00  0.00    +0.122 A 
ATOM     26  C   UNL     1      -0.732  -8.482  -1.130  0.00  0.00    +0.046 A 
ATOM     27  C   UNL     1      -1.736  -9.363  -0.666  0.00  0.00    +0.041 A 
ATOM     28  C   UNL     1      -1.690  -9.333   0.678  0.00  0.00    +0.195 A 
ATOM     29  O   UNL     1      -0.714  -8.490   1.051  0.00  0.00    -0.466 OA
ENDBRANCH  24  25
ENDBRANCH  22  24
ENDBRANCH   8  20
BRANCH   8  30
ATOM     30  C   UNL     1      -0.664  -2.982  -0.008  0.00  0.00    +0.107 C 
ATOM     31  N   UNL     1      -1.788  -2.817   0.004  0.00  0.00    -0.191 NA
ENDBRANCH   8  30
TORSDOF 5
