REMARK  Name = ZINC05438368
REMARK  8 active torsions:
REMARK  status: ('A' for Active; 'I' for Inactive)
REMARK    1  A    between atoms: C_1  and  C_2
REMARK    2  A    between atoms: C_2  and  N_52
REMARK    3  A    between atoms: C_8  and  C_10
REMARK    4  A    between atoms: N_12  and  C_13
REMARK    5  A    between atoms: N_17  and  C_18
REMARK    6  A    between atoms: C_18  and  C_19
REMARK    7  A    between atoms: C_18  and  C_20
REMARK    8  A    between atoms: C_18  and  C_21
REMARK                            x       y       z     vdW  Elec       q    Type
REMARK                         _______ _______ _______ _____ _____    ______ ____
ROOT
ATOM      1  C   UNL     1       2.123   1.298   0.099  0.00  0.00    +0.304 C 
ATOM      2  O   UNL     1       0.978   1.077   0.437  0.00  0.00    -0.265 OA
ATOM      3  N   UNL     1       2.656   0.636  -0.948  0.00  0.00    -0.263 N 
ATOM      4  H   UNL     1       3.588   0.769  -1.182  0.00  0.00    +0.157 HD
ENDROOT
BRANCH   1  10
ATOM      5  C   UNL     1       0.291   3.630   2.790  0.00  0.00    -0.060 C 
ATOM      6  C   UNL     1       1.187   2.410   2.554  0.00  0.00    +0.089 C 
ATOM      7  N   UNL     1       2.455   2.867   1.965  0.00  0.00    -0.297 N 
ATOM      8  C   UNL     1       3.182   3.954   2.638  0.00  0.00    +0.089 C 
ATOM      9  C   UNL     1       2.205   5.118   2.867  0.00  0.00    -0.060 C 
ATOM     10  C   UNL     1       2.940   2.301   0.843  0.00  0.00    +0.302 C 
ATOM     11  O   UNL     1       4.042   2.608   0.436  0.00  0.00    -0.265 OA
ATOM     12  N   UNL     1       1.032   4.611   3.612  0.00  0.00    +0.382 N 
ATOM     13  H   UNL     1       1.357   4.149   4.470  0.00  0.00    -0.082 HD
BRANCH  12  15
ATOM     14  C   UNL     1       0.863   6.614   5.006  0.00  0.00    -0.017 C 
ATOM     15  C   UNL     1       0.145   5.734   3.980  0.00  0.00    -0.082 C 
ENDBRANCH  12  15
ENDBRANCH   1  10
BRANCH   3  16
ATOM     16  C   UNL     1       1.869  -0.238  -1.692  0.00  0.00    +0.128 A 
ATOM     17  C   UNL     1       0.773  -0.936  -1.236  0.00  0.00    +0.026 A 
ATOM     18  C   UNL     1       0.282  -1.687  -2.289  0.00  0.00    +0.079 A 
ATOM     19  N   UNL     1       1.038  -1.458  -3.352  0.00  0.00    -0.173 NA
ATOM     20  N   UNL     1       2.043  -0.556  -2.997  0.00  0.00    -0.245 N 
ATOM     21  C   UNL     1      -0.947  -2.549  -2.003  0.00  0.00    +0.127 C 
ATOM     22  S   UNL     1      -0.976  -2.567  -0.164  0.00  0.00    -0.150 S 
ATOM     23  C   UNL     1       0.034  -1.051   0.096  0.00  0.00    +0.110 C 
BRANCH  20  24
ATOM     24  C   UNL     1       3.093  -0.042  -3.879  0.00  0.00    +0.057 C 
ATOM     25  C   UNL     1       4.458  -0.524  -3.382  0.00  0.00    +0.036 C 
ATOM     26  C   UNL     1       3.060   1.488  -3.873  0.00  0.00    +0.036 C 
ATOM     27  C   UNL     1       2.859  -0.551  -5.302  0.00  0.00    +0.036 C 
ENDBRANCH  20  24
ENDBRANCH   3  16
TORSDOF 4
