REMARK  Name = ZINC02204597
REMARK  7 active torsions:
REMARK  status: ('A' for Active; 'I' for Inactive)
REMARK    1  A    between atoms: C_1  and  C_2
REMARK    2  A    between atoms: C_9  and  S_24
REMARK    3  A    between atoms: C_10  and  C_13
REMARK    4  A    between atoms: N_17  and  C_21
REMARK    5  A    between atoms: C_21  and  C_22
REMARK    6  A    between atoms: C_21  and  C_23
REMARK    7  A    between atoms: S_24  and  C_25
REMARK                            x       y       z     vdW  Elec       q    Type
REMARK                         _______ _______ _______ _____ _____    ______ ____
ROOT
ATOM      1  C   UNL     1       1.767   5.533  -0.592  0.00  0.00    +0.047 C 
ATOM      2  C   UNL     1       3.270   5.459  -0.509  0.00  0.00    -0.008 A 
ATOM      3  C   UNL     1       4.013   6.602  -0.496  0.00  0.00    +0.008 A 
ATOM      4  C   UNL     1       5.410   6.517  -0.419  0.00  0.00    +0.019 A 
ATOM      5  C   UNL     1       6.014   5.309  -0.356  0.00  0.00    +0.096 A 
ATOM      6  N   UNL     1       5.279   4.160  -0.368  0.00  0.00    -0.267 N 
ATOM      7  C   UNL     1       3.915   4.211  -0.444  0.00  0.00    +0.144 A 
ATOM      8  N   UNL     1       3.179   3.099  -0.456  0.00  0.00    -0.222 NA
ATOM      9  C   UNL     1       3.735   1.897  -0.397  0.00  0.00    +0.116 A 
ATOM     10  C   UNL     1       5.143   1.783  -0.312  0.00  0.00    +0.073 A 
ATOM     11  C   UNL     1       5.914   2.970  -0.305  0.00  0.00    +0.267 A 
ATOM     12  O   UNL     1       7.130   2.918  -0.236  0.00  0.00    -0.267 OA
ENDROOT
BRANCH  10  13
ATOM     13  C   UNL     1       5.764   0.514  -0.241  0.00  0.00    +0.036 C 
ATOM     14  C   UNL     1       5.418  -0.361   0.747  0.00  0.00    +0.077 C 
ATOM     15  C   UNL     1       5.809  -1.718   0.933  0.00  0.00    +0.259 C 
ATOM     16  O   UNL     1       6.560  -2.267   0.146  0.00  0.00    -0.269 OA
ATOM     17  N   UNL     1       5.336  -2.364   1.984  0.00  0.00    -0.253 N 
ATOM     18  C   UNL     1       4.497  -1.757   2.853  0.00  0.00    +0.121 C 
ATOM     19  S   UNL     1       3.766  -2.395   4.263  0.00  0.00    -0.027 S 
ATOM     20  S   UNL     1       4.346  -0.119   2.156  0.00  0.00    -0.061 S 
BRANCH  17  21
ATOM     21  C   UNL     1       5.721  -3.759   2.208  0.00  0.00    +0.077 C 
ATOM     22  C   UNL     1       6.427  -3.883   3.560  0.00  0.00    +0.028 C 
ATOM     23  C   UNL     1       4.471  -4.641   2.203  0.00  0.00    +0.028 C 
ENDBRANCH  17  21
ENDBRANCH  10  13
BRANCH   9  24
ATOM     24  S   UNL     1       2.727   0.452  -0.416  0.00  0.00    -0.069 S 
BRANCH  24  25
ATOM     25  C   UNL     1       2.019   0.594  -2.024  0.00  0.00    +0.014 A 
ATOM     26  C   UNL     1       1.156  -0.388  -2.494  0.00  0.00    +0.015 A 
ATOM     27  C   UNL     1       0.607  -0.276  -3.756  0.00  0.00    +0.001 A 
ATOM     28  C   UNL     1       0.908   0.817  -4.548  0.00  0.00    +0.000 A 
ATOM     29  C   UNL     1       1.766   1.797  -4.083  0.00  0.00    +0.001 A 
ATOM     30  C   UNL     1       2.323   1.689  -2.824  0.00  0.00    +0.015 A 
ENDBRANCH  24  25
ENDBRANCH   9  24
TORSDOF 4
