REMARK  Name = ZINC53111202
REMARK  6 active torsions:
REMARK  status: ('A' for Active; 'I' for Inactive)
REMARK    1  A    between atoms: C_1  and  C_2
REMARK    2  A    between atoms: C_2  and  C_3
REMARK    3  A    between atoms: C_2  and  C_4
REMARK    4  A    between atoms: C_2  and  N_21
REMARK    5  A    between atoms: C_9  and  C_12
REMARK    6  A    between atoms: N_24  and  C_25
REMARK                            x       y       z     vdW  Elec       q    Type
REMARK                         _______ _______ _______ _____ _____    ______ ____
ROOT
ATOM      1  C   UNL     1      -1.391  -0.478   0.312  0.00  0.00    +0.239 C 
ATOM      2  O   UNL     1      -1.753  -0.581   1.466  0.00  0.00    -0.273 OA
ATOM      3  N   UNL     1      -2.222  -0.830  -0.689  0.00  0.00    -0.300 N 
ATOM      4  C   UNL     1      -1.819  -0.660  -2.091  0.00  0.00    +0.108 C 
ATOM      5  C   UNL     1      -2.895   0.151  -2.819  0.00  0.00    +0.032 C 
ATOM      6  C   UNL     1      -4.253  -0.529  -2.634  0.00  0.00    +0.078 C 
ATOM      7  C   UNL     1      -4.606  -0.573  -1.145  0.00  0.00    +0.032 C 
ATOM      8  C   UNL     1      -3.546  -1.397  -0.398  0.00  0.00    +0.108 C 
ENDROOT
BRANCH   6   9
ATOM      9  C   UNL     1      -5.310   0.247  -3.377  0.00  0.00    +0.200 A 
ATOM     10  N   UNL     1      -5.610   1.492  -3.155  0.00  0.00    -0.213 NA
ATOM     11  C   UNL     1      -6.603   1.861  -4.008  0.00  0.00    +0.110 A 
ATOM     12  C   UNL     1      -7.304   3.050  -4.217  0.00  0.00    +0.031 A 
ATOM     13  C   UNL     1      -8.281   3.106  -5.186  0.00  0.00    +0.002 A 
ATOM     14  C   UNL     1      -8.572   1.988  -5.955  0.00  0.00    +0.004 A 
ATOM     15  C   UNL     1      -7.888   0.807  -5.759  0.00  0.00    +0.048 A 
ATOM     16  C   UNL     1      -6.901   0.734  -4.788  0.00  0.00    +0.155 A 
ATOM     17  O   UNL     1      -6.071  -0.246  -4.367  0.00  0.00    -0.439 OA
ENDBRANCH   6   9
BRANCH   1  19
ATOM     18  C   UNL     1       0.631   0.583   1.278  0.00  0.00    +0.041 C 
ATOM     19  C   UNL     1      -0.013   0.045  -0.001  0.00  0.00    +0.107 C 
ATOM     20  C   UNL     1       0.845  -1.088  -0.567  0.00  0.00    +0.041 C 
BRANCH  19  21
ATOM     21  N   UNL     1      -0.112   1.122  -0.988  0.00  0.00    -0.286 N 
ATOM     22  C   UNL     1       1.003   1.740  -1.426  0.00  0.00    +0.300 C 
ATOM     23  O   UNL     1       2.091   1.403  -1.001  0.00  0.00    -0.253 OA
ATOM     24  N   UNL     1       0.912   2.731  -2.334  0.00  0.00    -0.302 N 
ATOM     25  C   UNL     1       2.124   3.403  -2.810  0.00  0.00    +0.129 C 
ATOM     26  H   UNL     1      -0.980   1.391  -1.327  0.00  0.00    +0.151 HD
ATOM     27  H   UNL     1       0.044   3.000  -2.673  0.00  0.00    +0.150 HD
ENDBRANCH  19  21
ENDBRANCH   1  19
TORSDOF 3
