REMARK  Name = ZINC59104780
REMARK  9 active torsions:
REMARK  status: ('A' for Active; 'I' for Inactive)
REMARK    1  A    between atoms: C_1  and  N_2
REMARK    2  A    between atoms: N_2  and  C_3
REMARK    3  A    between atoms: N_2  and  C_4
REMARK    4  A    between atoms: C_7  and  C_9
REMARK    5  A    between atoms: C_10  and  C_11
REMARK    6  A    between atoms: C_10  and  C_13
REMARK    7  A    between atoms: N_15  and  C_23
REMARK    8  A    between atoms: C_16  and  N_22
REMARK    9  A    between atoms: C_18  and  C_20
REMARK                            x       y       z     vdW  Elec       q    Type
REMARK                         _______ _______ _______ _____ _____    ______ ____
ROOT
ATOM      1  C   UNL     1      -0.113  -6.294  -2.444  0.00  0.00    +0.097 C 
ATOM      2  N   UNL     1      -0.160  -7.332  -1.677  0.00  0.00    -0.180 NA
ATOM      3  N   UNL     1      -0.176  -8.545  -2.362  0.00  0.00    -0.206 N 
ATOM      4  C   UNL     1      -0.134  -8.276  -3.808  0.00  0.00    +0.185 C 
ATOM      5  C   UNL     1      -0.097  -6.737  -3.890  0.00  0.00    +0.179 C 
ENDROOT
BRANCH   3   6
ATOM      6  C   UNL     1      -0.224  -9.808  -1.774  0.00  0.00    +0.053 A 
ATOM      7  C   UNL     1      -0.230 -10.948  -2.570  0.00  0.00    +0.025 A 
ATOM      8  C   UNL     1      -0.277 -12.197  -1.983  0.00  0.00    +0.002 A 
ATOM      9  C   UNL     1      -0.318 -12.315  -0.606  0.00  0.00    +0.000 A 
ATOM     10  C   UNL     1      -0.313 -11.184   0.190  0.00  0.00    +0.002 A 
ATOM     11  C   UNL     1      -0.261  -9.931  -0.389  0.00  0.00    +0.025 A 
ENDBRANCH   3   6
BRANCH   4  12
ATOM     12  N   UNL     1      -1.340  -8.797  -4.466  0.00  0.00    -0.310 NA
ATOM     13  H   UNL     1      -1.409  -9.798  -4.355  0.00  0.00    +0.120 HD
ATOM     14  H   UNL     1      -2.168  -8.337  -4.120  0.00  0.00    +0.120 HD
ENDBRANCH   4  12
BRANCH   1  16
ATOM     15  C   UNL     1      -0.042  -3.866  -2.907  0.00  0.00    +0.067 C 
ATOM     16  C   UNL     1      -0.086  -4.900  -1.984  0.00  0.00    +0.079 C 
BRANCH  15  20
ATOM     17  C   UNL     1       0.004  -0.777  -1.143  0.00  0.00    +0.203 A 
ATOM     18  C   UNL     1       0.040  -0.301  -2.422  0.00  0.00    +0.079 A 
ATOM     19  C   UNL     1       0.028  -1.407  -3.276  0.00  0.00    +0.066 A 
ATOM     20  C   UNL     1      -0.016  -2.532  -2.467  0.00  0.00    +0.133 A 
ATOM     21  O   UNL     1      -0.025  -2.119  -1.179  0.00  0.00    -0.441 OA
ATOM     22 BR   UNL     1       0.096   1.516  -2.942  0.00  0.00    -0.045 Br
BRANCH  17  24
ATOM     23  C   UNL     1      -1.266   0.362   0.637  0.00  0.00    +0.132 C 
ATOM     24  N   UNL     1       0.002  -0.004   0.002  0.00  0.00    -0.307 N 
ATOM     25  C   UNL     1       1.269   0.450   0.581  0.00  0.00    +0.132 C 
ENDBRANCH  17  24
ENDBRANCH  15  20
BRANCH  16  26
ATOM     26  C   UNL     1      -0.105  -4.608  -0.582  0.00  0.00    +0.101 C 
ATOM     27  N   UNL     1      -0.120  -4.376   0.530  0.00  0.00    -0.191 NA
ENDBRANCH  16  26
ENDBRANCH   1  16
BRANCH   5  28
ATOM     28  C   UNL     1      -1.281  -6.226  -4.600  0.00  0.00    +0.076 C 
ATOM     29  N   UNL     1      -2.195  -5.832  -5.147  0.00  0.00    -0.196 NA
ENDBRANCH   5  28
TORSDOF 7
