REMARK  Name = ZINC12940267
REMARK  2 active torsions:
REMARK  status: ('A' for Active; 'I' for Inactive)
REMARK    1  A    between atoms: C_1  and  C_2
REMARK    2  A    between atoms: C_2  and  N_3
REMARK                            x       y       z     vdW  Elec       q    Type
REMARK                         _______ _______ _______ _____ _____    ______ ____
ROOT
ATOM      1  N   UNL     1       1.085   1.973   0.002  0.00  0.00    -0.224 N 
ATOM      2  C   UNL     1       0.775   3.296   0.043  0.00  0.00    +0.251 C 
ATOM      3  O   UNL     1       1.595   4.179   0.156  0.00  0.00    -0.272 OA
ATOM      4  C   UNL     1      -0.714   3.347  -0.071  0.00  0.00    +0.138 C 
ATOM      5  C   UNL     1      -1.416   4.210   0.961  0.00  0.00    +0.040 C 
ATOM      6  C   UNL     1      -0.597   5.420   1.352  0.00  0.00    +0.003 C 
ATOM      7  C   UNL     1      -0.662   6.514   0.297  0.00  0.00    +0.005 C 
ATOM      8  C   UNL     1       0.048   6.117  -0.989  0.00  0.00    +0.035 C 
ATOM      9  C   UNL     1      -0.779   5.165  -1.821  0.00  0.00    -0.042 A 
ATOM     10  C   UNL     1      -1.112   3.898  -1.433  0.00  0.00    -0.012 A 
ATOM     11  C   UNL     1      -1.836   3.068  -2.277  0.00  0.00    +0.006 A 
ATOM     12  C   UNL     1      -2.261   3.533  -3.506  0.00  0.00    +0.000 A 
ATOM     13  C   UNL     1      -1.956   4.825  -3.892  0.00  0.00    +0.000 A 
ATOM     14  C   UNL     1      -1.215   5.636  -3.058  0.00  0.00    +0.004 A 
ATOM     15  N   UNL     1      -1.143   1.946   0.036  0.00  0.00    -0.281 N 
ATOM     16  C   UNL     1      -0.014   1.211   0.009  0.00  0.00    +0.310 C 
ATOM     17  O   UNL     1       0.002  -0.004   0.002  0.00  0.00    -0.252 OA
ATOM     18  H   UNL     1      -2.052   1.622   0.112  0.00  0.00    +0.152 HD
ENDROOT
BRANCH   1  20
ATOM     19  C   UNL     1       2.899   1.315  -1.498  0.00  0.00    +0.025 C 
ATOM     20  C   UNL     1       2.454   1.458  -0.041  0.00  0.00    +0.114 C 
ENDBRANCH   1  20
TORSDOF 1
