REMARK  Name = ZINC02573217
REMARK  9 active torsions:
REMARK  status: ('A' for Active; 'I' for Inactive)
REMARK    1  A    between atoms: C_1  and  O_2
REMARK    2  A    between atoms: O_2  and  C_3
REMARK    3  A    between atoms: C_5  and  C_10
REMARK    4  A    between atoms: C_8  and  O_9
REMARK    5  A    between atoms: C_12  and  C_36
REMARK    6  A    between atoms: C_18  and  C_22
REMARK    7  A    between atoms: C_28  and  O_35
REMARK    8  A    between atoms: C_30  and  O_34
REMARK    9  A    between atoms: C_36  and  O_37
REMARK                            x       y       z     vdW  Elec       q    Type
REMARK                         _______ _______ _______ _____ _____    ______ ____
ROOT
ATOM      1  C   UNL     1       8.798  -1.092   1.598  0.00  0.00    +0.246 C 
ATOM      2  C   UNL     1       9.220  -1.175   0.125  0.00  0.00    +0.244 C 
ATOM      3  O   UNL     1       8.047  -1.402  -0.665  0.00  0.00    -0.479 OA
ATOM      4  C   UNL     1       6.964  -0.627  -0.387  0.00  0.00    +0.163 A 
ATOM      5  C   UNL     1       5.939  -0.530  -1.317  0.00  0.00    +0.050 A 
ATOM      6  C   UNL     1       4.829   0.247  -1.045  0.00  0.00    +0.011 A 
ATOM      7  C   UNL     1       4.740   0.937   0.149  0.00  0.00    -0.003 A 
ATOM      8  C   UNL     1       5.758   0.845   1.080  0.00  0.00    +0.056 A 
ATOM      9  C   UNL     1       6.874   0.065   0.815  0.00  0.00    +0.163 A 
ATOM     10  O   UNL     1       7.871  -0.010   1.738  0.00  0.00    -0.477 OA
ENDROOT
BRANCH   7  11
ATOM     11  C   UNL     1       3.530   1.786   0.440  0.00  0.00    +0.211 C 
ATOM     12  C   UNL     1       3.666   3.136  -0.280  0.00  0.00    +0.129 C 
ATOM     13  C   UNL     1       2.408   3.932   0.019  0.00  0.00    +0.174 C 
ATOM     14  O   UNL     1       2.447   5.123   0.251  0.00  0.00    -0.292 OA
ATOM     15  C   UNL     1       1.143   3.188   0.014  0.00  0.00    +0.101 A 
ATOM     16  C   UNL     1      -0.086   3.866   0.024  0.00  0.00    +0.134 A 
ATOM     17  C   UNL     1      -1.264   3.141   0.030  0.00  0.00    +0.091 A 
ATOM     18  C   UNL     1      -1.226   1.752   0.017  0.00  0.00    +0.124 A 
ATOM     19  C   UNL     1      -0.013   1.076   0.008  0.00  0.00    +0.092 A 
ATOM     20  C   UNL     1       1.178   1.782   0.000  0.00  0.00    +0.139 A 
ATOM     21  O   UNL     1       2.357   1.118  -0.026  0.00  0.00    -0.483 OA
BRANCH  18  22
ATOM     22  O   UNL     1      -2.386   1.048   0.020  0.00  0.00    -0.507 OA
ATOM     23  H   UNL     1      -2.718   0.841   0.905  0.00  0.00    +0.292 HD
ENDBRANCH  18  22
BRANCH  16  24
ATOM     24  O   UNL     1      -0.119   5.222   0.029  0.00  0.00    -0.506 OA
ATOM     25  H   UNL     1      -0.134   5.618  -0.852  0.00  0.00    +0.292 HD
ENDBRANCH  16  24
ENDBRANCH   7  11
BRANCH   1  28
ATOM     26  C   UNL     1      11.779  -1.669   3.846  0.00  0.00    +0.162 A 
ATOM     27  C   UNL     1      10.663  -1.899   3.057  0.00  0.00    +0.056 A 
ATOM     28  C   UNL     1      10.009  -0.839   2.459  0.00  0.00    -0.000 A 
ATOM     29  C   UNL     1      10.458   0.454   2.654  0.00  0.00    +0.011 A 
ATOM     30  C   UNL     1      11.568   0.691   3.445  0.00  0.00    +0.049 A 
ATOM     31  C   UNL     1      12.232  -0.368   4.043  0.00  0.00    +0.158 A 
BRANCH  26  33
ATOM     32  C   UNL     1      11.907  -4.019   4.184  0.00  0.00    +0.277 C 
ATOM     33  O   UNL     1      12.428  -2.711   4.431  0.00  0.00    -0.491 OA
ENDBRANCH  26  33
BRANCH  31  34
ATOM     34  O   UNL     1      13.323  -0.136   4.820  0.00  0.00    -0.503 OA
ATOM     35  H   UNL     1      13.118   0.005   5.754  0.00  0.00    +0.292 HD
ENDBRANCH  31  34
ENDBRANCH   1  28
BRANCH   2  36
ATOM     36  C   UNL     1      10.202  -2.333  -0.066  0.00  0.00    +0.204 C 
BRANCH  36  37
ATOM     37  O   UNL     1      10.659  -2.352  -1.420  0.00  0.00    -0.391 OA
ATOM     38  H   UNL     1      11.286  -3.062  -1.613  0.00  0.00    +0.210 HD
ENDBRANCH  36  37
ENDBRANCH   2  36
TORSDOF 8
