REMARK  Name = ZINC04503225
REMARK  7 active torsions:
REMARK  status: ('A' for Active; 'I' for Inactive)
REMARK    1  A    between atoms: C_1  and  C_2
REMARK    2  A    between atoms: C_2  and  C_3
REMARK    3  A    between atoms: C_2  and  C_4
REMARK    4  A    between atoms: C_2  and  O_5
REMARK    5  A    between atoms: O_5  and  C_6
REMARK    6  A    between atoms: C_9  and  C_19
REMARK    7  A    between atoms: C_9  and  O_23
REMARK                            x       y       z     vdW  Elec       q    Type
REMARK                         _______ _______ _______ _____ _____    ______ ____
ROOT
ATOM      1  C   UNL     1       1.671   2.179   4.028  0.00  0.00    +0.426 C 
ATOM      2  O   UNL     1       2.040   1.130   4.517  0.00  0.00    -0.224 OA
ATOM      3  N   UNL     1       0.749   2.176   3.044  0.00  0.00    -0.117 N 
ATOM      4  C   UNL     1       0.110   0.984   2.469  0.00  0.00    +0.262 C 
ATOM      5  C   UNL     1      -0.703   1.566   1.285  0.00  0.00    +0.096 C 
ATOM      6  C   UNL     1      -0.013   1.086   0.008  0.00  0.00    +0.014 C 
ATOM      7  C   UNL     1      -0.715   1.571  -1.228  0.00  0.00    +0.001 C 
ATOM      8  C   UNL     1      -0.601   3.056  -1.432  0.00  0.00    +0.000 C 
ATOM      9  C   UNL     1      -1.630   3.865  -0.713  0.00  0.00    +0.006 C 
ATOM     10  C   UNL     1      -1.319   4.148   0.734  0.00  0.00    +0.053 C 
ATOM     11  C   UNL     1      -0.593   3.053   1.461  0.00  0.00    +0.045 C 
ATOM     12  N   UNL     1       0.247   3.300   2.403  0.00  0.00    -0.180 NA
ENDROOT
BRANCH   4  13
ATOM     13  C   UNL     1      -0.817   0.320   3.489  0.00  0.00    +0.438 C 
ATOM     14  F   UNL     1      -1.523  -0.718   2.871  0.00  0.00    -0.166 F 
ATOM     15  F   UNL     1      -0.057  -0.195   4.544  0.00  0.00    -0.166 F 
ATOM     16  F   UNL     1      -1.720   1.268   3.984  0.00  0.00    -0.166 F 
ENDBRANCH   4  13
BRANCH   4  17
ATOM     17  O   UNL     1       1.094   0.059   2.000  0.00  0.00    -0.363 OA
ATOM     18  H   UNL     1       1.630  -0.334   2.703  0.00  0.00    +0.212 HD
ENDBRANCH   4  17
BRANCH   1  19
ATOM     19  O   UNL     1       2.181   3.345   4.469  0.00  0.00    -0.443 OA
BRANCH  19  21
ATOM     20  C   UNL     1       4.369   2.451   5.055  0.00  0.00    +0.055 C 
ATOM     21  C   UNL     1       3.169   3.272   5.531  0.00  0.00    +0.107 C 
ATOM     22  C   UNL     1       3.630   4.684   5.896  0.00  0.00    +0.055 C 
ATOM     23  C   UNL     1       2.549   2.603   6.760  0.00  0.00    +0.055 C 
ENDBRANCH  19  21
ENDBRANCH   1  19
TORSDOF 4
