REMARK  Name = ZINC11028229
REMARK  7 active torsions:
REMARK  status: ('A' for Active; 'I' for Inactive)
REMARK    1  A    between atoms: C_1  and  C_2
REMARK    2  A    between atoms: C_2  and  O_3
REMARK    3  A    between atoms: O_3  and  C_4
REMARK    4  A    between atoms: N_6  and  C_7
REMARK    5  A    between atoms: C_11  and  C_18
REMARK    6  A    between atoms: C_18  and  O_19
REMARK    7  A    between atoms: O_19  and  C_20
REMARK                            x       y       z     vdW  Elec       q    Type
REMARK                         _______ _______ _______ _____ _____    ______ ____
ROOT
ATOM      1  C   UNL     1       1.145   3.175   0.016  0.00  0.00    +0.040 A 
ATOM      2  C   UNL     1       1.150   1.780   0.004  0.00  0.00    +0.024 A 
ATOM      3  C   UNL     1      -0.023   1.085   0.018  0.00  0.00    +0.014 A 
ATOM      4  C   UNL     1      -1.241   1.775   0.040  0.00  0.00    +0.024 A 
ATOM      5  C   UNL     1      -2.515   1.054   0.063  0.00  0.00    +0.007 A 
ATOM      6  C   UNL     1      -3.663   1.780   0.090  0.00  0.00    +0.099 A 
ATOM      7  C   UNL     1      -3.602   3.188   0.102  0.00  0.00    +0.338 A 
ATOM      8  O   UNL     1      -4.639   3.827   0.127  0.00  0.00    -0.245 OA
ATOM      9  O   UNL     1      -2.431   3.844   0.087  0.00  0.00    -0.422 OA
ATOM     10  C   UNL     1      -1.254   3.182   0.059  0.00  0.00    +0.141 A 
ATOM     11  C   UNL     1      -0.052   3.874   0.044  0.00  0.00    +0.070 A 
ENDROOT
BRANCH   1  14
ATOM     12  C   UNL     1       2.448   5.042  -0.664  0.00  0.00    +0.405 C 
ATOM     13  O   UNL     1       1.462   5.530  -1.179  0.00  0.00    -0.226 OA
ATOM     14  N   UNL     1       2.353   3.873   0.000  0.00  0.00    -0.251 N 
ATOM     15  H   UNL     1       3.125   3.516   0.468  0.00  0.00    +0.158 HD
BRANCH  12  16
ATOM     16  O   UNL     1       3.636   5.669  -0.756  0.00  0.00    -0.450 OA
BRANCH  16  18
ATOM     17  C   UNL     1       5.088   7.483  -1.484  0.00  0.00    +0.048 C 
ATOM     18  C   UNL     1       3.664   6.923  -1.486  0.00  0.00    +0.230 C 
ENDBRANCH  16  18
ENDBRANCH  12  16
ENDBRANCH   1  14
BRANCH   5  19
ATOM     19  C   UNL     1      -2.553  -0.453   0.049  0.00  0.00    +0.265 C 
BRANCH  19  20
ATOM     20  O   UNL     1      -3.911  -0.896   0.069  0.00  0.00    -0.486 OA
BRANCH  20  21
ATOM     21  C   UNL     1      -4.122  -2.239   0.060  0.00  0.00    +0.139 A 
ATOM     22  C   UNL     1      -3.044  -3.111   0.032  0.00  0.00    +0.050 A 
ATOM     23  C   UNL     1      -3.260  -4.476   0.023  0.00  0.00    +0.042 A 
ATOM     24  C   UNL     1      -4.552  -4.973   0.042  0.00  0.00    +0.125 A 
ATOM     25  C   UNL     1      -5.630  -4.105   0.069  0.00  0.00    +0.062 A 
ATOM     26  C   UNL     1      -5.417  -2.739   0.084  0.00  0.00    +0.085 A 
ATOM     27 CL   UNL     1      -6.768  -1.649   0.127  0.00  0.00    -0.080 Cl
ATOM     28  F   UNL     1      -4.761  -6.308   0.033  0.00  0.00    -0.205 F 
ENDBRANCH  20  21
ENDBRANCH  19  20
ENDBRANCH   5  19
TORSDOF 6
