REMARK  Name = ZINC06088254
REMARK  5 active torsions:
REMARK  status: ('A' for Active; 'I' for Inactive)
REMARK    1  A    between atoms: C_1  and  C_2
REMARK    2  A    between atoms: C_5  and  N_8
REMARK    3  A    between atoms: C_12  and  N_13
REMARK    4  A    between atoms: N_13  and  C_14
REMARK    5  A    between atoms: C_19  and  O_20
REMARK                            x       y       z     vdW  Elec       q    Type
REMARK                         _______ _______ _______ _____ _____    ______ ____
ROOT
ATOM      1  N   UNL     1       0.140  -4.171  -0.027  0.00  0.00    -0.190 N 
ATOM      2  C   UNL     1       0.247  -4.836   1.142  0.00  0.00    +0.265 C 
ATOM      3  O   UNL     1       0.382  -4.236   2.192  0.00  0.00    -0.269 OA
ATOM      4  C   UNL     1       0.195  -6.308   1.113  0.00  0.00    +0.113 C 
ATOM      5  C   UNL     1       0.298  -7.057   2.272  0.00  0.00    +0.090 C 
ATOM      6  C   UNL     1       0.029  -6.948  -0.204  0.00  0.00    +0.258 C 
ATOM      7  O   UNL     1      -0.023  -8.159  -0.308  0.00  0.00    -0.270 OA
ATOM      8  N   UNL     1      -0.065  -6.155  -1.291  0.00  0.00    -0.235 N 
ATOM      9  C   UNL     1      -0.015  -4.819  -1.190  0.00  0.00    +0.320 C 
ATOM     10  O   UNL     1      -0.109  -4.161  -2.207  0.00  0.00    -0.251 OA
ATOM     11  H   UNL     1      -0.174  -6.560  -2.165  0.00  0.00    +0.159 HD
ENDROOT
BRANCH   1  16
ATOM     12  C   UNL     1       0.327   1.501  -0.016  0.00  0.00    +0.044 C 
ATOM     13  C   UNL     1       0.277  -0.005  -0.019  0.00  0.00    -0.050 A 
ATOM     14  C   UNL     1      -0.835  -0.658  -0.519  0.00  0.00    +0.005 A 
ATOM     15  C   UNL     1      -0.883  -2.038  -0.523  0.00  0.00    +0.024 A 
ATOM     16  C   UNL     1       0.186  -2.770  -0.025  0.00  0.00    +0.046 A 
ATOM     17  C   UNL     1       1.301  -2.112   0.476  0.00  0.00    +0.024 A 
ATOM     18  C   UNL     1       1.346  -0.731   0.473  0.00  0.00    +0.005 A 
ENDBRANCH   1  16
BRANCH   5  19
ATOM     19  N   UNL     1       0.292  -6.444   3.473  0.00  0.00    -0.317 N 
ATOM     20  H   UNL     1       0.138  -5.488   3.529  0.00  0.00    +0.152 HD
BRANCH  19  21
ATOM     21  C   UNL     1       0.510  -7.188   4.639  0.00  0.00    +0.073 A 
ATOM     22  C   UNL     1       0.737  -8.554   4.560  0.00  0.00    +0.027 A 
ATOM     23  C   UNL     1       0.951  -9.286   5.712  0.00  0.00    +0.002 A 
ATOM     24  C   UNL     1       0.939  -8.660   6.945  0.00  0.00    +0.004 A 
ATOM     25  C   UNL     1       0.714  -7.299   7.032  0.00  0.00    +0.047 A 
ATOM     26  C   UNL     1       0.505  -6.556   5.881  0.00  0.00    +0.138 A 
BRANCH  26  27
ATOM     27  O   UNL     1       0.289  -5.217   5.964  0.00  0.00    -0.505 OA
ATOM     28  H   UNL     1      -0.642  -4.973   6.058  0.00  0.00    +0.292 HD
ENDBRANCH  26  27
ENDBRANCH  19  21
ENDBRANCH   5  19
TORSDOF 4
