REMARK  Name = ZINC57590533
REMARK  9 active torsions:
REMARK  status: ('A' for Active; 'I' for Inactive)
REMARK    1  A    between atoms: C_1  and  C_2
REMARK    2  A    between atoms: C_5  and  C_8
REMARK    3  A    between atoms: C_10  and  C_13
REMARK    4  A    between atoms: C_13  and  N_14
REMARK    5  A    between atoms: N_14  and  C_15
REMARK    6  A    between atoms: N_14  and  C_28
REMARK    7  A    between atoms: C_15  and  C_16
REMARK    8  A    between atoms: C_28  and  C_29
REMARK    9  A    between atoms: C_28  and  C_30
REMARK                            x       y       z     vdW  Elec       q    Type
REMARK                         _______ _______ _______ _____ _____    ______ ____
ROOT
ATOM      1  N   UNL     1      -1.134  -7.757   1.818  0.00  0.00    -0.284 NA
ENDROOT
BRANCH   1   2
ATOM      2  C   UNL     1      -1.944  -6.918   2.712  0.00  0.00    +0.051 C 
ATOM      3  C   UNL     1      -3.300  -7.586   2.948  0.00  0.00    +0.024 C 
ATOM      4  C   UNL     1      -1.219  -6.750   4.049  0.00  0.00    +0.024 C 
ENDBRANCH   1   2
BRANCH   1   5
ATOM      5  C   UNL     1       0.062  -7.037   1.361  0.00  0.00    +0.184 C 
BRANCH   5   8
ATOM      6  C   UNL     1      -0.945  -3.890  -0.140  0.00  0.00    +0.202 A 
ATOM      7  N   UNL     1      -0.609  -4.670   0.903  0.00  0.00    -0.190 NA
ATOM      8  C   UNL     1      -0.351  -5.878   0.490  0.00  0.00    +0.242 A 
ATOM      9  O   UNL     1      -0.513  -5.917  -0.839  0.00  0.00    -0.336 OA
ATOM     10  N   UNL     1      -0.906  -4.611  -1.233  0.00  0.00    -0.056 NA
BRANCH   6  15
ATOM     11  C   UNL     1      -2.349   1.688   0.155  0.00  0.00    +0.044 C 
ATOM     12  C   UNL     1      -1.982   0.229   0.078  0.00  0.00    -0.050 A 
ATOM     13  C   UNL     1      -1.979  -0.417  -1.145  0.00  0.00    +0.004 A 
ATOM     14  C   UNL     1      -1.643  -1.754  -1.221  0.00  0.00    +0.012 A 
ATOM     15  C   UNL     1      -1.307  -2.452  -0.064  0.00  0.00    +0.022 A 
ATOM     16  C   UNL     1      -1.311  -1.796   1.165  0.00  0.00    +0.012 A 
ATOM     17  C   UNL     1      -1.643  -0.458   1.230  0.00  0.00    +0.004 A 
ENDBRANCH   6  15
ENDBRANCH   5   8
ENDBRANCH   1   5
BRANCH   1  18
ATOM     18  C   UNL     1      -0.771  -9.022   2.469  0.00  0.00    +0.159 C 
BRANCH  18  19
ATOM     19  C   UNL     1      -0.401 -10.039   1.419  0.00  0.00    +0.125 A 
ATOM     20  N   UNL     1      -0.109 -11.303   1.822  0.00  0.00    -0.309 N 
ATOM     21  H   UNL     1      -0.142 -11.527   2.765  0.00  0.00    +0.170 HD
ATOM     22  C   UNL     1       0.229 -12.253   0.918  0.00  0.00    +0.259 A 
ATOM     23  O   UNL     1       0.492 -13.390   1.265  0.00  0.00    -0.267 OA
ATOM     24  C   UNL     1       0.264 -11.858  -0.498  0.00  0.00    +0.065 A 
ATOM     25  C   UNL     1       0.599 -12.760  -1.506  0.00  0.00    +0.015 A 
ATOM     26  C   UNL     1       0.616 -12.336  -2.817  0.00  0.00    +0.001 A 
ATOM     27  C   UNL     1       0.303 -11.022  -3.139  0.00  0.00    +0.002 A 
ATOM     28  C   UNL     1      -0.030 -10.116  -2.157  0.00  0.00    +0.028 A 
ATOM     29  C   UNL     1      -0.055 -10.521  -0.821  0.00  0.00    +0.078 A 
ATOM     30  N   UNL     1      -0.384  -9.663   0.177  0.00  0.00    -0.232 NA
ENDBRANCH  18  19
ENDBRANCH   1  18
TORSDOF 6
