REMARK  Name = ZINC39928481
REMARK  8 active torsions:
REMARK  status: ('A' for Active; 'I' for Inactive)
REMARK    1  A    between atoms: C_1  and  C_2
REMARK    2  A    between atoms: C_5  and  N_9
REMARK    3  A    between atoms: C_7  and  C_8
REMARK    4  A    between atoms: N_9  and  C_10
REMARK    5  A    between atoms: C_10  and  C_11
REMARK    6  A    between atoms: C_17  and  O_23
REMARK    7  A    between atoms: O_23  and  C_24
REMARK    8  A    between atoms: C_25  and  C_27
REMARK                            x       y       z     vdW  Elec       q    Type
REMARK                         _______ _______ _______ _____ _____    ______ ____
ROOT
ATOM      1  N   UNL     1      -0.372  -4.222   0.058  0.00  0.00    -0.268 N 
ATOM      2  C   UNL     1       0.065  -4.856   1.164  0.00  0.00    +0.249 C 
ATOM      3  O   UNL     1       0.355  -4.218   2.154  0.00  0.00    -0.272 OA
ENDROOT
BRANCH   1   8
ATOM      4  C   UNL     1      -0.446   1.448  -0.120  0.00  0.00    +0.044 C 
ATOM      5  C   UNL     1      -0.426  -0.058  -0.073  0.00  0.00    -0.047 A 
ATOM      6  C   UNL     1      -1.034  -0.788  -1.078  0.00  0.00    +0.005 A 
ATOM      7  C   UNL     1      -1.018  -2.168  -1.037  0.00  0.00    +0.024 A 
ATOM      8  C   UNL     1      -0.390  -2.823   0.014  0.00  0.00    +0.037 A 
ATOM      9  C   UNL     1       0.221  -2.088   1.021  0.00  0.00    +0.027 A 
ATOM     10  C   UNL     1       0.205  -0.707   0.972  0.00  0.00    -0.046 A 
ATOM     11  C   UNL     1       0.873   0.092   2.061  0.00  0.00    +0.044 C 
ENDBRANCH   1   8
BRANCH   2  12
ATOM     12  C   UNL     1       0.193  -6.357   1.171  0.00  0.00    +0.204 C 
ATOM     13  C   UNL     1       1.608  -6.779   0.701  0.00  0.00    +0.043 C 
ATOM     14  C   UNL     1       1.740  -8.171   1.375  0.00  0.00    +0.031 C 
ATOM     15  C   UNL     1       0.964  -7.971   2.695  0.00  0.00    +0.161 C 
ATOM     16  O   UNL     1       0.076  -6.861   2.511  0.00  0.00    -0.367 OA
ENDBRANCH   2  12
BRANCH   1  17
ATOM     17  C   UNL     1      -0.828  -4.997  -1.098  0.00  0.00    +0.130 C 
BRANCH  17  18
ATOM     18  C   UNL     1       0.360  -5.289  -2.018  0.00  0.00    +0.116 C 
ATOM     19  C   UNL     1      -0.059  -6.375  -2.988  0.00  0.00    -0.003 C 
ATOM     20  C   UNL     1       0.015  -6.090  -4.316  0.00  0.00    -0.007 A 
ATOM     21  C   UNL     1      -0.372  -7.086  -5.318  0.00  0.00    +0.013 A 
ATOM     22  C   UNL     1      -0.285  -6.767  -6.631  0.00  0.00    +0.046 A 
ATOM     23  C   UNL     1       0.167  -5.505  -7.046  0.00  0.00    +0.122 A 
ATOM     24  C   UNL     1       0.545  -4.528  -6.151  0.00  0.00    +0.069 A 
ATOM     25  C   UNL     1       0.488  -4.770  -4.772  0.00  0.00    +0.044 A 
ATOM     26  N   UNL     1       0.857  -3.816  -3.914  0.00  0.00    -0.284 N 
ATOM     27  C   UNL     1       0.827  -3.976  -2.603  0.00  0.00    +0.226 C 
ATOM     28  O   UNL     1       1.174  -3.069  -1.870  0.00  0.00    -0.275 OA
ATOM     29  H   UNL     1       1.161  -2.966  -4.269  0.00  0.00    +0.155 HD
BRANCH  23  30
ATOM     30  O   UNL     1       0.235  -5.238  -8.372  0.00  0.00    -0.495 OA
ATOM     31  C   UNL     1      -0.167  -6.280  -9.265  0.00  0.00    +0.277 C 
ENDBRANCH  23  30
ENDBRANCH  17  18
ENDBRANCH   1  17
TORSDOF 5
