REMARK  Name = ZINC62362126
REMARK  10 active torsions:
REMARK  status: ('A' for Active; 'I' for Inactive)
REMARK    1  A    between atoms: C_1  and  C_2
REMARK    2  A    between atoms: C_4  and  C_7
REMARK    3  A    between atoms: C_7  and  C_8
REMARK    4  A    between atoms: N_10  and  C_11
REMARK    5  A    between atoms: C_11  and  C_12
REMARK    6  A    between atoms: C_12  and  C_14
REMARK    7  A    between atoms: C_12  and  N_22
REMARK    8  A    between atoms: C_17  and  O_20
REMARK    9  A    between atoms: O_20  and  C_21
REMARK   10  A    between atoms: C_25  and  C_28
REMARK                            x       y       z     vdW  Elec       q    Type
REMARK                         _______ _______ _______ _____ _____    ______ ____
ROOT
ATOM      1  C   UNL     1      -2.304  -7.506  -2.651  0.00  0.00    -0.020 C 
ENDROOT
BRANCH   1   2
ATOM      2  N   UNL     1      -3.713  -7.105  -2.763  0.00  0.00    +0.385 N 
ATOM      3  C   UNL     1      -4.561  -8.303  -2.774  0.00  0.00    -0.078 C 
ATOM      4  C   UNL     1      -6.023  -7.896  -2.971  0.00  0.00    -0.015 C 
ATOM      5  C   UNL     1      -6.450  -6.977  -1.823  0.00  0.00    -0.018 C 
ATOM      6  C   UNL     1      -5.512  -5.767  -1.774  0.00  0.00    -0.015 C 
ATOM      7  C   UNL     1      -4.069  -6.253  -1.622  0.00  0.00    -0.078 C 
ATOM      8  C   UNL     1      -7.886  -6.502  -2.055  0.00  0.00    +0.007 C 
ATOM      9  H   UNL     1      -3.849  -6.592  -3.620  0.00  0.00    -0.081 HD
ENDBRANCH   1   2
BRANCH   1  10
ATOM     10  C   UNL     1      -1.950  -8.422  -3.794  0.00  0.00    -0.059 A 
ATOM     11  C   UNL     1      -2.435  -8.163  -5.063  0.00  0.00    +0.005 A 
ATOM     12  C   UNL     1      -2.113  -9.002  -6.112  0.00  0.00    +0.046 A 
ATOM     13  C   UNL     1      -1.302 -10.105  -5.892  0.00  0.00    +0.120 A 
ATOM     14  C   UNL     1      -0.817 -10.364  -4.618  0.00  0.00    +0.046 A 
ATOM     15  C   UNL     1      -1.137  -9.519  -3.573  0.00  0.00    +0.005 A 
BRANCH  13  16
ATOM     16  O   UNL     1      -0.984 -10.933  -6.922  0.00  0.00    -0.495 OA
ATOM     17  C   UNL     1      -0.144 -12.050  -6.622  0.00  0.00    +0.277 C 
ENDBRANCH  13  16
ENDBRANCH   1  10
BRANCH   1  18
ATOM     18  C   UNL     1      -1.415  -6.262  -2.702  0.00  0.00    +0.093 C 
BRANCH  18  21
ATOM     19  C   UNL     1       0.962  -5.732  -2.611  0.00  0.00    +0.219 C 
ATOM     20  O   UNL     1       0.686  -4.582  -2.877  0.00  0.00    -0.275 OA
ATOM     21  N   UNL     1      -0.017  -6.652  -2.501  0.00  0.00    -0.316 N 
ATOM     22  H   UNL     1       0.204  -7.572  -2.288  0.00  0.00    +0.149 HD
BRANCH  19  23
ATOM     23  C   UNL     1       2.400  -6.133  -2.404  0.00  0.00    +0.154 C 
BRANCH  23  27
ATOM     24  C   UNL     1       5.883  -2.524  -1.512  0.00  0.00    +0.089 C 
ATOM     25  C   UNL     1       4.816  -3.358  -2.174  0.00  0.00    +0.134 A 
ATOM     26  C   UNL     1       4.222  -4.447  -1.648  0.00  0.00    +0.071 A 
ATOM     27  C   UNL     1       3.288  -4.929  -2.582  0.00  0.00    +0.093 A 
ATOM     28  N   UNL     1       3.325  -4.154  -3.629  0.00  0.00    -0.083 NA
ATOM     29  O   UNL     1       4.288  -3.143  -3.388  0.00  0.00    -0.360 OA
ENDBRANCH  23  27
ENDBRANCH  19  23
ENDBRANCH  18  21
ENDBRANCH   1  18
TORSDOF 7
