REMARK  Name = ZINC62606194
REMARK  2 active torsions:
REMARK  status: ('A' for Active; 'I' for Inactive)
REMARK    1  A    between atoms: C_4  and  C_7
REMARK    2  A    between atoms: C_15  and  C_17
REMARK                            x       y       z     vdW  Elec       q    Type
REMARK                         _______ _______ _______ _____ _____    ______ ____
ROOT
ATOM      1  C   UNL     1       3.983  -0.760  -0.116  0.00  0.00    +0.192 C 
ATOM      2  C   UNL     1       4.547  -1.265  -1.416  0.00  0.00    +0.238 C 
ATOM      3  O   UNL     1       4.897  -0.455  -2.248  0.00  0.00    -0.273 OA
ATOM      4  N   UNL     1       4.680  -2.562  -1.696  0.00  0.00    -0.312 N 
ATOM      5  C   UNL     1       4.389  -3.643  -0.764  0.00  0.00    +0.123 C 
ATOM      6  C   UNL     1       3.433  -3.171   0.333  0.00  0.00    +0.127 C 
ATOM      7  N   UNL     1       3.917  -1.875   0.842  0.00  0.00    -0.284 N 
ATOM      8  C   UNL     1       4.286  -1.716   2.128  0.00  0.00    +0.220 C 
ATOM      9  O   UNL     1       4.590  -0.617   2.542  0.00  0.00    -0.275 OA
ATOM     10  H   UNL     1       4.992  -2.803  -2.582  0.00  0.00    +0.149 HD
ENDROOT
BRANCH   1  14
ATOM     11  C   UNL     1       0.061   0.801  -0.769  0.00  0.00    +0.000 A 
ATOM     12  C   UNL     1       1.034   1.595  -0.190  0.00  0.00    +0.000 A 
ATOM     13  C   UNL     1       2.303   1.089   0.022  0.00  0.00    +0.006 A 
ATOM     14  C   UNL     1       2.600  -0.210  -0.345  0.00  0.00    -0.018 A 
ATOM     15  C   UNL     1       1.627  -1.004  -0.923  0.00  0.00    +0.006 A 
ATOM     16  C   UNL     1       0.358  -0.498  -1.136  0.00  0.00    +0.000 A 
ENDBRANCH   1  14
BRANCH   8  17
ATOM     17  C   UNL     1       4.322  -2.905   3.054  0.00  0.00    +0.075 C 
ATOM     18  C   UNL     1       2.896  -3.398   3.307  0.00  0.00    +0.013 C 
ATOM     19  C   UNL     1       2.932  -4.605   4.246  0.00  0.00    +0.001 C 
ATOM     20  C   UNL     1       3.574  -4.199   5.574  0.00  0.00    +0.000 C 
ATOM     21  C   UNL     1       5.000  -3.707   5.321  0.00  0.00    +0.001 C 
ATOM     22  C   UNL     1       4.964  -2.499   4.381  0.00  0.00    +0.013 C 
ENDBRANCH   8  17
TORSDOF 2
