REMARK  Name = ZINC00876482
REMARK  7 active torsions:
REMARK  status: ('A' for Active; 'I' for Inactive)
REMARK    1  A    between atoms: C_1  and  C_2
REMARK    2  A    between atoms: C_2  and  C_3
REMARK    3  A    between atoms: C_10  and  C_15
REMARK    4  A    between atoms: C_17  and  C_30
REMARK    5  A    between atoms: C_18  and  N_29
REMARK    6  A    between atoms: C_25  and  C_27
REMARK    7  A    between atoms: C_25  and  C_28
REMARK                            x       y       z     vdW  Elec       q    Type
REMARK                         _______ _______ _______ _____ _____    ______ ____
ROOT
ATOM      1  C   UNL     1       2.511   1.162  -0.015  0.00  0.00    +0.106 C 
ATOM      2  C   UNL     1       2.574   0.305  -1.248  0.00  0.00    +0.098 C 
ATOM      3  C   UNL     1       2.327  -1.026  -1.172  0.00  0.00    +0.198 C 
ATOM      4  O   UNL     1       2.016  -1.612  -0.005  0.00  0.00    -0.445 OA
ATOM      5  C   UNL     1       2.361  -1.021   1.154  0.00  0.00    +0.115 C 
ATOM      6  C   UNL     1       2.605   0.300   1.221  0.00  0.00    +0.046 C 
ATOM      7  C   UNL     1       2.950   0.920   2.437  0.00  0.00    +0.164 C 
ATOM      8  O   UNL     1       3.175   2.114   2.455  0.00  0.00    -0.292 OA
ATOM      9  C   UNL     1       3.046   0.132   3.714  0.00  0.00    +0.086 C 
ATOM     10  C   UNL     1       2.102  -1.072   3.626  0.00  0.00    -0.021 C 
ATOM     11  C   UNL     1       2.473  -1.889   2.386  0.00  0.00    +0.081 C 
ATOM     12  C   UNL     1       0.657  -0.585   3.507  0.00  0.00    +0.012 C 
ATOM     13  C   UNL     1       2.251  -1.940   4.877  0.00  0.00    +0.012 C 
ENDROOT
BRANCH   1  21
ATOM     14  C   UNL     1      -1.337   6.007   0.044  0.00  0.00    -0.047 A 
ATOM     15  C   UNL     1      -2.514   5.271   0.052  0.00  0.00    +0.005 A 
ATOM     16  C   UNL     1      -2.482   3.893   0.045  0.00  0.00    +0.026 A 
ATOM     17  C   UNL     1      -1.259   3.231   0.031  0.00  0.00    +0.049 A 
ATOM     18  C   UNL     1      -0.068   3.981   0.023  0.00  0.00    -0.001 A 
ATOM     19  C   UNL     1      -0.124   5.379   0.030  0.00  0.00    +0.013 A 
ATOM     20  C   UNL     1       1.215   3.275   0.007  0.00  0.00    +0.020 A 
ATOM     21  C   UNL     1       1.208   1.919   0.001  0.00  0.00    +0.030 A 
ATOM     22  C   UNL     1      -0.015   1.215   0.009  0.00  0.00    +0.253 A 
ATOM     23  O   UNL     1       0.002  -0.004   0.002  0.00  0.00    -0.268 OA
ATOM     24  N   UNL     1      -1.197   1.854   0.018  0.00  0.00    -0.322 N 
ATOM     25  H   UNL     1      -2.045   1.323   0.015  0.00  0.00    +0.169 HD
BRANCH  14  27
ATOM     26  C   UNL     1      -1.405   8.016   1.497  0.00  0.00    +0.009 C 
ATOM     27  C   UNL     1      -1.398   7.513   0.052  0.00  0.00    +0.032 C 
ENDBRANCH  14  27
ENDBRANCH   1  21
BRANCH   3  28
ATOM     28  N   UNL     1       2.395  -1.789  -2.311  0.00  0.00    -0.328 N 
ATOM     29  H   UNL     1       2.619  -1.375  -3.159  0.00  0.00    +0.145 HD
ATOM     30  H   UNL     1       2.220  -2.742  -2.268  0.00  0.00    +0.145 HD
ENDBRANCH   3  28
BRANCH   2  31
ATOM     31  C   UNL     1       2.898   0.897  -2.511  0.00  0.00    +0.101 C 
ATOM     32  N   UNL     1       3.155   1.367  -3.513  0.00  0.00    -0.191 NA
ENDBRANCH   2  31
TORSDOF 4
