REMARK  Name = ZINC37192494
REMARK  4 active torsions:
REMARK  status: ('A' for Active; 'I' for Inactive)
REMARK    1  A    between atoms: C_3  and  N_20
REMARK    2  A    between atoms: C_6  and  S_7
REMARK    3  A    between atoms: S_7  and  C_8
REMARK    4  A    between atoms: C_8  and  C_9
REMARK                            x       y       z     vdW  Elec       q    Type
REMARK                         _______ _______ _______ _____ _____    ______ ____
ROOT
ATOM      1  C   UNL     1      -0.969  -2.650  -0.003  0.00  0.00    +0.148 C 
ENDROOT
BRANCH   1   2
ATOM      2  C   UNL     1      -2.178  -3.550   0.005  0.00  0.00    +0.121 A 
ATOM      3  N   UNL     1      -1.982  -4.894   0.001  0.00  0.00    -0.309 N 
ATOM      4  H   UNL     1      -1.083  -5.258  -0.006  0.00  0.00    +0.170 HD
ATOM      5  C   UNL     1      -3.055  -5.721   0.007  0.00  0.00    +0.266 A 
ATOM      6  O   UNL     1      -2.913  -6.933   0.005  0.00  0.00    -0.267 OA
ATOM      7  C   UNL     1      -4.327  -5.148   0.017  0.00  0.00    +0.102 A 
ATOM      8  C   UNL     1      -4.502  -3.753   0.021  0.00  0.00    +0.085 A 
ATOM      9  N   UNL     1      -3.351  -3.003   0.019  0.00  0.00    -0.232 NA
ATOM     10  C   UNL     1      -5.832  -3.312   0.031  0.00  0.00    +0.036 A 
ATOM     11  C   UNL     1      -6.845  -4.206   0.037  0.00  0.00    +0.048 A 
ATOM     12  S   UNL     1      -5.987  -5.772   0.028  0.00  0.00    -0.090 S 
ENDBRANCH   1   2
BRANCH   1  13
ATOM     13  S   UNL     1      -1.505  -0.917   0.012  0.00  0.00    -0.116 S 
BRANCH  13  19
ATOM     14  C   UNL     1      -0.017   1.390   0.010  0.00  0.00    +0.019 A 
ATOM     15  C   UNL     1       1.190   2.065   0.002  0.00  0.00    +0.044 A 
ATOM     16  C   UNL     1       2.374   1.337  -0.013  0.00  0.00    +0.116 A 
ATOM     17  N   UNL     1       2.355   0.013  -0.020  0.00  0.00    -0.240 NA
ATOM     18  C   UNL     1       1.222  -0.664  -0.013  0.00  0.00    +0.127 A 
ATOM     19  C   UNL     1       0.002  -0.004   0.002  0.00  0.00    +0.027 A 
BRANCH  16  20
ATOM     20  N   UNL     1       3.596   2.007  -0.022  0.00  0.00    -0.343 N 
ATOM     21  H   UNL     1       3.616   2.977  -0.017  0.00  0.00    +0.144 HD
ATOM     22  H   UNL     1       4.425   1.505  -0.033  0.00  0.00    +0.144 HD
ENDBRANCH  16  20
ENDBRANCH  13  19
ENDBRANCH   1  13
TORSDOF 4
