REMARK  Name = ZINC39466902
REMARK  5 active torsions:
REMARK  status: ('A' for Active; 'I' for Inactive)
REMARK    1  A    between atoms: C_1  and  C_2
REMARK    2  A    between atoms: C_2  and  O_3
REMARK    3  A    between atoms: O_3  and  C_4
REMARK    4  A    between atoms: P_13  and  C_23
REMARK    5  A    between atoms: C_23  and  C_24
REMARK                            x       y       z     vdW  Elec       q    Type
REMARK                         _______ _______ _______ _____ _____    ______ ____
ROOT
ATOM      1  C   UNL     1       0.802  -1.824   1.306  0.00  0.00    +0.135 C 
ATOM      2  C   UNL     1       0.281  -2.644   0.389  0.00  0.00    +0.024 C 
ATOM      3  C   UNL     1       0.417  -4.134   0.555  0.00  0.00    +0.019 C 
ATOM      4  C   UNL     1       0.331  -4.829  -0.795  0.00  0.00    -0.002 C 
ATOM      5  C   UNL     1       1.073  -6.172  -0.776  0.00  0.00    -0.020 C 
ATOM      6  C   UNL     1       0.353  -7.057  -1.805  0.00  0.00    +0.156 C 
ATOM      7  O   UNL     1       0.990  -8.342  -1.892  0.00  0.00    -0.319 OA
ATOM      8  P   UNL     1       1.249  -9.141  -0.498  0.00  0.00    +0.262 P 
ATOM      9  O   UNL     1       2.319 -10.149  -0.673  0.00  0.00    -0.274 OA
ATOM     10  N   UNL     1       1.724  -7.980   0.571  0.00  0.00    -0.291 NA
ATOM     11  N   UNL     1       1.062  -6.769   0.554  0.00  0.00    +0.397 N 
ATOM     12  C   UNL     1       1.793  -5.956   1.538  0.00  0.00    -0.046 C 
ATOM     13  C   UNL     1       1.768  -4.462   1.187  0.00  0.00    +0.006 C 
ATOM     14  C   UNL     1       1.962  -3.636   2.430  0.00  0.00    -0.001 C 
ATOM     15  C   UNL     1       1.502  -2.391   2.475  0.00  0.00    +0.079 C 
ATOM     16 CL   UNL     1       1.718  -1.436   3.909  0.00  0.00    -0.080 Cl
ATOM     17  H   UNL     1       2.445  -8.149   1.197  0.00  0.00    +0.111 HD
ATOM     18  H   UNL     1       0.108  -6.892   0.860  0.00  0.00    -0.055 HD
ENDROOT
BRANCH   1  19
ATOM     19  O   UNL     1       0.693  -0.477   1.160  0.00  0.00    -0.491 OA
BRANCH  19  21
ATOM     20  C   UNL     1      -0.019   1.526   0.010  0.00  0.00    +0.048 C 
ATOM     21  C   UNL     1       0.002  -0.004   0.002  0.00  0.00    +0.226 C 
ENDBRANCH  19  21
ENDBRANCH   1  19
BRANCH   8  22
ATOM     22  C   UNL     1      -0.287  -9.942   0.070  0.00  0.00    +0.147 C 
BRANCH  22  23
ATOM     23  C   UNL     1      -0.760 -10.919  -0.975  0.00  0.00    -0.037 A 
ATOM     24  C   UNL     1      -1.616 -10.499  -1.976  0.00  0.00    +0.004 A 
ATOM     25  C   UNL     1      -2.050 -11.395  -2.935  0.00  0.00    +0.000 A 
ATOM     26  C   UNL     1      -1.628 -12.711  -2.893  0.00  0.00    +0.000 A 
ATOM     27  C   UNL     1      -0.772 -13.130  -1.893  0.00  0.00    +0.000 A 
ATOM     28  C   UNL     1      -0.334 -12.233  -0.936  0.00  0.00    +0.004 A 
ENDBRANCH  22  23
ENDBRANCH   8  22
TORSDOF 4
