REMARK  Name = ZINC03343065
REMARK  6 active torsions:
REMARK  status: ('A' for Active; 'I' for Inactive)
REMARK    1  A    between atoms: C_1  and  N_2
REMARK    2  A    between atoms: N_2  and  C_3
REMARK    3  A    between atoms: C_11  and  C_13
REMARK    4  A    between atoms: C_13  and  O_14
REMARK    5  A    between atoms: O_14  and  C_15
REMARK    6  A    between atoms: C_15  and  C_17
REMARK                            x       y       z     vdW  Elec       q    Type
REMARK                         _______ _______ _______ _____ _____    ______ ____
ROOT
ATOM      1  O   UNL     1      -0.020  -0.834  -3.561  0.00  0.00    -0.451 OA
ENDROOT
BRANCH   1   2
ATOM      2  C   UNL     1      -0.039  -0.312  -4.803  0.00  0.00    +0.360 C 
ATOM      3  O   UNL     1      -0.057   0.892  -4.955  0.00  0.00    -0.243 OA
BRANCH   2   4
ATOM      4  C   UNL     1      -0.038  -1.207  -5.981  0.00  0.00    +0.169 A 
ATOM      5  C   UNL     1      -0.052  -0.661  -7.263  0.00  0.00    +0.093 A 
ATOM      6  C   UNL     1      -0.051  -1.513  -8.360  0.00  0.00    +0.083 A 
ATOM      7  C   UNL     1      -0.036  -2.882  -8.133  0.00  0.00    +0.097 A 
ATOM      8  C   UNL     1      -0.023  -3.355  -6.827  0.00  0.00    +0.150 A 
ATOM      9  N   UNL     1      -0.019  -2.524  -5.807  0.00  0.00    -0.226 NA
ATOM     10 CL   UNL     1      -0.004  -5.067  -6.537  0.00  0.00    -0.060 Cl
ATOM     11 CL   UNL     1      -0.034  -3.992  -9.467  0.00  0.00    -0.079 Cl
ATOM     12 CL   UNL     1      -0.068  -0.881  -9.976  0.00  0.00    -0.080 Cl
ATOM     13 CL   UNL     1      -0.071   1.061  -7.487  0.00  0.00    -0.080 Cl
ENDBRANCH   2   4
ENDBRANCH   1   2
BRANCH   1  14
ATOM     14  C   UNL     1      -0.023   0.089  -2.470  0.00  0.00    +0.328 C 
BRANCH  14  17
ATOM     15  C   UNL     1      -0.018   1.461   0.010  0.00  0.00    +0.132 C 
ATOM     16  N   UNL     1       0.002  -0.004   0.002  0.00  0.00    -0.297 N 
ATOM     17  C   UNL     1       0.000  -0.672  -1.169  0.00  0.00    +0.253 C 
ATOM     18  O   UNL     1       0.017  -1.884  -1.175  0.00  0.00    -0.272 OA
BRANCH  16  19
ATOM     19  C   UNL     1       0.024  -0.743   1.267  0.00  0.00    +0.098 C 
ATOM     20  C   UNL     1      -1.209  -0.372   2.107  0.00  0.00    +0.046 C 
ATOM     21  C   UNL     1      -1.036  -0.889   3.555  0.00  0.00    +0.168 C 
ATOM     22  S   UNL     1       0.791  -0.893   3.767  0.00  0.00    -0.029 S 
ATOM     23  O   UNL     1       1.229  -2.228   3.981  0.00  0.00    -0.174 OA
ATOM     24  O   UNL     1       1.151   0.119   4.698  0.00  0.00    -0.174 OA
ATOM     25  C   UNL     1       1.295  -0.360   2.077  0.00  0.00    +0.188 C 
ENDBRANCH  16  19
ENDBRANCH  14  17
ENDBRANCH   1  14
TORSDOF 5
