REMARK  Name = ZINC46078357
REMARK  7 active torsions:
REMARK  status: ('A' for Active; 'I' for Inactive)
REMARK    1  A    between atoms: C_1  and  C_2
REMARK    2  A    between atoms: C_6  and  N_8
REMARK    3  A    between atoms: C_9  and  C_13
REMARK    4  A    between atoms: C_13  and  N_20
REMARK    5  A    between atoms: C_16  and  C_19
REMARK    6  A    between atoms: N_20  and  C_21
REMARK    7  A    between atoms: C_26  and  C_27
REMARK                            x       y       z     vdW  Elec       q    Type
REMARK                         _______ _______ _______ _____ _____    ______ ____
ROOT
ATOM      1  C   UNL     1      -1.489  -4.630   1.368  0.00  0.00    +0.094 C 
ATOM      2  C   UNL     1      -2.479  -3.770   0.581  0.00  0.00    +0.034 C 
ATOM      3  C   UNL     1      -3.088  -4.600  -0.551  0.00  0.00    +0.006 C 
ATOM      4  C   UNL     1      -3.819  -5.808   0.039  0.00  0.00    -0.014 C 
ATOM      5  C   UNL     1      -2.829  -6.668   0.827  0.00  0.00    +0.006 C 
ATOM      6  C   UNL     1      -2.220  -5.838   1.958  0.00  0.00    +0.034 C 
ATOM      7  C   UNL     1      -4.428  -6.638  -1.093  0.00  0.00    +0.007 C 
ENDROOT
BRANCH   1   9
ATOM      8  N   UNL     1       0.372  -3.908   2.957  0.00  0.00    -0.195 N 
ATOM      9  C   UNL     1      -0.889  -3.813   2.483  0.00  0.00    +0.180 A 
ATOM     10  N   UNL     1      -1.493  -2.878   3.170  0.00  0.00    -0.111 NA
ATOM     11  N   UNL     1      -0.699  -2.377   4.047  0.00  0.00    -0.023 NA
ATOM     12  N   UNL     1       0.453  -2.954   3.986  0.00  0.00    -0.039 NA
BRANCH   8  18
ATOM     13  C   UNL     1       5.059  -4.643   1.659  0.00  0.00    +0.044 C 
ATOM     14  C   UNL     1       3.662  -5.160   1.885  0.00  0.00    -0.048 A 
ATOM     15  C   UNL     1       3.374  -6.494   1.661  0.00  0.00    +0.003 A 
ATOM     16  C   UNL     1       2.094  -6.972   1.866  0.00  0.00    +0.002 A 
ATOM     17  C   UNL     1       1.097  -6.118   2.296  0.00  0.00    +0.028 A 
ATOM     18  C   UNL     1       1.382  -4.778   2.521  0.00  0.00    +0.069 A 
ATOM     19  C   UNL     1       2.670  -4.302   2.319  0.00  0.00    +0.031 A 
ENDBRANCH   8  18
ENDBRANCH   1   9
BRANCH   1  20
ATOM     20  N   UNL     1      -0.425  -5.093   0.474  0.00  0.00    -0.331 N 
ATOM     21  H   UNL     1      -0.283  -6.043   0.340  0.00  0.00    +0.147 HD
BRANCH  20  22
ATOM     22  C   UNL     1       0.386  -4.165  -0.184  0.00  0.00    +0.031 A 
ATOM     23  C   UNL     1       0.274  -2.811   0.107  0.00  0.00    +0.023 A 
ATOM     24  C   UNL     1       1.077  -1.897  -0.545  0.00  0.00    +0.002 A 
ATOM     25  C   UNL     1       1.992  -2.328  -1.489  0.00  0.00    +0.000 A 
ATOM     26  C   UNL     1       2.106  -3.674  -1.782  0.00  0.00    +0.005 A 
ATOM     27  C   UNL     1       1.310  -4.595  -1.128  0.00  0.00    -0.030 A 
ATOM     28  C   UNL     1       1.440  -6.063  -1.443  0.00  0.00    +0.045 C 
ENDBRANCH  20  22
ENDBRANCH   1  20
TORSDOF 4
