REMARK  Name = ZINC48815561
REMARK  4 active torsions:
REMARK  status: ('A' for Active; 'I' for Inactive)
REMARK    1  A    between atoms: C_1  and  C_2
REMARK    2  A    between atoms: C_13  and  C_15
REMARK    3  A    between atoms: C_15  and  C_16
REMARK    4  A    between atoms: C_20  and  O_22
REMARK                            x       y       z     vdW  Elec       q    Type
REMARK                         _______ _______ _______ _____ _____    ______ ____
ROOT
ATOM      1  C   UNL     1      -0.345   1.317   0.113  0.00  0.00    +0.028 C 
ATOM      2  C   UNL     1      -0.402  -0.198   0.325  0.00  0.00    +0.079 C 
ATOM      3  C   UNL     1      -0.069  -0.919  -0.988  0.00  0.00    +0.027 C 
ATOM      4  C   UNL     1      -0.200  -2.426  -0.770  0.00  0.00    +0.039 C 
ATOM      5  C   UNL     1       0.589  -2.855   0.440  0.00  0.00    -0.026 A 
ATOM      6  C   UNL     1       0.957  -4.184   0.563  0.00  0.00    +0.005 A 
ATOM      7  C   UNL     1       1.679  -4.609   1.661  0.00  0.00    +0.000 A 
ATOM      8  C   UNL     1       2.038  -3.708   2.647  0.00  0.00    +0.002 A 
ATOM      9  C   UNL     1       1.675  -2.381   2.532  0.00  0.00    +0.024 A 
ATOM     10  C   UNL     1       0.950  -1.951   1.426  0.00  0.00    +0.040 A 
ATOM     11  N   UNL     1       0.598  -0.598   1.324  0.00  0.00    -0.268 N 
ATOM     12  C   UNL     1       1.169   0.321   2.128  0.00  0.00    +0.224 C 
ATOM     13  O   UNL     1       2.132   0.023   2.803  0.00  0.00    -0.275 OA
ENDROOT
BRANCH  12  14
ATOM     14  C   UNL     1       0.611   1.720   2.189  0.00  0.00    +0.131 C 
BRANCH  14  15
ATOM     15  C   UNL     1       1.237   2.461   3.342  0.00  0.00    -0.035 A 
ATOM     16  C   UNL     1       0.651   2.414   4.594  0.00  0.00    +0.004 A 
ATOM     17  C   UNL     1       1.223   3.093   5.654  0.00  0.00    +0.004 A 
ATOM     18  C   UNL     1       2.382   3.820   5.465  0.00  0.00    +0.045 A 
ATOM     19  C   UNL     1       2.973   3.868   4.210  0.00  0.00    +0.117 A 
ATOM     20  C   UNL     1       2.400   3.181   3.150  0.00  0.00    +0.049 A 
BRANCH  19  21
ATOM     21  O   UNL     1       4.114   4.582   4.022  0.00  0.00    -0.507 OA
ATOM     22  H   UNL     1       4.924   4.075   4.166  0.00  0.00    +0.292 HD
ENDBRANCH  19  21
ENDBRANCH  14  15
ENDBRANCH  12  14
TORSDOF 3
