REMARK  Name = ZINC67537957
REMARK  6 active torsions:
REMARK  status: ('A' for Active; 'I' for Inactive)
REMARK    1  A    between atoms: C_1  and  C_2
REMARK    2  A    between atoms: C_2  and  C_4
REMARK    3  A    between atoms: C_2  and  N_12
REMARK    4  A    between atoms: N_15  and  C_16
REMARK    5  A    between atoms: C_19  and  C_22
REMARK    6  A    between atoms: N_24  and  C_25
REMARK                            x       y       z     vdW  Elec       q    Type
REMARK                         _______ _______ _______ _____ _____    ______ ____
ROOT
ATOM      1  N   UNL     1      -1.418  -0.668   0.286  0.00  0.00    -0.288 N 
ATOM      2  C   UNL     1      -2.138  -0.754  -0.850  0.00  0.00    +0.304 C 
ATOM      3  O   UNL     1      -1.675  -0.341  -1.896  0.00  0.00    -0.252 OA
ATOM      4  N   UNL     1      -3.372  -1.296  -0.827  0.00  0.00    -0.269 N 
ATOM      5  H   UNL     1      -1.788  -0.997   1.120  0.00  0.00    +0.151 HD
ATOM      6  H   UNL     1      -3.713  -1.690  -0.009  0.00  0.00    +0.156 HD
ENDROOT
BRANCH   4   7
ATOM      7  C   UNL     1      -4.157  -1.292  -1.980  0.00  0.00    +0.035 A 
ATOM      8  C   UNL     1      -3.562  -1.466  -3.225  0.00  0.00    +0.024 A 
ATOM      9  C   UNL     1      -4.334  -1.462  -4.365  0.00  0.00    +0.015 A 
ATOM     10  C   UNL     1      -5.717  -1.285  -4.269  0.00  0.00    +0.037 A 
ATOM     11  C   UNL     1      -6.311  -1.112  -3.017  0.00  0.00    +0.015 A 
ATOM     12  C   UNL     1      -5.534  -1.121  -1.881  0.00  0.00    +0.024 A 
BRANCH  10  13
ATOM     13  C   UNL     1      -6.548  -1.280  -5.489  0.00  0.00    +0.244 C 
ATOM     14  O   UNL     1      -6.029  -1.431  -6.579  0.00  0.00    -0.270 OA
ATOM     15  N   UNL     1      -7.881  -1.110  -5.395  0.00  0.00    -0.314 N 
ATOM     16  C   UNL     1      -8.706  -1.105  -6.606  0.00  0.00    +0.128 C 
ATOM     17  H   UNL     1      -8.295  -0.990  -4.526  0.00  0.00    +0.149 HD
ENDBRANCH  10  13
ENDBRANCH   4   7
BRANCH   1  19
ATOM     18  C   UNL     1      -0.187   1.442   0.389  0.00  0.00    +0.038 C 
ATOM     19  C   UNL     1      -0.077  -0.078   0.261  0.00  0.00    +0.157 C 
BRANCH  19  20
ATOM     20  C   UNL     1       0.732  -0.622   1.409  0.00  0.00    +0.236 C 
ATOM     21  O   UNL     1       0.172  -1.081   2.383  0.00  0.00    -0.274 OA
ATOM     22  N   UNL     1       2.079  -0.599   1.355  0.00  0.00    -0.298 N 
ATOM     23  C   UNL     1       2.746   0.065   0.234  0.00  0.00    +0.118 C 
ATOM     24  C   UNL     1       3.513   1.288   0.748  0.00  0.00    +0.088 C 
ATOM     25  S   UNL     1       4.689   0.744   2.024  0.00  0.00    -0.158 S 
ATOM     26  C   UNL     1       3.637  -0.170   3.193  0.00  0.00    +0.088 C 
ATOM     27  C   UNL     1       2.856  -1.233   2.421  0.00  0.00    +0.118 C 
ENDBRANCH  19  20
ENDBRANCH   1  19
TORSDOF 4
