REMARK  Name = ZINC44450116
REMARK  3 active torsions:
REMARK  status: ('A' for Active; 'I' for Inactive)
REMARK    1  A    between atoms: C_6  and  C_7
REMARK    2  A    between atoms: C_7  and  N_8
REMARK    3  A    between atoms: N_11  and  C_12
REMARK                            x       y       z     vdW  Elec       q    Type
REMARK                         _______ _______ _______ _____ _____    ______ ____
ROOT
ATOM      1  N   UNL     1      -1.726  -1.017  -1.368  0.00  0.00    -0.295 N 
ATOM      2  C   UNL     1      -2.867  -1.694  -1.606  0.00  0.00    +0.306 C 
ATOM      3  O   UNL     1      -3.537  -2.103  -0.678  0.00  0.00    -0.252 OA
ATOM      4  N   UNL     1      -3.266  -1.917  -2.874  0.00  0.00    -0.238 N 
ATOM      5  H   UNL     1      -1.192  -0.691  -2.108  0.00  0.00    +0.151 HD
ATOM      6  H   UNL     1      -2.731  -1.590  -3.615  0.00  0.00    +0.159 HD
ENDROOT
BRANCH   4   7
ATOM      7  C   UNL     1      -4.440  -2.613  -3.120  0.00  0.00    +0.229 A 
ATOM      8  C   UNL     1      -4.957  -2.913  -4.356  0.00  0.00    +0.048 A 
ATOM      9  C   UNL     1      -6.139  -3.617  -4.165  0.00  0.00    +0.099 A 
ATOM     10  N   UNL     1      -6.337  -3.742  -2.865  0.00  0.00    -0.080 NA
ATOM     11  O   UNL     1      -5.266  -3.115  -2.194  0.00  0.00    -0.339 OA
ATOM     12  C   UNL     1      -6.888  -4.054  -5.422  0.00  0.00    +0.128 C 
ATOM     13  S   UNL     1      -6.095  -3.014  -6.715  0.00  0.00    -0.150 S 
ATOM     14  C   UNL     1      -4.538  -2.657  -5.802  0.00  0.00    +0.111 C 
ENDBRANCH   4   7
BRANCH   1  15
ATOM     15  C   UNL     1      -1.293  -0.775   0.011  0.00  0.00    +0.141 C 
BRANCH  15  21
ATOM     16  C   UNL     1      -0.017   1.378   0.010  0.00  0.00    +0.006 A 
ATOM     17  C   UNL     1       1.171   2.086   0.002  0.00  0.00    +0.020 A 
ATOM     18  C   UNL     1       2.378   1.410  -0.013  0.00  0.00    +0.041 A 
ATOM     19  C   UNL     1       2.396   0.027  -0.021  0.00  0.00    +0.020 A 
ATOM     20  C   UNL     1       1.208  -0.679  -0.013  0.00  0.00    +0.006 A 
ATOM     21  C   UNL     1       0.002  -0.004   0.002  0.00  0.00    -0.030 A 
ATOM     22 CL   UNL     1       3.870   2.298  -0.023  0.00  0.00    -0.084 Cl
ENDBRANCH  15  21
ENDBRANCH   1  15
TORSDOF 3
