REMARK  Name = ZINC08177871
REMARK  3 active torsions:
REMARK  status: ('A' for Active; 'I' for Inactive)
REMARK    1  A    between atoms: C_1  and  C_2
REMARK    2  A    between atoms: C_18  and  C_21
REMARK    3  A    between atoms: C_21  and  O_22
REMARK                            x       y       z     vdW  Elec       q    Type
REMARK                         _______ _______ _______ _____ _____    ______ ____
ROOT
ATOM      1  C   UNL     1       0.181   2.863   6.679  0.00  0.00    +0.088 C 
ATOM      2  C   UNL     1      -0.070   2.386   5.272  0.00  0.00    +0.129 A 
ATOM      3  N   UNL     1       0.931   1.881   4.573  0.00  0.00    -0.217 NA
ATOM      4  C   UNL     1       0.775   1.445   3.333  0.00  0.00    +0.133 A 
ATOM      5  C   UNL     1      -0.511   1.523   2.732  0.00  0.00    +0.051 A 
ATOM      6  C   UNL     1      -0.916   1.104   1.380  0.00  0.00    -0.025 A 
ATOM      7  C   UNL     1      -2.206   1.286   1.046  0.00  0.00    -0.004 A 
ATOM      8  S   UNL     1      -2.958   2.013   2.484  0.00  0.00    -0.073 S 
ATOM      9  C   UNL     1      -1.526   2.072   3.535  0.00  0.00    +0.114 A 
ATOM     10  N   UNL     1      -1.284   2.484   4.766  0.00  0.00    -0.225 NA
ATOM     11  C   UNL     1      -2.501   0.825  -0.356  0.00  0.00    +0.043 C 
ATOM     12  C   UNL     1      -1.115   0.719  -1.029  0.00  0.00    +0.010 C 
ATOM     13  C   UNL     1      -0.197   0.474   0.184  0.00  0.00    +0.037 C 
ATOM     14  N   UNL     1       1.847   0.921   2.633  0.00  0.00    -0.314 N 
ATOM     15  C   UNL     1       2.591   1.981   1.940  0.00  0.00    +0.106 C 
ATOM     16  C   UNL     1       3.676   1.354   1.062  0.00  0.00    +0.019 C 
ATOM     17  C   UNL     1       4.623   0.531   1.940  0.00  0.00    +0.009 C 
ATOM     18  C   UNL     1       3.816  -0.534   2.688  0.00  0.00    +0.032 C 
ATOM     19  C   UNL     1       2.727   0.147   3.518  0.00  0.00    +0.112 C 
ENDROOT
BRANCH  18  20
ATOM     20  C   UNL     1       4.745  -1.323   3.613  0.00  0.00    +0.160 C 
BRANCH  20  21
ATOM     21  O   UNL     1       5.692  -2.052   2.829  0.00  0.00    -0.395 OA
ATOM     22  H   UNL     1       6.314  -2.577   3.351  0.00  0.00    +0.209 HD
ENDBRANCH  20  21
ENDBRANCH  18  20
TORSDOF 2
