REMARK  Name = ZINC63271089
REMARK  6 active torsions:
REMARK  status: ('A' for Active; 'I' for Inactive)
REMARK    1  A    between atoms: C_11  and  C_13
REMARK    2  A    between atoms: C_13  and  C_14
REMARK    3  A    between atoms: C_14  and  C_15
REMARK    4  A    between atoms: C_15  and  C_16
REMARK    5  A    between atoms: C_16  and  C_17
REMARK    6  A    between atoms: C_17  and  N_18
REMARK                            x       y       z     vdW  Elec       q    Type
REMARK                         _______ _______ _______ _____ _____    ______ ____
ROOT
ATOM      1  N   UNL     1      10.078  -3.392   5.774  0.00  0.00    -0.299 N 
ATOM      2  C   UNL     1      11.133  -2.952   6.488  0.00  0.00    +0.302 C 
ATOM      3  O   UNL     1      11.524  -1.809   6.353  0.00  0.00    -0.253 OA
ATOM      4  N   UNL     1      11.755  -3.780   7.351  0.00  0.00    -0.283 N 
ATOM      5  C   UNL     1      11.356  -5.189   7.419  0.00  0.00    +0.114 C 
ATOM      6  C   UNL     1      12.578  -6.082   7.133  0.00  0.00    +0.052 C 
ATOM      7  C   UNL     1      13.721  -5.523   7.943  0.00  0.00    -0.036 C 
ATOM      8  C   UNL     1      14.557  -6.101   8.796  0.00  0.00    -0.001 A 
ATOM      9  C   UNL     1      14.746  -7.510   9.181  0.00  0.00    +0.010 A 
ATOM     10  C   UNL     1      15.699  -7.752  10.120  0.00  0.00    +0.001 A 
ATOM     11  C   UNL     1      16.474  -6.747  10.707  0.00  0.00    +0.002 A 
ATOM     12  C   UNL     1      16.373  -5.427  10.407  0.00  0.00    +0.026 A 
ATOM     13  C   UNL     1      15.410  -5.048   9.427  0.00  0.00    +0.043 A 
ATOM     14  N   UNL     1      15.122  -3.878   8.939  0.00  0.00    -0.376 N 
ATOM     15  C   UNL     1      14.103  -4.048   7.902  0.00  0.00    +0.124 C 
ATOM     16  C   UNL     1      12.831  -3.261   8.210  0.00  0.00    +0.138 C 
ATOM     17  H   UNL     1       9.810  -4.323   5.827  0.00  0.00    +0.150 HD
ATOM     18  H   UNL     1      15.515  -3.035   9.215  0.00  0.00    +0.160 HD
ENDROOT
BRANCH   1  19
ATOM     19  C   UNL     1       9.334  -2.463   4.919  0.00  0.00    +0.106 C 
BRANCH  19  20
ATOM     20  C   UNL     1       8.194  -3.211   4.226  0.00  0.00    +0.019 C 
BRANCH  20  21
ATOM     21  C   UNL     1       7.417  -2.242   3.332  0.00  0.00    +0.002 C 
BRANCH  21  22
ATOM     22  C   UNL     1       6.276  -2.990   2.639  0.00  0.00    +0.009 C 
BRANCH  22  23
ATOM     23  C   UNL     1       5.500  -2.020   1.746  0.00  0.00    +0.096 C 
BRANCH  23  34
ATOM     24  C   UNL     1      -0.022   1.394   0.031  0.00  0.00    +0.000 A 
ATOM     25  C   UNL     1       1.170   2.094   0.019  0.00  0.00    +0.000 A 
ATOM     26  C   UNL     1       2.367   1.408  -0.004  0.00  0.00    +0.005 A 
ATOM     27  C   UNL     1       2.382   0.019  -0.011  0.00  0.00    -0.027 A 
ATOM     28  C   UNL     1       1.197  -0.679   0.011  0.00  0.00    -0.041 A 
ATOM     29  C   UNL     1      -0.007   0.015   0.027  0.00  0.00    +0.004 A 
ATOM     30  C   UNL     1       1.135  -2.184   0.036  0.00  0.00    +0.054 C 
ATOM     31  C   UNL     1       2.446  -2.790  -0.461  0.00  0.00    +0.113 C 
ATOM     32  N   UNL     1       3.553  -2.100   0.222  0.00  0.00    -0.297 N 
ATOM     33  C   UNL     1       3.724  -0.668  -0.050  0.00  0.00    +0.143 C 
ATOM     34  C   UNL     1       4.376  -2.757   1.063  0.00  0.00    +0.216 C 
ATOM     35  O   UNL     1       4.213  -3.940   1.270  0.00  0.00    -0.276 OA
ENDBRANCH  23  34
ENDBRANCH  22  23
ENDBRANCH  21  22
ENDBRANCH  20  21
ENDBRANCH  19  20
ENDBRANCH   1  19
TORSDOF 6
