REMARK  Name = ZINC56924503
REMARK  3 active torsions:
REMARK  status: ('A' for Active; 'I' for Inactive)
REMARK    1  A    between atoms: C_1  and  C_2
REMARK    2  A    between atoms: C_4  and  C_26
REMARK    3  A    between atoms: C_11  and  C_14
REMARK                            x       y       z     vdW  Elec       q    Type
REMARK                         _______ _______ _______ _____ _____    ______ ____
ROOT
ATOM      1  C   UNL     1      -0.110   1.496   0.009  0.00  0.00    +0.066 C 
ATOM      2  C   UNL     1      -0.447   0.027   0.030  0.00  0.00    +0.044 A 
ATOM      3  C   UNL     1      -0.765  -0.637  -1.145  0.00  0.00    +0.046 A 
ATOM      4  C   UNL     1      -1.068  -1.988  -1.081  0.00  0.00    +0.044 A 
ATOM      5  N   UNL     1      -1.045  -2.599   0.092  0.00  0.00    -0.219 NA
ATOM      6  C   UNL     1      -0.737  -1.936   1.196  0.00  0.00    +0.221 A 
ATOM      7  N   UNL     1      -0.437  -0.645   1.169  0.00  0.00    -0.219 NA
ATOM      8  N   UNL     1      -0.722  -2.608   2.408  0.00  0.00    -0.263 N 
ATOM      9  C   UNL     1      -0.402  -1.929   3.574  0.00  0.00    +0.165 A 
ATOM     10  N   UNL     1      -0.328  -2.385   4.808  0.00  0.00    -0.220 NA
ATOM     11  C   UNL     1      -0.001  -1.582   5.823  0.00  0.00    +0.135 A 
ATOM     12  C   UNL     1       0.262  -0.259   5.568  0.00  0.00    +0.081 A 
ATOM     13  S   UNL     1       0.028  -0.209   3.796  0.00  0.00    -0.060 S 
ATOM     14  C   UNL     1      -1.421  -2.750  -2.332  0.00  0.00    +0.066 C 
ATOM     15  H   UNL     1      -0.936  -3.554   2.440  0.00  0.00    +0.157 HD
ENDROOT
BRANCH  11  16
ATOM     16  C   UNL     1       0.076  -2.107   7.196  0.00  0.00    +0.266 C 
ATOM     17  O   UNL     1       0.208  -1.343   8.133  0.00  0.00    -0.268 OA
ATOM     18  N   UNL     1       0.000  -3.435   7.414  0.00  0.00    -0.296 N 
ATOM     19  C   UNL     1      -0.098  -3.965   8.781  0.00  0.00    +0.113 C 
ATOM     20  C   UNL     1       1.016  -4.996   8.992  0.00  0.00    +0.084 C 
ATOM     21  C   UNL     1       0.935  -6.059   7.895  0.00  0.00    +0.173 C 
ATOM     22  C   UNL     1       1.126  -5.409   6.523  0.00  0.00    +0.084 C 
ATOM     23  C   UNL     1       0.008  -4.381   6.290  0.00  0.00    +0.113 C 
ATOM     24  O   UNL     1      -0.342  -6.708   7.946  0.00  0.00    -0.346 OA
ATOM     25  C   UNL     1      -0.101  -8.106   8.208  0.00  0.00    +0.191 C 
ATOM     26  C   UNL     1       1.313  -8.106   8.839  0.00  0.00    +0.191 C 
ATOM     27  O   UNL     1       1.963  -7.041   8.105  0.00  0.00    -0.346 OA
ENDBRANCH  11  16
TORSDOF 1
