REMARK  Name = ZINC37789089
REMARK  6 active torsions:
REMARK  status: ('A' for Active; 'I' for Inactive)
REMARK    1  A    between atoms: C_1  and  O_2
REMARK    2  A    between atoms: O_2  and  C_3
REMARK    3  A    between atoms: C_3  and  C_5
REMARK    4  A    between atoms: C_10  and  N_11
REMARK    5  A    between atoms: C_12  and  C_14
REMARK    6  A    between atoms: C_17  and  C_19
REMARK                            x       y       z     vdW  Elec       q    Type
REMARK                         _______ _______ _______ _____ _____    ______ ____
ROOT
ATOM      1  C   UNL     1      -0.286   0.535  -1.705  0.00  0.00    +0.082 A 
ATOM      2  C   UNL     1      -0.788   0.400  -0.408  0.00  0.00    +0.032 A 
ATOM      3  C   UNL     1      -0.130  -0.396   0.505  0.00  0.00    +0.020 A 
ATOM      4  C   UNL     1       1.030  -1.063   0.143  0.00  0.00    +0.032 A 
ATOM      5  C   UNL     1       1.539  -0.939  -1.135  0.00  0.00    +0.041 A 
ATOM      6  C   UNL     1       0.885  -0.146  -2.070  0.00  0.00    +0.062 A 
ATOM      7 BR   UNL     1       3.122  -1.854  -1.615  0.00  0.00    -0.048 Br
ATOM      8 BR   UNL     1      -0.811  -0.578   2.260  0.00  0.00    -0.050 Br
ENDROOT
BRANCH   6   9
ATOM      9  N   UNL     1       1.393  -0.024  -3.361  0.00  0.00    -0.284 N 
ATOM     10  C   UNL     1       1.777  -1.122  -4.041  0.00  0.00    +0.221 C 
ATOM     11  O   UNL     1       1.623  -2.222  -3.554  0.00  0.00    -0.275 OA
ATOM     12  H   UNL     1       1.470   0.852  -3.771  0.00  0.00    +0.155 HD
BRANCH  10  13
ATOM     13  C   UNL     1       2.398  -0.983  -5.407  0.00  0.00    +0.090 C 
ATOM     14  C   UNL     1       2.316  -2.189  -6.346  0.00  0.00    +0.029 C 
ATOM     15  C   UNL     1       1.455  -0.952  -6.612  0.00  0.00    +0.115 C 
BRANCH  15  16
ATOM     16  C   UNL     1      -0.024  -1.062  -6.341  0.00  0.00    +0.360 C 
ATOM     17  O   UNL     1      -0.755  -0.109  -6.553  0.00  0.00    -0.246 OA
ATOM     18  O   UNL     1      -0.489  -2.103  -5.911  0.00  0.00    -0.246 OA
ENDBRANCH  15  16
ENDBRANCH  10  13
ENDBRANCH   6   9
BRANCH   1  19
ATOM     19  C   UNL     1      -0.986   1.384  -2.686  0.00  0.00    +0.341 C 
ATOM     20  O   UNL     1      -0.609   1.415  -3.841  0.00  0.00    -0.245 OA
BRANCH  19  22
ATOM     21  C   UNL     1      -2.673   2.925  -3.305  0.00  0.00    +0.280 C 
ATOM     22  O   UNL     1      -2.043   2.126  -2.302  0.00  0.00    -0.464 OA
ENDBRANCH  19  22
ENDBRANCH   1  19
TORSDOF 5
