REMARK  Name = ZINC12714828
REMARK  8 active torsions:
REMARK  status: ('A' for Active; 'I' for Inactive)
REMARK    1  A    between atoms: C_1  and  C_2
REMARK    2  A    between atoms: C_2  and  O_3
REMARK    3  A    between atoms: O_3  and  C_4
REMARK    4  A    between atoms: C_9  and  N_12
REMARK    5  A    between atoms: C_16  and  C_19
REMARK    6  A    between atoms: C_19  and  C_21
REMARK    7  A    between atoms: C_26  and  O_27
REMARK    8  A    between atoms: O_27  and  C_28
REMARK                            x       y       z     vdW  Elec       q    Type
REMARK                         _______ _______ _______ _____ _____    ______ ____
ROOT
ATOM      1  N   UNL     1       5.017  -3.649   4.127  0.00  0.00    +0.382 N 
ATOM      2  C   UNL     1       5.550  -2.856   5.241  0.00  0.00    -0.078 C 
ATOM      3  C   UNL     1       7.040  -3.158   5.419  0.00  0.00    -0.018 C 
ATOM      4  C   UNL     1       7.221  -4.649   5.718  0.00  0.00    +0.008 C 
ATOM      5  C   UNL     1       6.595  -5.466   4.585  0.00  0.00    +0.044 C 
ATOM      6  C   UNL     1       5.122  -5.080   4.438  0.00  0.00    -0.067 C 
ATOM      7  H   UNL     1       5.544  -3.448   3.291  0.00  0.00    -0.081 HD
ENDROOT
BRANCH   1  13
ATOM      8  C   UNL     1       0.801  -1.812   1.304  0.00  0.00    +0.403 C 
ATOM      9  O   UNL     1       0.321  -2.554   0.470  0.00  0.00    -0.226 OA
ATOM     10  N   UNL     1       1.441  -2.324   2.374  0.00  0.00    -0.268 N 
ATOM     11  C   UNL     1       2.021  -1.440   3.394  0.00  0.00    +0.109 C 
ATOM     12  C   UNL     1       3.495  -1.808   3.585  0.00  0.00    +0.004 C 
ATOM     13  C   UNL     1       3.607  -3.299   3.910  0.00  0.00    -0.066 C 
ATOM     14  C   UNL     1       3.051  -4.120   2.744  0.00  0.00    +0.004 C 
ATOM     15  C   UNL     1       1.567  -3.778   2.546  0.00  0.00    +0.109 C 
BRANCH   8  16
ATOM     16  O   UNL     1       0.693  -0.477   1.160  0.00  0.00    -0.451 OA
BRANCH  16  18
ATOM     17  C   UNL     1      -0.019   1.526   0.010  0.00  0.00    +0.048 C 
ATOM     18  C   UNL     1       0.002  -0.004   0.002  0.00  0.00    +0.230 C 
ENDBRANCH  16  18
ENDBRANCH   8  16
ENDBRANCH   1  13
BRANCH   5  19
ATOM     19  C   UNL     1       6.701  -6.935   4.907  0.00  0.00    +0.168 C 
ATOM     20  O   UNL     1       5.775  -7.507   5.441  0.00  0.00    -0.292 OA
BRANCH  19  21
ATOM     21  C   UNL     1       7.925  -7.673   4.573  0.00  0.00    +0.062 A 
ATOM     22  C   UNL     1       9.000  -7.015   3.961  0.00  0.00    +0.053 A 
ATOM     23  C   UNL     1      10.146  -7.716   3.651  0.00  0.00    +0.124 A 
ATOM     24  C   UNL     1      10.240  -9.069   3.943  0.00  0.00    +0.042 A 
ATOM     25  C   UNL     1       9.188  -9.729   4.546  0.00  0.00    +0.049 A 
ATOM     26  C   UNL     1       8.029  -9.041   4.870  0.00  0.00    +0.131 A 
ATOM     27  F   UNL     1      11.182  -7.081   3.060  0.00  0.00    -0.205 F 
BRANCH  26  28
ATOM     28  O   UNL     1       6.997  -9.688   5.468  0.00  0.00    -0.494 OA
ATOM     29  C   UNL     1       7.175 -11.080   5.740  0.00  0.00    +0.277 C 
ENDBRANCH  26  28
ENDBRANCH  19  21
ENDBRANCH   5  19
TORSDOF 6
