REMARK  Name = ZINC01181420
REMARK  8 active torsions:
REMARK  status: ('A' for Active; 'I' for Inactive)
REMARK    1  A    between atoms: C_1  and  C_2
REMARK    2  A    between atoms: C_6  and  C_24
REMARK    3  A    between atoms: C_7  and  N_8
REMARK    4  A    between atoms: N_8  and  C_9
REMARK    5  A    between atoms: C_9  and  N_11
REMARK    6  A    between atoms: C_12  and  C_14
REMARK    7  A    between atoms: C_18  and  N_21
REMARK    8  A    between atoms: C_19  and  C_20
REMARK                            x       y       z     vdW  Elec       q    Type
REMARK                         _______ _______ _______ _____ _____    ______ ____
ROOT
ATOM      1  N   UNL     1       0.063   4.183  -0.358  0.00  0.00    -0.264 N 
ATOM      2  C   UNL     1       0.713   3.509  -1.327  0.00  0.00    +0.250 C 
ATOM      3  O   UNL     1       1.350   4.115  -2.166  0.00  0.00    -0.270 OA
ATOM      4  H   UNL     1      -0.446   3.699   0.311  0.00  0.00    +0.157 HD
ENDROOT
BRANCH   2   5
ATOM      5  C   UNL     1       0.649   2.033  -1.371  0.00  0.00    +0.042 A 
ATOM      6  C   UNL     1      -0.182   1.341  -0.489  0.00  0.00    +0.013 A 
ATOM      7  C   UNL     1      -0.237  -0.037  -0.535  0.00  0.00    +0.003 A 
ATOM      8  C   UNL     1       0.530  -0.733  -1.452  0.00  0.00    +0.033 A 
ATOM      9  C   UNL     1       1.357  -0.053  -2.330  0.00  0.00    +0.130 A 
ATOM     10  C   UNL     1       1.420   1.325  -2.295  0.00  0.00    -0.008 A 
ATOM     11  C   UNL     1       2.321   2.064  -3.251  0.00  0.00    +0.047 C 
BRANCH   9  12
ATOM     12  N   UNL     1       2.174  -0.805  -3.308  0.00  0.00    +0.057 N 
ATOM     13  O   UNL     1       2.216  -2.021  -3.258  0.00  0.00    -0.126 OA
ATOM     14  O   UNL     1       2.804  -0.208  -4.162  0.00  0.00    -0.126 OA
ENDBRANCH   9  12
ENDBRANCH   2   5
BRANCH   1  15
ATOM     15  C   UNL     1       0.120   5.529  -0.318  0.00  0.00    +0.141 C 
ATOM     16  S   UNL     1       1.019   6.382  -1.499  0.00  0.00    -0.018 S 
BRANCH  15  17
ATOM     17  N   UNL     1      -0.529   6.203   0.651  0.00  0.00    -0.296 N 
ATOM     18  H   UNL     1      -1.076   5.723   1.293  0.00  0.00    +0.154 HD
BRANCH  17  25
ATOM     19  C   UNL     1       2.079   7.330   0.801  0.00  0.00    +0.046 C 
ATOM     20  C   UNL     1       0.839   8.187   0.807  0.00  0.00    -0.028 A 
ATOM     21  C   UNL     1       0.949   9.562   0.882  0.00  0.00    +0.020 A 
ATOM     22  C   UNL     1      -0.190  10.348   0.894  0.00  0.00    +0.018 A 
ATOM     23  C   UNL     1      -1.440   9.761   0.825  0.00  0.00    +0.020 A 
ATOM     24  C   UNL     1      -1.556   8.387   0.744  0.00  0.00    -0.028 A 
ATOM     25  C   UNL     1      -0.415   7.595   0.732  0.00  0.00    +0.039 A 
ATOM     26  C   UNL     1      -2.919   7.748   0.668  0.00  0.00    +0.046 C 
ATOM     27 BR   UNL     1      -0.035  12.230   1.004  0.00  0.00    -0.050 Br
ENDBRANCH  17  25
ENDBRANCH  15  17
ENDBRANCH   1  15
TORSDOF 5
