REMARK  Name = ZINC02379943
REMARK  5 active torsions:
REMARK  status: ('A' for Active; 'I' for Inactive)
REMARK    1  A    between atoms: C_4  and  O_23
REMARK    2  A    between atoms: C_5  and  C_7
REMARK    3  A    between atoms: N_8  and  N_9
REMARK    4  A    between atoms: C_10  and  C_12
REMARK    5  A    between atoms: N_14  and  C_15
REMARK                            x       y       z     vdW  Elec       q    Type
REMARK                         _______ _______ _______ _____ _____    ______ ____
ROOT
ATOM      1  N   UNL     1       2.413  -4.186  -0.070  0.00  0.00    -0.199 N 
ATOM      2  C   UNL     1       3.593  -4.838  -0.079  0.00  0.00    +0.318 C 
ATOM      3  O   UNL     1       4.633  -4.210  -0.090  0.00  0.00    -0.263 OA
ATOM      4  H   UNL     1       1.582  -4.687  -0.061  0.00  0.00    +0.178 HD
ENDROOT
BRANCH   2   5
ATOM      5  C   UNL     1       3.622  -6.328  -0.077  0.00  0.00    +0.305 C 
ATOM      6  O   UNL     1       2.582  -6.955  -0.067  0.00  0.00    -0.265 OA
ATOM      7  N   UNL     1       4.801  -6.979  -0.087  0.00  0.00    -0.276 N 
ATOM      8  H   UNL     1       5.630  -6.481  -0.161  0.00  0.00    +0.155 HD
BRANCH   7   9
ATOM      9  C   UNL     1       4.831  -8.374   0.010  0.00  0.00    +0.054 A 
ATOM     10  C   UNL     1       3.827  -9.133  -0.576  0.00  0.00    +0.044 A 
ATOM     11  C   UNL     1       3.859 -10.512  -0.478  0.00  0.00    +0.043 A 
ATOM     12  C   UNL     1       4.890 -11.135   0.203  0.00  0.00    +0.021 A 
ATOM     13  C   UNL     1       5.891 -10.381   0.788  0.00  0.00    +0.023 A 
ATOM     14  C   UNL     1       5.869  -9.003   0.688  0.00  0.00    +0.062 A 
ATOM     15 CL   UNL     1       7.130  -8.058   1.416  0.00  0.00    -0.082 Cl
ATOM     16 CL   UNL     1       2.604 -11.462  -1.210  0.00  0.00    -0.083 Cl
ENDBRANCH   7   9
ENDBRANCH   2   5
BRANCH   1  18
ATOM     17  C   UNL     1       1.248  -2.158  -0.062  0.00  0.00    +0.142 C 
ATOM     18  N   UNL     1       2.386  -2.786  -0.072  0.00  0.00    -0.187 NA
BRANCH  17  23
ATOM     19  C   UNL     1      -0.020   1.373  -0.058  0.00  0.00    +0.001 A 
ATOM     20  C   UNL     1       1.165   2.088  -0.070  0.00  0.00    +0.004 A 
ATOM     21  C   UNL     1       2.380   1.428  -0.079  0.00  0.00    +0.046 A 
ATOM     22  C   UNL     1       2.418   0.043  -0.077  0.00  0.00    +0.125 A 
ATOM     23  C   UNL     1       1.220  -0.685  -0.064  0.00  0.00    +0.036 A 
ATOM     24  C   UNL     1      -0.001  -0.006  -0.055  0.00  0.00    +0.013 A 
BRANCH  22  25
ATOM     25  O   UNL     1       3.611  -0.606  -0.086  0.00  0.00    -0.506 OA
ATOM     26  H   UNL     1       3.964  -0.792   0.794  0.00  0.00    +0.292 HD
ENDBRANCH  22  25
ENDBRANCH  17  23
ENDBRANCH   1  18
TORSDOF 5
