REMARK  Name = ZINC41585912
REMARK  5 active torsions:
REMARK  status: ('A' for Active; 'I' for Inactive)
REMARK    1  A    between atoms: C_4  and  C_7
REMARK    2  A    between atoms: C_8  and  C_9
REMARK    3  A    between atoms: C_16  and  O_33
REMARK    4  A    between atoms: C_17  and  C_20
REMARK    5  A    between atoms: C_20  and  N_21
REMARK                            x       y       z     vdW  Elec       q    Type
REMARK                         _______ _______ _______ _____ _____    ______ ____
ROOT
ATOM      1  C   UNL     1       4.867  -2.705  -0.151  0.00  0.00    +0.050 C 
ATOM      2  C   UNL     1       4.904  -4.070  -0.144  0.00  0.00    +0.176 C 
ATOM      3  C   UNL     1       6.112  -4.903  -0.158  0.00  0.00    +0.231 C 
ATOM      4  O   UNL     1       7.274  -4.533  -0.178  0.00  0.00    -0.283 OA
ATOM      5  C   UNL     1       5.607  -6.288  -0.141  0.00  0.00    +0.068 A 
ATOM      6  C   UNL     1       6.235  -7.534  -0.144  0.00  0.00    +0.019 A 
ATOM      7  C   UNL     1       5.484  -8.675  -0.125  0.00  0.00    +0.046 A 
ATOM      8  C   UNL     1       4.094  -8.597  -0.104  0.00  0.00    +0.125 A 
ATOM      9  C   UNL     1       3.457  -7.367  -0.101  0.00  0.00    +0.051 A 
ATOM     10  C   UNL     1       4.206  -6.197  -0.120  0.00  0.00    +0.147 A 
ATOM     11  O   UNL     1       3.835  -4.898  -0.117  0.00  0.00    -0.451 OA
ENDROOT
BRANCH   1  13
ATOM     12  C   UNL     1       3.591  -0.681  -0.137  0.00  0.00    +0.008 C 
ATOM     13  C   UNL     1       3.628  -2.035  -0.130  0.00  0.00    +0.004 C 
BRANCH  12  17
ATOM     14  C   UNL     1      -0.137   1.338  -0.074  0.00  0.00    +0.000 A 
ATOM     15  C   UNL     1       1.040   2.066  -0.101  0.00  0.00    +0.001 A 
ATOM     16  C   UNL     1       2.256   1.418  -0.122  0.00  0.00    +0.008 A 
ATOM     17  C   UNL     1       2.299   0.019  -0.115  0.00  0.00    -0.025 A 
ATOM     18  C   UNL     1       1.104  -0.710  -0.086  0.00  0.00    +0.008 A 
ATOM     19  C   UNL     1      -0.103  -0.046  -0.067  0.00  0.00    +0.001 A 
ENDBRANCH  12  17
ENDBRANCH   1  13
BRANCH   8  20
ATOM     20  O   UNL     1       3.356  -9.737  -0.085  0.00  0.00    -0.506 OA
ATOM     21  H   UNL     1       3.157 -10.062   0.803  0.00  0.00    +0.292 HD
ENDBRANCH   8  20
BRANCH   9  22
ATOM     22  C   UNL     1       1.951  -7.298  -0.079  0.00  0.00    +0.127 C 
BRANCH  22  23
ATOM     23  N   UNL     1       1.483  -7.268   1.313  0.00  0.00    -0.295 NA
ATOM     24  C   UNL     1       1.907  -6.031   1.984  0.00  0.00    +0.103 C 
ATOM     25  C   UNL     1       1.559  -6.118   3.474  0.00  0.00    +0.122 C 
ATOM     26  N   UNL     1       0.129  -6.436   3.602  0.00  0.00    -0.314 N 
ATOM     27  C   UNL     1      -0.399  -7.583   2.847  0.00  0.00    +0.122 C 
ATOM     28  C   UNL     1       0.026  -7.439   1.382  0.00  0.00    +0.103 C 
ATOM     29  C   UNL     1      -0.702  -5.673   4.414  0.00  0.00    +0.099 A 
ATOM     30  C   UNL     1      -2.072  -5.919   4.424  0.00  0.00    +0.042 A 
ATOM     31  C   UNL     1      -2.887  -5.152   5.237  0.00  0.00    +0.005 A 
ATOM     32  C   UNL     1      -2.303  -4.161   6.015  0.00  0.00    +0.018 A 
ATOM     33  C   UNL     1      -0.937  -3.971   5.955  0.00  0.00    +0.084 A 
ATOM     34  N   UNL     1      -0.183  -4.722   5.174  0.00  0.00    -0.350 N 
ATOM     35  H   UNL     1       0.775  -4.570   5.154  0.00  0.00    +0.166 HD
ENDBRANCH  22  23
ENDBRANCH   9  22
TORSDOF 5
