REMARK  Name = ZINC07821431
REMARK  8 active torsions:
REMARK  status: ('A' for Active; 'I' for Inactive)
REMARK    1  A    between atoms: C_1  and  C_2
REMARK    2  A    between atoms: C_5  and  O_11
REMARK    3  A    between atoms: C_6  and  N_8
REMARK    4  A    between atoms: O_11  and  C_12
REMARK    5  A    between atoms: C_12  and  C_14
REMARK    6  A    between atoms: C_12  and  C_15
REMARK    7  A    between atoms: N_17  and  C_18
REMARK    8  A    between atoms: C_23  and  C_24
REMARK                            x       y       z     vdW  Elec       q    Type
REMARK                         _______ _______ _______ _____ _____    ______ ____
ROOT
ATOM      1  C   UNL     1      -2.393  -0.316  -0.076  0.00  0.00    +0.258 C 
ATOM      2  O   UNL     1      -1.346  -0.929  -0.047  0.00  0.00    -0.271 OA
ATOM      3  N   UNL     1      -2.389   1.028   0.021  0.00  0.00    -0.282 N 
ATOM      4  H   UNL     1      -3.228   1.514   0.060  0.00  0.00    +0.155 HD
ENDROOT
BRANCH   3   5
ATOM      5  C   UNL     1      -1.175   1.724   0.064  0.00  0.00    +0.045 A 
ATOM      6  C   UNL     1      -0.075   1.165   0.702  0.00  0.00    +0.025 A 
ATOM      7  C   UNL     1       1.123   1.851   0.738  0.00  0.00    +0.022 A 
ATOM      8  C   UNL     1       1.227   3.096   0.143  0.00  0.00    +0.042 A 
ATOM      9  C   UNL     1       0.131   3.658  -0.488  0.00  0.00    +0.034 A 
ATOM     10  C   UNL     1      -1.069   2.976  -0.527  0.00  0.00    +0.077 A 
ATOM     11 CL   UNL     1       2.734   3.955   0.190  0.00  0.00    -0.084 Cl
BRANCH  10  12
ATOM     12  C   UNL     1      -2.262   3.588  -1.215  0.00  0.00    +0.419 C 
ATOM     13  F   UNL     1      -1.911   4.839  -1.733  0.00  0.00    -0.166 F 
ATOM     14  F   UNL     1      -2.679   2.753  -2.257  0.00  0.00    -0.166 F 
ATOM     15  F   UNL     1      -3.304   3.740  -0.294  0.00  0.00    -0.166 F 
ENDBRANCH  10  12
ENDBRANCH   3   5
BRANCH   1  16
ATOM     16  C   UNL     1      -3.697  -1.058  -0.220  0.00  0.00    +0.256 C 
ATOM     17  C   UNL     1      -4.531  -0.873   1.048  0.00  0.00    +0.062 C 
BRANCH  16  18
ATOM     18  O   UNL     1      -3.434  -2.448  -0.420  0.00  0.00    -0.478 OA
BRANCH  18  23
ATOM     19  C   UNL     1      -6.992  -5.270  -3.752  0.00  0.00    +0.044 C 
ATOM     20  C   UNL     1      -6.040  -4.514  -2.861  0.00  0.00    -0.048 A 
ATOM     21  C   UNL     1      -6.303  -3.198  -2.528  0.00  0.00    +0.007 A 
ATOM     22  C   UNL     1      -5.435  -2.506  -1.707  0.00  0.00    +0.048 A 
ATOM     23  C   UNL     1      -4.292  -3.128  -1.224  0.00  0.00    +0.152 A 
ATOM     24  C   UNL     1      -4.031  -4.449  -1.560  0.00  0.00    +0.168 A 
ATOM     25  C   UNL     1      -4.905  -5.139  -2.378  0.00  0.00    +0.039 A 
BRANCH  24  26
ATOM     26  N   UNL     1      -2.816  -5.118  -1.043  0.00  0.00    +0.060 N 
ATOM     27  O   UNL     1      -2.587  -6.277  -1.338  0.00  0.00    -0.126 OA
ATOM     28  O   UNL     1      -2.046  -4.509  -0.323  0.00  0.00    -0.126 OA
ENDBRANCH  24  26
ENDBRANCH  18  23
ENDBRANCH  16  18
ENDBRANCH   1  16
TORSDOF 6
