REMARK  Name = ZINC49370652
REMARK  3 active torsions:
REMARK  status: ('A' for Active; 'I' for Inactive)
REMARK    1  A    between atoms: C_10  and  N_12
REMARK    2  A    between atoms: N_15  and  C_16
REMARK    3  A    between atoms: C_16  and  C_17
REMARK                            x       y       z     vdW  Elec       q    Type
REMARK                         _______ _______ _______ _____ _____    ______ ____
ROOT
ATOM      1  N   UNL     1       4.190   2.377   1.318  0.00  0.00    -0.293 N 
ATOM      2  C   UNL     1       3.902   3.626   1.735  0.00  0.00    +0.300 C 
ATOM      3  O   UNL     1       3.317   4.393   0.995  0.00  0.00    -0.253 OA
ATOM      4  N   UNL     1       4.262   4.024   2.971  0.00  0.00    -0.292 N 
ATOM      5  H   UNL     1       4.657   1.764   1.909  0.00  0.00    +0.151 HD
ATOM      6  H   UNL     1       4.729   3.412   3.561  0.00  0.00    +0.151 HD
ENDROOT
BRANCH   1  16
ATOM      7  C   UNL     1      -0.017   1.378   0.010  0.00  0.00    +0.002 A 
ATOM      8  C   UNL     1       1.171   2.084   0.002  0.00  0.00    +0.006 A 
ATOM      9  C   UNL     1       2.381   1.412  -0.014  0.00  0.00    -0.023 A 
ATOM     10  C   UNL     1       2.401   0.029  -0.021  0.00  0.00    -0.024 A 
ATOM     11  C   UNL     1       1.210  -0.677  -0.013  0.00  0.00    +0.044 A 
ATOM     12  C   UNL     1       0.002  -0.004   0.002  0.00  0.00    +0.020 A 
ATOM     13 CL   UNL     1       1.233  -2.413  -0.022  0.00  0.00    -0.083 Cl
ATOM     14  C   UNL     1       3.833  -0.462  -0.039  0.00  0.00    +0.039 C 
ATOM     15  C   UNL     1       4.672   0.756  -0.481  0.00  0.00    +0.032 C 
ATOM     16  C   UNL     1       3.799   1.944  -0.025  0.00  0.00    +0.105 C 
ENDBRANCH   1  16
BRANCH   4  17
ATOM     17  C   UNL     1       3.949   5.382   3.424  0.00  0.00    +0.180 C 
BRANCH  17  18
ATOM     18  C   UNL     1       4.455   5.572   4.830  0.00  0.00    +0.122 A 
ATOM     19  C   UNL     1       5.674   6.027   5.173  0.00  0.00    +0.046 A 
ATOM     20  C   UNL     1       5.722   6.046   6.585  0.00  0.00    +0.041 A 
ATOM     21  C   UNL     1       4.530   5.601   7.022  0.00  0.00    +0.195 A 
ATOM     22  O   UNL     1       3.764   5.321   5.954  0.00  0.00    -0.466 OA
ENDBRANCH  17  18
ENDBRANCH   4  17
TORSDOF 3
