REMARK  Name = ZINC36586578
REMARK  16 active torsions:
REMARK  status: ('A' for Active; 'I' for Inactive)
REMARK    1  A    between atoms: C_1  and  C_2
REMARK    2  A    between atoms: C_2  and  C_3
REMARK    3  A    between atoms: C_2  and  C_4
REMARK    4  A    between atoms: C_2  and  N_5
REMARK    5  A    between atoms: C_6  and  C_8
REMARK    6  A    between atoms: C_8  and  C_10
REMARK    7  A    between atoms: C_8  and  N_19
REMARK    8  A    between atoms: C_13  and  O_18
REMARK    9  A    between atoms: C_14  and  O_16
REMARK   10  A    between atoms: O_16  and  C_17
REMARK   11  A    between atoms: N_19  and  C_29
REMARK   12  A    between atoms: C_20  and  C_22
REMARK   13  A    between atoms: C_25  and  O_28
REMARK   14  A    between atoms: C_29  and  C_30
REMARK   15  A    between atoms: C_29  and  C_31
REMARK   16  A    between atoms: C_29  and  C_32
REMARK                            x       y       z     vdW  Elec       q    Type
REMARK                         _______ _______ _______ _____ _____    ______ ____
ROOT
ATOM      1  C   UNL     1       6.818  -0.337  -0.174  0.00  0.00    +0.193 C 
ENDROOT
BRANCH   1   2
ATOM      2  C   UNL     1       7.928   0.029   0.778  0.00  0.00    -0.014 A 
ATOM      3  C   UNL     1       8.417   1.321   0.803  0.00  0.00    +0.010 A 
ATOM      4  C   UNL     1       9.435   1.661   1.674  0.00  0.00    +0.049 A 
ATOM      5  C   UNL     1       9.967   0.706   2.525  0.00  0.00    +0.158 A 
ATOM      6  C   UNL     1       9.473  -0.595   2.501  0.00  0.00    +0.162 A 
ATOM      7  C   UNL     1       8.450  -0.928   1.628  0.00  0.00    +0.055 A 
BRANCH   6   8
ATOM      8  O   UNL     1       9.992  -1.536   3.334  0.00  0.00    -0.491 OA
ATOM      9  C   UNL     1       9.436  -2.851   3.254  0.00  0.00    +0.277 C 
ENDBRANCH   6   8
BRANCH   5  10
ATOM     10  O   UNL     1      10.968   1.039   3.383  0.00  0.00    -0.503 OA
ATOM     11  H   UNL     1      10.660   1.350   4.245  0.00  0.00    +0.292 HD
ENDBRANCH   5  10
ENDBRANCH   1   2
BRANCH   1  13
ATOM     12  N   UNL     1       5.624  -1.855   1.371  0.00  0.00    -0.309 N 
ATOM     13  C   UNL     1       5.597  -0.743   0.610  0.00  0.00    +0.239 C 
ATOM     14  O   UNL     1       4.590  -0.069   0.555  0.00  0.00    -0.273 OA
ATOM     15  H   UNL     1       6.429  -2.393   1.415  0.00  0.00    +0.149 HD
BRANCH  12  17
ATOM     16  C   UNL     1       3.270  -2.487   1.173  0.00  0.00    +0.031 C 
ATOM     17  C   UNL     1       4.437  -2.249   2.133  0.00  0.00    +0.026 C 
ATOM     18  C   UNL     1       4.069  -1.136   3.117  0.00  0.00    +0.031 C 
ATOM     19  C   UNL     1       4.731  -3.536   2.907  0.00  0.00    +0.031 C 
ENDBRANCH  12  17
ENDBRANCH   1  13
BRANCH   1  20
ATOM     20  N   UNL     1       6.496   0.819  -1.016  0.00  0.00    -0.277 N 
ATOM     21  C   UNL     1       6.275   2.022  -0.452  0.00  0.00    +0.248 C 
ATOM     22  O   UNL     1       5.953   2.095   0.719  0.00  0.00    -0.270 OA
BRANCH  21  23
ATOM     23  C   UNL     1       6.423   3.252  -1.254  0.00  0.00    +0.037 A 
ATOM     24  C   UNL     1       5.687   3.413  -2.431  0.00  0.00    +0.016 A 
ATOM     25  C   UNL     1       5.828   4.562  -3.177  0.00  0.00    +0.046 A 
ATOM     26  C   UNL     1       6.701   5.561  -2.761  0.00  0.00    +0.117 A 
ATOM     27  C   UNL     1       7.435   5.404  -1.591  0.00  0.00    +0.046 A 
ATOM     28  C   UNL     1       7.295   4.261  -0.836  0.00  0.00    +0.016 A 
BRANCH  26  29
ATOM     29  O   UNL     1       6.838   6.691  -3.499  0.00  0.00    -0.507 OA
ATOM     30  H   UNL     1       6.225   7.398  -3.253  0.00  0.00    +0.292 HD
ENDBRANCH  26  29
ENDBRANCH  21  23
BRANCH  20  31
ATOM     31  C   UNL     1       6.415   0.665  -2.470  0.00  0.00    +0.030 C 
ATOM     32  C   UNL     1       7.131  -0.621  -2.889  0.00  0.00    +0.031 C 
ATOM     33  C   UNL     1       4.947   0.593  -2.895  0.00  0.00    +0.031 C 
ATOM     34  C   UNL     1       7.083   1.864  -3.147  0.00  0.00    +0.031 C 
ENDBRANCH  20  31
ENDBRANCH   1  20
TORSDOF 9
