REMARK  Name = ZINC64181833
REMARK  6 active torsions:
REMARK  status: ('A' for Active; 'I' for Inactive)
REMARK    1  A    between atoms: C_4  and  C_6
REMARK    2  A    between atoms: C_8  and  S_12
REMARK    3  A    between atoms: S_12  and  C_13
REMARK    4  A    between atoms: C_13  and  C_14
REMARK    5  A    between atoms: N_16  and  C_17
REMARK    6  A    between atoms: C_19  and  C_28
REMARK                            x       y       z     vdW  Elec       q    Type
REMARK                         _______ _______ _______ _____ _____    ______ ____
ROOT
ATOM      1  C   UNL     1       4.616  -6.628  -0.484  0.00  0.00    +0.224 C 
ATOM      2  O   UNL     1       5.062  -7.232   0.468  0.00  0.00    -0.275 OA
ATOM      3  N   UNL     1       4.650  -7.183  -1.712  0.00  0.00    -0.302 N 
ATOM      4  H   UNL     1       4.293  -6.700  -2.473  0.00  0.00    +0.150 HD
ENDROOT
BRANCH   3   5
ATOM      5  C   UNL     1       5.226  -8.518  -1.896  0.00  0.00    +0.151 C 
ATOM      6  C   UNL     1       4.574  -9.258  -3.088  0.00  0.00    +0.132 C 
ATOM      7  C   UNL     1       4.398 -10.728  -2.800  0.00  0.00    -0.046 C 
ATOM      8  C   UNL     1       4.436 -11.115  -1.531  0.00  0.00    -0.013 C 
ATOM      9  S   UNL     1       4.723  -9.664  -0.544  0.00  0.00    -0.106 S 
ATOM     10  C   UNL     1       4.273 -12.515  -1.007  0.00  0.00    +0.042 C 
ATOM     11  C   UNL     1       3.691 -13.395  -2.120  0.00  0.00    +0.005 C 
ATOM     12  C   UNL     1       4.487 -13.142  -3.405  0.00  0.00    +0.005 C 
ATOM     13  C   UNL     1       4.182 -11.738  -3.925  0.00  0.00    +0.032 C 
BRANCH   6  14
ATOM     14  C   UNL     1       3.224  -8.649  -3.367  0.00  0.00    +0.220 C 
ATOM     15  O   UNL     1       2.251  -9.021  -2.747  0.00  0.00    -0.275 OA
ATOM     16  N   UNL     1       3.099  -7.691  -4.306  0.00  0.00    -0.329 N 
ATOM     17  H   UNL     1       3.862  -7.444  -4.852  0.00  0.00    +0.145 HD
ATOM     18  H   UNL     1       2.246  -7.248  -4.437  0.00  0.00    +0.145 HD
ENDBRANCH   6  14
ENDBRANCH   3   5
BRANCH   1  19
ATOM     19  C   UNL     1       4.023  -5.255  -0.295  0.00  0.00    +0.173 C 
BRANCH  19  20
ATOM     20  S   UNL     1       4.124  -4.789   1.456  0.00  0.00    -0.077 S 
BRANCH  20  23
ATOM     21  C   UNL     1       2.448  -1.337   0.899  0.00  0.00    +0.155 A 
ATOM     22  N   UNL     1       2.913  -2.516   0.487  0.00  0.00    -0.205 NA
ATOM     23  C   UNL     1       3.401  -3.183   1.512  0.00  0.00    +0.185 A 
ATOM     24  N   UNL     1       3.248  -2.418   2.614  0.00  0.00    -0.254 N 
ATOM     25  H   UNL     1       3.513  -2.643   3.519  0.00  0.00    +0.191 HD
ATOM     26  N   UNL     1       2.635  -1.229   2.187  0.00  0.00    -0.157 NA
BRANCH  21  30
ATOM     27  C   UNL     1       0.269   1.611   0.331  0.00  0.00    +0.001 C 
ATOM     28  C   UNL     1       1.573   2.090  -0.339  0.00  0.00    +0.001 C 
ATOM     29  C   UNL     1       2.623   1.027   0.071  0.00  0.00    +0.011 C 
ATOM     30  C   UNL     1       1.813  -0.292   0.018  0.00  0.00    +0.059 C 
ATOM     31  C   UNL     1       0.421   0.097   0.558  0.00  0.00    +0.011 C 
ENDBRANCH  21  30
ENDBRANCH  20  23
ENDBRANCH  19  20
ENDBRANCH   1  19
TORSDOF 6
