REMARK  Name = ZINC42317280
REMARK  4 active torsions:
REMARK  status: ('A' for Active; 'I' for Inactive)
REMARK    1  A    between atoms: C_3  and  C_9
REMARK    2  A    between atoms: C_9  and  O_10
REMARK    3  A    between atoms: O_10  and  C_11
REMARK    4  A    between atoms: C_16  and  N_17
REMARK                            x       y       z     vdW  Elec       q    Type
REMARK                         _______ _______ _______ _____ _____    ______ ____
ROOT
ATOM      1  O   UNL     1       3.390   3.587  -0.011  0.00  0.00    -0.485 OA
ENDROOT
BRANCH   1   2
ATOM      2  C   UNL     1       4.456   4.430  -0.017  0.00  0.00    +0.154 A 
ATOM      3  C   UNL     1       5.745   3.920  -0.037  0.00  0.00    +0.086 A 
ATOM      4  C   UNL     1       6.828   4.780  -0.043  0.00  0.00    +0.127 A 
ATOM      5  C   UNL     1       6.624   6.150  -0.028  0.00  0.00    +0.041 A 
ATOM      6  C   UNL     1       5.339   6.659  -0.007  0.00  0.00    +0.039 A 
ATOM      7  C   UNL     1       4.255   5.803  -0.007  0.00  0.00    +0.168 A 
ATOM      8  F   UNL     1       8.085   4.285  -0.063  0.00  0.00    -0.205 F 
BRANCH   7   9
ATOM      9  N   UNL     1       2.880   6.350   0.009  0.00  0.00    +0.060 N 
ATOM     10  O   UNL     1       2.705   7.546   0.017  0.00  0.00    -0.126 OA
ATOM     11  O   UNL     1       1.931   5.600   0.014  0.00  0.00    -0.126 OA
ENDBRANCH   7   9
ENDBRANCH   1   2
BRANCH   1  12
ATOM     12  C   UNL     1       3.671   2.186  -0.021  0.00  0.00    +0.265 C 
BRANCH  12  15
ATOM     13  C   UNL     1      -0.017   1.380   0.010  0.00  0.00    +0.039 A 
ATOM     14  C   UNL     1       1.171   2.087   0.002  0.00  0.00    +0.011 A 
ATOM     15  C   UNL     1       2.377   1.413  -0.013  0.00  0.00    +0.004 A 
ATOM     16  C   UNL     1       2.398   0.030  -0.021  0.00  0.00    +0.027 A 
ATOM     17  C   UNL     1       1.211  -0.679  -0.014  0.00  0.00    +0.054 A 
ATOM     18  C   UNL     1       0.002  -0.004   0.002  0.00  0.00    +0.124 A 
ATOM     19  F   UNL     1      -1.158  -0.696   0.009  0.00  0.00    -0.205 F 
ATOM     20 BR   UNL     1       4.049  -0.891  -0.043  0.00  0.00    -0.050 Br
ENDBRANCH  12  15
ENDBRANCH   1  12
TORSDOF 4
