REMARK  Name = ZINC64891061
REMARK  4 active torsions:
REMARK  status: ('A' for Active; 'I' for Inactive)
REMARK    1  A    between atoms: C_1  and  C_2
REMARK    2  A    between atoms: C_2  and  N_3
REMARK    3  A    between atoms: C_7  and  C_14
REMARK    4  A    between atoms: C_17  and  C_20
REMARK                            x       y       z     vdW  Elec       q    Type
REMARK                         _______ _______ _______ _____ _____    ______ ____
ROOT
ATOM      1  N   UNL     1      -1.372  -0.511   0.012  0.00  0.00    -0.292 N 
ATOM      2  C   UNL     1      -2.127  -0.793   1.147  0.00  0.00    +0.070 A 
ATOM      3  C   UNL     1      -1.865  -0.703   2.507  0.00  0.00    +0.029 A 
ATOM      4  C   UNL     1      -2.832  -1.063   3.421  0.00  0.00    +0.013 A 
ATOM      5  C   UNL     1      -4.077  -1.521   2.981  0.00  0.00    +0.020 A 
ATOM      6  C   UNL     1      -4.343  -1.613   1.616  0.00  0.00    +0.039 A 
ATOM      7  C   UNL     1      -3.370  -1.250   0.701  0.00  0.00    +0.068 A 
ATOM      8  N   UNL     1      -3.330  -1.230  -0.692  0.00  0.00    -0.306 N 
ATOM      9  H   UNL     1      -4.052  -1.493  -1.285  0.00  0.00    +0.170 HD
ATOM     10  C   UNL     1      -2.121  -0.777  -1.074  0.00  0.00    +0.328 A 
ATOM     11  O   UNL     1      -1.760  -0.633  -2.227  0.00  0.00    -0.247 OA
ENDROOT
BRANCH   5  12
ATOM     12  C   UNL     1      -5.112  -1.907   3.965  0.00  0.00    +0.168 C 
ATOM     13  N   UNL     1      -6.288  -2.346   3.653  0.00  0.00    -0.066 NA
ATOM     14  O   UNL     1      -7.045  -2.630   4.814  0.00  0.00    -0.361 OA
ATOM     15  C   UNL     1      -6.206  -2.318   5.937  0.00  0.00    +0.358 C 
ATOM     16  N   UNL     1      -4.946  -1.853   5.337  0.00  0.00    -0.283 N 
ATOM     17  H   UNL     1      -4.152  -1.561   5.812  0.00  0.00    +0.152 HD
BRANCH  15  18
ATOM     18  C   UNL     1      -6.831  -1.232   6.774  0.00  0.00    +0.168 A 
ATOM     19  C   UNL     1      -7.646  -1.422   7.827  0.00  0.00    +0.051 A 
ATOM     20  C   UNL     1      -7.994  -0.141   8.312  0.00  0.00    +0.057 A 
ATOM     21  C   UNL     1      -7.371   0.757   7.526  0.00  0.00    +0.170 A 
ATOM     22  O   UNL     1      -6.663   0.089   6.600  0.00  0.00    -0.448 OA
ATOM     23 BR   UNL     1      -7.469   2.637   7.699  0.00  0.00    -0.008 Br
ENDBRANCH  15  18
ENDBRANCH   5  12
BRANCH   1  25
ATOM     24  C   UNL     1      -0.019   1.526   0.010  0.00  0.00    +0.027 C 
ATOM     25  C   UNL     1       0.002  -0.004   0.002  0.00  0.00    +0.123 C 
ENDBRANCH   1  25
TORSDOF 3
