REMARK  Name = ZINC14164810
REMARK  3 active torsions:
REMARK  status: ('A' for Active; 'I' for Inactive)
REMARK    1  A    between atoms: C_1  and  C_2
REMARK    2  A    between atoms: C_7  and  C_19
REMARK    3  A    between atoms: C_13  and  C_18
REMARK                            x       y       z     vdW  Elec       q    Type
REMARK                         _______ _______ _______ _____ _____    ______ ____
ROOT
ATOM      1  C   UNL     1      -1.256   2.163   0.020  0.00  0.00    +0.090 C 
ATOM      2  C   UNL     1      -0.016   1.306   0.009  0.00  0.00    +0.150 A 
ATOM      3  N   UNL     1       1.241   1.763  -0.000  0.00  0.00    -0.198 NA
ATOM      4  C   UNL     1       2.071   0.756  -0.015  0.00  0.00    +0.219 A 
ATOM      5  N   UNL     1       1.342  -0.388  -0.011  0.00  0.00    -0.221 N 
ATOM      6  N   UNL     1       0.002  -0.004   0.002  0.00  0.00    -0.153 NA
ATOM      7  C   UNL     1       1.938  -1.718  -0.016  0.00  0.00    +0.175 C 
ATOM      8  C   UNL     1       3.407  -1.626  -0.365  0.00  0.00    +0.041 C 
ATOM      9  C   UNL     1       4.077  -0.454  -0.350  0.00  0.00    +0.020 C 
ATOM     10  N   UNL     1       3.456   0.731  -0.036  0.00  0.00    -0.287 N 
ATOM     11  C   UNL     1       5.548  -0.397  -0.686  0.00  0.00    +0.055 C 
ATOM     12  C   UNL     1       5.887  -1.490  -1.702  0.00  0.00    -0.001 C 
ATOM     13  C   UNL     1       5.511  -2.846  -1.094  0.00  0.00    +0.083 C 
ATOM     14  C   UNL     1       4.058  -2.824  -0.712  0.00  0.00    +0.163 C 
ATOM     15  O   UNL     1       3.430  -3.865  -0.703  0.00  0.00    -0.292 OA
ATOM     16  C   UNL     1       7.385  -1.460  -2.011  0.00  0.00    +0.008 C 
ATOM     17  H   UNL     1       3.972   1.528   0.165  0.00  0.00    +0.155 HD
ENDROOT
BRANCH   7  18
ATOM     18  C   UNL     1       1.786  -2.339   1.348  0.00  0.00    -0.018 A 
ATOM     19  C   UNL     1       2.350  -1.728   2.453  0.00  0.00    +0.006 A 
ATOM     20  C   UNL     1       2.207  -2.296   3.705  0.00  0.00    +0.000 A 
ATOM     21  C   UNL     1       1.507  -3.479   3.852  0.00  0.00    +0.000 A 
ATOM     22  C   UNL     1       0.947  -4.092   2.747  0.00  0.00    +0.000 A 
ATOM     23  C   UNL     1       1.086  -3.522   1.495  0.00  0.00    +0.006 A 
ENDBRANCH   7  18
TORSDOF 1
