REMARK  Name = ZINC09671699
REMARK  5 active torsions:
REMARK  status: ('A' for Active; 'I' for Inactive)
REMARK    1  A    between atoms: C_4  and  C_7
REMARK    2  A    between atoms: C_7  and  C_27
REMARK    3  A    between atoms: N_10  and  C_14
REMARK    4  A    between atoms: C_14  and  C_15
REMARK    5  A    between atoms: C_17  and  C_20
REMARK                            x       y       z     vdW  Elec       q    Type
REMARK                         _______ _______ _______ _____ _____    ______ ____
ROOT
ATOM      1  C   UNL     1      -2.588  -1.131  -3.429  0.00  0.00    +0.164 C 
ATOM      2  C   UNL     1      -2.398   0.238  -2.805  0.00  0.00    +0.256 C 
ATOM      3  O   UNL     1      -2.717   1.308  -3.277  0.00  0.00    -0.272 OA
ATOM      4  N   UNL     1      -1.800   0.017  -1.617  0.00  0.00    -0.215 N 
ATOM      5  C   UNL     1      -1.595  -1.287  -1.403  0.00  0.00    +0.310 C 
ATOM      6  O   UNL     1      -1.074  -1.733  -0.400  0.00  0.00    -0.252 OA
ATOM      7  N   UNL     1      -2.029  -2.050  -2.423  0.00  0.00    -0.278 N 
ATOM      8  H   UNL     1      -1.983  -3.017  -2.483  0.00  0.00    +0.152 HD
ENDROOT
BRANCH   1  12
ATOM      9  C   UNL     1      -0.431  -1.432  -7.103  0.00  0.00    +0.000 A 
ATOM     10  C   UNL     1      -1.245  -0.340  -6.867  0.00  0.00    +0.000 A 
ATOM     11  C   UNL     1      -1.943  -0.242  -5.678  0.00  0.00    +0.006 A 
ATOM     12  C   UNL     1      -1.827  -1.237  -4.725  0.00  0.00    -0.011 A 
ATOM     13  C   UNL     1      -1.009  -2.326  -4.959  0.00  0.00    +0.006 A 
ATOM     14  C   UNL     1      -0.315  -2.426  -6.150  0.00  0.00    +0.000 A 
ENDBRANCH   1  12
BRANCH   1  15
ATOM     15  C   UNL     1      -4.052  -1.413  -3.650  0.00  0.00    -0.011 A 
ATOM     16  C   UNL     1      -4.832  -0.511  -4.349  0.00  0.00    +0.006 A 
ATOM     17  C   UNL     1      -6.173  -0.772  -4.556  0.00  0.00    +0.000 A 
ATOM     18  C   UNL     1      -6.737  -1.931  -4.055  0.00  0.00    +0.000 A 
ATOM     19  C   UNL     1      -5.958  -2.830  -3.351  0.00  0.00    +0.000 A 
ATOM     20  C   UNL     1      -4.615  -2.571  -3.148  0.00  0.00    +0.006 A 
ENDBRANCH   1  15
BRANCH   4  21
ATOM     21  C   UNL     1      -1.427   1.075  -0.675  0.00  0.00    +0.216 C 
BRANCH  21  22
ATOM     22  C   UNL     1      -0.023   1.538  -0.969  0.00  0.00    +0.246 A 
ATOM     23  N   UNL     1       0.323   2.502  -1.785  0.00  0.00    -0.190 NA
ATOM     24  C   UNL     1       1.673   2.559  -1.728  0.00  0.00    +0.202 A 
ATOM     25  N   UNL     1       2.063   1.635  -0.889  0.00  0.00    -0.056 NA
ATOM     26  O   UNL     1       1.102   1.042  -0.446  0.00  0.00    -0.336 OA
BRANCH  24  27
ATOM     27  C   UNL     1       2.547   3.495  -2.477  0.00  0.00    +0.023 A 
ATOM     28  C   UNL     1       1.989   4.429  -3.347  0.00  0.00    +0.013 A 
ATOM     29  C   UNL     1       2.806   5.300  -4.038  0.00  0.00    +0.021 A 
ATOM     30  C   UNL     1       4.179   5.240  -3.876  0.00  0.00    +0.041 A 
ATOM     31  C   UNL     1       4.740   4.310  -3.017  0.00  0.00    +0.021 A 
ATOM     32  C   UNL     1       3.931   3.438  -2.318  0.00  0.00    +0.013 A 
ATOM     33 CL   UNL     1       5.203   6.334  -4.754  0.00  0.00    -0.084 Cl
ENDBRANCH  24  27
ENDBRANCH  21  22
ENDBRANCH   4  21
TORSDOF 5
