REMARK  Name = ZINC15015642
REMARK  9 active torsions:
REMARK  status: ('A' for Active; 'I' for Inactive)
REMARK    1  A    between atoms: C_1  and  C_2
REMARK    2  A    between atoms: C_2  and  O_3
REMARK    3  A    between atoms: O_3  and  C_4
REMARK    4  A    between atoms: C_6  and  C_12
REMARK    5  A    between atoms: C_9  and  O_10
REMARK    6  A    between atoms: C_14  and  C_21
REMARK    7  A    between atoms: C_15  and  C_20
REMARK    8  A    between atoms: C_21  and  O_23
REMARK    9  A    between atoms: O_23  and  C_24
REMARK                            x       y       z     vdW  Elec       q    Type
REMARK                         _______ _______ _______ _____ _____    ______ ____
ROOT
ATOM      1  C   UNL     1       1.290  -0.664  -0.259  0.00  0.00    +0.144 C 
ATOM      2  C   UNL     1       2.528   0.209  -0.235  0.00  0.00    +0.078 C 
ATOM      3  C   UNL     1       2.364   1.524   0.022  0.00  0.00    +0.021 C 
ATOM      4  N   UNL     1       1.124   2.048   0.254  0.00  0.00    -0.273 N 
ATOM      5  C   UNL     1      -0.001   1.324   0.245  0.00  0.00    +0.304 C 
ATOM      6  O   UNL     1      -1.061   1.881   0.457  0.00  0.00    -0.252 OA
ATOM      7  N   UNL     1       0.001  -0.002   0.003  0.00  0.00    -0.288 N 
ATOM      8  C   UNL     1       3.569   2.429   0.055  0.00  0.00    +0.061 C 
ATOM      9  H   UNL     1       1.056   2.999   0.434  0.00  0.00    +0.156 HD
ATOM     10  H   UNL     1      -0.827  -0.508   0.002  0.00  0.00    +0.151 HD
ENDROOT
BRANCH   1  13
ATOM     11  C   UNL     1       2.175  -3.973   1.337  0.00  0.00    +0.163 A 
ATOM     12  C   UNL     1       2.004  -2.972   0.394  0.00  0.00    +0.055 A 
ATOM     13  C   UNL     1       1.470  -1.753   0.768  0.00  0.00    -0.018 A 
ATOM     14  C   UNL     1       1.095  -1.532   2.080  0.00  0.00    +0.024 A 
ATOM     15  C   UNL     1       1.257  -2.529   3.025  0.00  0.00    +0.059 A 
ATOM     16  C   UNL     1       1.797  -3.751   2.658  0.00  0.00    +0.172 A 
ATOM     17  I   UNL     1       0.688  -2.189   5.013  0.00  0.00    -0.040 I 
BRANCH  16  18
ATOM     18  O   UNL     1       1.958  -4.732   3.586  0.00  0.00    -0.503 OA
ATOM     19  H   UNL     1       1.194  -5.319   3.675  0.00  0.00    +0.292 HD
ENDBRANCH  16  18
BRANCH  11  20
ATOM     20  O   UNL     1       2.704  -5.171   0.972  0.00  0.00    -0.489 OA
BRANCH  20  22
ATOM     21  C   UNL     1       3.643  -6.729  -0.620  0.00  0.00    +0.048 C 
ATOM     22  C   UNL     1       3.069  -5.327  -0.401  0.00  0.00    +0.226 C 
ENDBRANCH  20  22
ENDBRANCH  11  20
ENDBRANCH   1  13
BRANCH   2  23
ATOM     23  C   UNL     1       3.811  -0.335  -0.475  0.00  0.00    +0.338 C 
ATOM     24  O   UNL     1       4.777   0.400  -0.562  0.00  0.00    -0.245 OA
BRANCH  23  25
ATOM     25  O   UNL     1       3.965  -1.669  -0.608  0.00  0.00    -0.465 OA
ATOM     26  C   UNL     1       5.289  -2.149  -0.849  0.00  0.00    +0.280 C 
ENDBRANCH  23  25
ENDBRANCH   2  23
TORSDOF 6
