REMARK  Name = ZINC43550966
REMARK  2 active torsions:
REMARK  status: ('A' for Active; 'I' for Inactive)
REMARK    1  A    between atoms: C_1  and  C_2
REMARK    2  A    between atoms: C_3  and  C_22
REMARK                            x       y       z     vdW  Elec       q    Type
REMARK                         _______ _______ _______ _____ _____    ______ ____
ROOT
ATOM      1  C   UNL     1       0.001   0.152  -1.087  0.00  0.00    +0.066 C 
ATOM      2  C   UNL     1       0.003   0.469   0.386  0.00  0.00    +0.050 A 
ATOM      3  C   UNL     1      -0.012   1.747   0.836  0.00  0.00    +0.011 A 
ATOM      4  S   UNL     1      -0.001   1.479   2.601  0.00  0.00    -0.057 S 
ATOM      5  C   UNL     1       0.021  -0.204   2.581  0.00  0.00    +0.166 A 
ATOM      6  N   UNL     1       0.014  -0.488   1.296  0.00  0.00    -0.230 NA
ATOM      7  N   UNL     1       0.037  -1.080   3.659  0.00  0.00    -0.248 N 
ATOM      8  C   UNL     1       0.053  -2.411   3.446  0.00  0.00    +0.308 C 
ATOM      9  O   UNL     1      -0.039  -2.846   2.315  0.00  0.00    -0.252 OA
ATOM     10  N   UNL     1       0.172  -3.259   4.487  0.00  0.00    -0.285 N 
ATOM     11  C   UNL     1       0.309  -4.705   4.264  0.00  0.00    +0.109 C 
ATOM     12  C   UNL     1       1.560  -5.199   4.998  0.00  0.00    +0.023 C 
ATOM     13  C   UNL     1       1.475  -4.798   6.473  0.00  0.00    -0.005 C 
ATOM     14  C   UNL     1       2.712  -5.320   7.208  0.00  0.00    +0.004 C 
ATOM     15  C   UNL     1       2.639  -4.920   8.682  0.00  0.00    +0.000 C 
ATOM     16  C   UNL     1       2.589  -3.394   8.793  0.00  0.00    +0.000 C 
ATOM     17  C   UNL     1       1.351  -2.872   8.062  0.00  0.00    +0.005 C 
ATOM     18  C   UNL     1       1.417  -3.273   6.586  0.00  0.00    +0.010 C 
ATOM     19  C   UNL     1       0.174  -2.755   5.867  0.00  0.00    +0.113 C 
ATOM     20  C   UNL     1      -0.031   3.039   0.060  0.00  0.00    +0.053 C 
ATOM     21  H   UNL     1       0.036  -0.734   4.566  0.00  0.00    +0.158 HD
ENDROOT
TORSDOF 0
