REMARK  Name = ZINC06610449
REMARK  6 active torsions:
REMARK  status: ('A' for Active; 'I' for Inactive)
REMARK    1  A    between atoms: C_1  and  C_2
REMARK    2  A    between atoms: C_2  and  C_3
REMARK    3  A    between atoms: C_6  and  C_15
REMARK    4  A    between atoms: C_13  and  O_14
REMARK    5  A    between atoms: C_15  and  N_45
REMARK    6  A    between atoms: C_20  and  C_22
REMARK                            x       y       z     vdW  Elec       q    Type
REMARK                         _______ _______ _______ _____ _____    ______ ____
ROOT
ATOM      1  C   UNL     1       2.415   0.030  -0.021  0.00  0.00    -0.005 A 
ATOM      2  C   UNL     1       2.414   1.395  -0.014  0.00  0.00    +0.019 A 
ATOM      3  C   UNL     1       1.200   2.090   0.002  0.00  0.00    +0.019 A 
ATOM      4  C   UNL     1       1.169   3.554   0.010  0.00  0.00    -0.047 A 
ATOM      5  C   UNL     1      -0.042   4.170   0.025  0.00  0.00    +0.094 A 
ATOM      6  C   UNL     1      -1.222   3.398   0.032  0.00  0.00    +0.337 A 
ATOM      7  O   UNL     1      -2.301   3.963   0.045  0.00  0.00    -0.245 OA
ATOM      8  O   UNL     1      -1.187   2.056   0.030  0.00  0.00    -0.422 OA
ATOM      9  C   UNL     1      -0.017   1.382   0.010  0.00  0.00    +0.143 A 
ATOM     10  C   UNL     1       0.002  -0.004   0.002  0.00  0.00    +0.092 A 
ATOM     11  C   UNL     1       1.214  -0.676  -0.013  0.00  0.00    +0.124 A 
ENDROOT
BRANCH   1  13
ATOM     12  C   UNL     1       4.055  -1.196   1.378  0.00  0.00    +0.009 C 
ATOM     13  C   UNL     1       3.723  -0.718  -0.037  0.00  0.00    +0.035 C 
ENDBRANCH   1  13
BRANCH  11  14
ATOM     14  O   UNL     1       1.231  -2.033  -0.021  0.00  0.00    -0.506 OA
ATOM     15  H   UNL     1       1.228  -2.421  -0.907  0.00  0.00    +0.292 HD
ENDBRANCH  11  14
BRANCH   4  16
ATOM     16  C   UNL     1       2.445   4.356   0.002  0.00  0.00    -0.042 C 
BRANCH  16  23
ATOM     17  C   UNL     1       1.910   4.738  -2.328  0.00  0.00    -0.078 C 
ATOM     18  C   UNL     1       2.465   4.654  -3.752  0.00  0.00    -0.019 C 
ATOM     19  C   UNL     1       3.626   5.640  -3.902  0.00  0.00    -0.003 C 
ATOM     20  C   UNL     1       4.699   5.316  -2.858  0.00  0.00    -0.016 C 
ATOM     21  C   UNL     1       4.079   5.382  -1.460  0.00  0.00    -0.071 C 
ATOM     22  C   UNL     1       5.143   5.039  -0.415  0.00  0.00    -0.013 C 
ATOM     23  N   UNL     1       2.984   4.392  -1.373  0.00  0.00    +0.384 N 
ATOM     24  H   UNL     1       3.355   3.464  -1.611  0.00  0.00    -0.081 HD
ENDBRANCH  16  23
ENDBRANCH   4  16
TORSDOF 4
