REMARK  Name = ZINC37129133
REMARK  4 active torsions:
REMARK  status: ('A' for Active; 'I' for Inactive)
REMARK    1  A    between atoms: C_1  and  C_2
REMARK    2  A    between atoms: C_2  and  N_3
REMARK    3  A    between atoms: C_6  and  N_9
REMARK    4  A    between atoms: N_9  and  C_10
REMARK                            x       y       z     vdW  Elec       q    Type
REMARK                         _______ _______ _______ _____ _____    ______ ____
ROOT
ATOM      1  N   UNL     1       1.647  -2.425  -4.820  0.00  0.00    -0.338 N 
ATOM      2  H   UNL     1       2.276  -1.799  -5.211  0.00  0.00    +0.146 HD
ENDROOT
BRANCH   1   3
ATOM      3  C   UNL     1       1.607  -3.746  -5.269  0.00  0.00    +0.075 A 
ATOM      4  C   UNL     1       2.172  -4.077  -6.462  0.00  0.00    +0.065 A 
ATOM      5  C   UNL     1       2.149  -5.388  -6.938  0.00  0.00    +0.044 A 
ATOM      6  C   UNL     1       1.563  -6.387  -6.235  0.00  0.00    +0.071 A 
ATOM      7  C   UNL     1       0.951  -6.118  -4.980  0.00  0.00    +0.120 A 
ATOM      8  C   UNL     1       0.978  -4.751  -4.474  0.00  0.00    +0.123 A 
ATOM      9  N   UNL     1       0.381  -4.618  -3.290  0.00  0.00    -0.189 NA
ATOM     10  S   UNL     1      -0.135  -6.090  -2.895  0.00  0.00    +0.117 S 
ATOM     11  N   UNL     1       0.334  -6.968  -4.159  0.00  0.00    -0.189 NA
ATOM     12 CL   UNL     1       1.559  -8.003  -6.870  0.00  0.00    -0.081 Cl
ATOM     13 CL   UNL     1       2.938  -2.842  -7.411  0.00  0.00    -0.082 Cl
ENDBRANCH   1   3
BRANCH   1  17
ATOM     14  N   UNL     1       0.178  -0.127  -1.606  0.00  0.00    +0.380 N 
ATOM     15  C   UNL     1      -0.573  -0.057  -2.865  0.00  0.00    -0.077 C 
ATOM     16  C   UNL     1       0.310  -0.537  -4.019  0.00  0.00    +0.003 C 
ATOM     17  C   UNL     1       0.739  -1.984  -3.758  0.00  0.00    +0.067 C 
ATOM     18  C   UNL     1       1.456  -2.058  -2.407  0.00  0.00    +0.003 C 
ATOM     19  C   UNL     1       0.530  -1.522  -1.314  0.00  0.00    -0.077 C 
ATOM     20  H   UNL     1       1.021   0.421  -1.689  0.00  0.00    -0.082 HD
BRANCH  14  22
ATOM     21  C   UNL     1      -0.911   1.895  -0.757  0.00  0.00    -0.017 C 
ATOM     22  C   UNL     1      -0.647   0.407  -0.515  0.00  0.00    -0.082 C 
ENDBRANCH  14  22
ENDBRANCH   1  17
TORSDOF 3
