REMARK  Name = ZINC05792626
REMARK  6 active torsions:
REMARK  status: ('A' for Active; 'I' for Inactive)
REMARK    1  A    between atoms: C_1  and  C_2
REMARK    2  A    between atoms: C_3  and  C_7
REMARK    3  A    between atoms: N_9  and  N_10
REMARK    4  A    between atoms: C_11  and  C_12
REMARK    5  A    between atoms: N_14  and  C_23
REMARK    6  A    between atoms: C_16  and  C_17
REMARK                            x       y       z     vdW  Elec       q    Type
REMARK                         _______ _______ _______ _____ _____    ______ ____
ROOT
ATOM      1  C   UNL     1      -1.208   2.389   0.211  0.00  0.00    +0.040 A 
ATOM      2  C   UNL     1      -0.701   3.659   0.164  0.00  0.00    +0.124 A 
ATOM      3  N   UNL     1       0.623   3.570  -0.076  0.00  0.00    -0.239 N 
ATOM      4  N   UNL     1       0.989   2.225  -0.180  0.00  0.00    -0.166 NA
ATOM      5  C   UNL     1      -0.082   1.479  -0.011  0.00  0.00    +0.102 A 
ENDROOT
BRANCH   5   6
ATOM      6  C   UNL     1      -0.139  -0.002  -0.044  0.00  0.00    +0.003 A 
ATOM      7  C   UNL     1       0.828  -0.754   0.623  0.00  0.00    +0.010 A 
ATOM      8  C   UNL     1       0.767  -2.132   0.593  0.00  0.00    +0.001 A 
ATOM      9  C   UNL     1      -0.244  -2.768  -0.106  0.00  0.00    +0.000 A 
ATOM     10  C   UNL     1      -1.202  -2.026  -0.774  0.00  0.00    +0.001 A 
ATOM     11  C   UNL     1      -1.155  -0.647  -0.746  0.00  0.00    +0.010 A 
ENDBRANCH   5   6
BRANCH   3  12
ATOM     12  C   UNL     1       1.497   4.658  -0.201  0.00  0.00    +0.065 A 
ATOM     13  C   UNL     1       1.015   5.955  -0.083  0.00  0.00    +0.028 A 
ATOM     14  C   UNL     1       1.880   7.025  -0.202  0.00  0.00    +0.002 A 
ATOM     15  C   UNL     1       3.223   6.806  -0.449  0.00  0.00    +0.000 A 
ATOM     16  C   UNL     1       3.705   5.516  -0.572  0.00  0.00    +0.002 A 
ATOM     17  C   UNL     1       2.846   4.442  -0.449  0.00  0.00    +0.028 A 
ENDBRANCH   3  12
BRANCH   1  19
ATOM     18  N   UNL     1      -2.937   0.759   0.566  0.00  0.00    -0.187 NA
ATOM     19  C   UNL     1      -2.614   2.011   0.444  0.00  0.00    +0.142 C 
BRANCH  18  22
ATOM     20  C   UNL     1      -4.609  -0.900   0.913  0.00  0.00    +0.273 C 
ATOM     21  O   UNL     1      -3.752  -1.760   0.834  0.00  0.00    -0.268 OA
ATOM     22  N   UNL     1      -4.273   0.399   0.787  0.00  0.00    -0.202 N 
ATOM     23  H   UNL     1      -4.956   1.085   0.850  0.00  0.00    +0.178 HD
BRANCH  20  26
ATOM     24  C   UNL     1      -5.790  -3.817   1.258  0.00  0.00    +0.069 C 
ATOM     25  C   UNL     1      -6.583  -2.536   1.304  0.00  0.00    +0.081 A 
ATOM     26  C   UNL     1      -6.011  -1.278   1.145  0.00  0.00    +0.118 A 
ATOM     27  S   UNL     1      -7.462  -0.253   1.312  0.00  0.00    +0.042 S 
ATOM     28  N   UNL     1      -8.533  -1.394   1.532  0.00  0.00    -0.110 NA
ATOM     29  N   UNL     1      -7.880  -2.498   1.497  0.00  0.00    -0.146 NA
ENDBRANCH  20  26
ENDBRANCH  18  22
ENDBRANCH   1  19
TORSDOF 5
