REMARK  Name = ZINC08319222
REMARK  7 active torsions:
REMARK  status: ('A' for Active; 'I' for Inactive)
REMARK    1  A    between atoms: C_1  and  C_2
REMARK    2  A    between atoms: C_5  and  N_8
REMARK    3  A    between atoms: C_9  and  O_22
REMARK    4  A    between atoms: C_10  and  C_14
REMARK    5  A    between atoms: C_11  and  C_13
REMARK    6  A    between atoms: N_15  and  C_16
REMARK    7  A    between atoms: C_18  and  C_21
REMARK                            x       y       z     vdW  Elec       q    Type
REMARK                         _______ _______ _______ _____ _____    ______ ____
ROOT
ATOM      1  N   UNL     1       0.057  -4.172  -0.021  0.00  0.00    -0.200 N 
ATOM      2  C   UNL     1       0.696  -4.957   0.872  0.00  0.00    +0.225 A 
ATOM      3  C   UNL     1       0.457  -6.278   0.501  0.00  0.00    +0.077 A 
ATOM      4  C   UNL     1      -0.356  -6.241  -0.658  0.00  0.00    +0.073 A 
ATOM      5  N   UNL     1      -0.589  -4.992  -0.952  0.00  0.00    -0.168 NA
ATOM      6  C   UNL     1      -0.868  -7.438  -1.416  0.00  0.00    +0.068 C 
ENDROOT
BRANCH   1  11
ATOM      7  C   UNL     1      -0.018   1.503   0.010  0.00  0.00    +0.044 C 
ATOM      8  C   UNL     1       0.002  -0.004   0.002  0.00  0.00    -0.050 A 
ATOM      9  C   UNL     1       0.006  -0.688  -1.200  0.00  0.00    +0.005 A 
ATOM     10  C   UNL     1       0.024  -2.068  -1.211  0.00  0.00    +0.028 A 
ATOM     11  C   UNL     1       0.039  -2.771  -0.013  0.00  0.00    +0.069 A 
ATOM     12  C   UNL     1       0.036  -2.082   1.192  0.00  0.00    +0.028 A 
ATOM     13  C   UNL     1       0.023  -0.700   1.196  0.00  0.00    +0.005 A 
ENDBRANCH   1  11
BRANCH   3  14
ATOM     14  C   UNL     1       0.953  -7.477   1.180  0.00  0.00    +0.128 C 
ATOM     15  N   UNL     1       1.699  -7.363   2.247  0.00  0.00    -0.233 NA
BRANCH  15  16
ATOM     16  C   UNL     1       2.162  -8.483   2.881  0.00  0.00    +0.195 A 
ATOM     17  C   UNL     1       2.972  -8.511   4.045  0.00  0.00    +0.095 A 
ATOM     18  C   UNL     1       3.212  -9.796   4.354  0.00  0.00    +0.136 A 
ATOM     19  O   UNL     1       2.597 -10.571   3.447  0.00  0.00    -0.358 OA
ATOM     20  N   UNL     1       1.932  -9.727   2.524  0.00  0.00    -0.059 NA
ATOM     21  C   UNL     1       4.033 -10.284   5.520  0.00  0.00    +0.089 C 
ENDBRANCH  15  16
ENDBRANCH   3  14
BRANCH   2  22
ATOM     22  O   UNL     1       1.431  -4.540   1.929  0.00  0.00    -0.492 OA
ATOM     23  H   UNL     1       0.921  -4.430   2.744  0.00  0.00    +0.294 HD
ENDBRANCH   2  22
TORSDOF 4
