REMARK  Name = ZINC06636783
REMARK  11 active torsions:
REMARK  status: ('A' for Active; 'I' for Inactive)
REMARK    1  A    between atoms: C_1  and  C_2
REMARK    2  A    between atoms: C_2  and  N_3
REMARK    3  A    between atoms: C_5  and  C_9
REMARK    4  A    between atoms: C_6  and  C_8
REMARK    5  A    between atoms: C_9  and  C_11
REMARK    6  A    between atoms: C_9  and  N_12
REMARK    7  A    between atoms: C_13  and  C_15
REMARK    8  A    between atoms: N_20  and  S_22
REMARK    9  A    between atoms: S_22  and  C_25
REMARK   10  A    between atoms: N_28  and  C_31
REMARK   11  A    between atoms: C_29  and  C_30
REMARK                            x       y       z     vdW  Elec       q    Type
REMARK                         _______ _______ _______ _____ _____    ______ ____
ROOT
ATOM      1  C   UNL     1       3.736  -1.232   1.679  0.00  0.00    +0.091 C 
ATOM      2  C   UNL     1       3.562  -2.252   2.806  0.00  0.00    +0.015 C 
ATOM      3  C   UNL     1       3.171  -1.528   4.096  0.00  0.00    +0.018 C 
ATOM      4  C   UNL     1       1.841  -0.806   3.889  0.00  0.00    +0.109 C 
ATOM      5  N   UNL     1       1.950   0.070   2.714  0.00  0.00    -0.176 NA
ATOM      6  C   UNL     1       2.407  -0.507   1.442  0.00  0.00    +0.122 C 
ENDROOT
BRANCH   1   8
ATOM      7  N   UNL     1       5.300  -2.650   0.390  0.00  0.00    -0.308 N 
ATOM      8  C   UNL     1       4.153  -1.942   0.417  0.00  0.00    +0.218 C 
ATOM      9  O   UNL     1       3.458  -1.876  -0.574  0.00  0.00    -0.275 OA
ATOM     10  H   UNL     1       5.856  -2.703   1.183  0.00  0.00    +0.149 HD
BRANCH   7  11
ATOM     11  C   UNL     1       5.705  -3.341  -0.837  0.00  0.00    +0.103 C 
ATOM     12  C   UNL     1       5.028  -4.712  -0.898  0.00  0.00    +0.033 C 
BRANCH  11  15
ATOM     13  N   UNL     1       9.270  -3.735  -0.178  0.00  0.00    -0.271 N 
ATOM     14  C   UNL     1       8.002  -3.560   0.249  0.00  0.00    +0.114 A 
ATOM     15  C   UNL     1       7.202  -3.519  -0.842  0.00  0.00    +0.013 A 
ATOM     16  C   UNL     1       8.009  -3.665  -1.974  0.00  0.00    +0.065 A 
ATOM     17  N   UNL     1       9.249  -3.794  -1.578  0.00  0.00    -0.176 NA
ATOM     18  C   UNL     1       7.533  -3.671  -3.404  0.00  0.00    +0.068 C 
BRANCH  13  20
ATOM     19  C   UNL     1      11.208  -5.132   0.345  0.00  0.00    +0.029 C 
ATOM     20  C   UNL     1      10.459  -3.838   0.671  0.00  0.00    +0.140 C 
ENDBRANCH  13  20
ENDBRANCH  11  15
ENDBRANCH   7  11
ENDBRANCH   1   8
BRANCH   5  21
ATOM     21  S   UNL     1       1.573   1.679   2.823  0.00  0.00    +0.064 S 
ATOM     22  O   UNL     1       2.284   2.334   1.782  0.00  0.00    -0.153 OA
ATOM     23  O   UNL     1       1.720   2.039   4.190  0.00  0.00    -0.153 OA
BRANCH  21  24
ATOM     24  C   UNL     1      -0.140   1.839   2.442  0.00  0.00    +0.146 A 
ATOM     25  C   UNL     1      -1.142   2.264   3.320  0.00  0.00    +0.163 A 
ATOM     26  N   UNL     1      -2.281   2.253   2.676  0.00  0.00    -0.178 NA
ATOM     27  N   UNL     1      -2.039   1.824   1.365  0.00  0.00    -0.270 N 
ATOM     28  C   UNL     1      -0.718   1.572   1.248  0.00  0.00    +0.062 A 
ATOM     29  C   UNL     1      -0.013   1.086   0.008  0.00  0.00    +0.067 C 
ATOM     30  C   UNL     1      -3.042   1.673   0.308  0.00  0.00    +0.172 C 
ENDBRANCH  21  24
ENDBRANCH   5  21
TORSDOF 6
