REMARK  Name = ZINC64069940
REMARK  6 active torsions:
REMARK  status: ('A' for Active; 'I' for Inactive)
REMARK    1  A    between atoms: C_1  and  C_2
REMARK    2  A    between atoms: C_5  and  C_26
REMARK    3  A    between atoms: C_7  and  N_8
REMARK    4  A    between atoms: C_9  and  C_11
REMARK    5  A    between atoms: N_19  and  C_22
REMARK    6  A    between atoms: C_22  and  C_23
REMARK                            x       y       z     vdW  Elec       q    Type
REMARK                         _______ _______ _______ _____ _____    ______ ____
ROOT
ATOM      1  C   UNL     1      -0.166   0.056   4.859  0.00  0.00    +0.039 A 
ATOM      2  C   UNL     1      -0.190   1.459   4.851  0.00  0.00    +0.014 A 
ATOM      3  C   UNL     1      -0.291   2.161   6.014  0.00  0.00    +0.016 A 
ATOM      4  C   UNL     1      -0.371   1.480   7.237  0.00  0.00    +0.065 A 
ATOM      5  C   UNL     1      -0.348   0.061   7.259  0.00  0.00    +0.080 A 
ATOM      6  C   UNL     1      -0.249  -0.644   6.051  0.00  0.00    +0.041 A 
ATOM      7  N   UNL     1      -0.427  -0.575   8.437  0.00  0.00    -0.222 NA
ATOM      8  C   UNL     1      -0.525   0.105   9.569  0.00  0.00    +0.183 A 
ATOM      9  N   UNL     1      -0.551   1.448   9.601  0.00  0.00    -0.283 N 
ATOM     10  C   UNL     1      -0.477   2.171   8.462  0.00  0.00    +0.263 A 
ATOM     11  O   UNL     1      -0.504   3.515   8.496  0.00  0.00    -0.267 OA
ATOM     12  S   UNL     1      -0.623  -0.757  11.044  0.00  0.00    -0.011 S 
ENDROOT
BRANCH   1  14
ATOM     13  N   UNL     1       0.025  -0.008   2.417  0.00  0.00    -0.281 N 
ATOM     14  C   UNL     1      -0.057  -0.683   3.580  0.00  0.00    +0.248 C 
ATOM     15  O   UNL     1      -0.040  -1.898   3.580  0.00  0.00    -0.270 OA
ATOM     16  H   UNL     1       0.078   0.961   2.421  0.00  0.00    +0.155 HD
BRANCH  13  23
ATOM     17  C   UNL     1      -1.265   1.184   0.183  0.00  0.00    +0.045 C 
ATOM     18  C   UNL     1      -0.586  -0.158   0.085  0.00  0.00    -0.029 A 
ATOM     19  C   UNL     1      -0.576  -0.839  -1.118  0.00  0.00    +0.006 A 
ATOM     20  C   UNL     1       0.043  -2.067  -1.215  0.00  0.00    +0.019 A 
ATOM     21  C   UNL     1       0.664  -2.628  -0.096  0.00  0.00    +0.054 A 
ATOM     22  C   UNL     1       0.654  -1.940   1.118  0.00  0.00    +0.042 A 
ATOM     23  C   UNL     1       0.033  -0.704   1.204  0.00  0.00    +0.038 A 
BRANCH  21  24
ATOM     24  C   UNL     1       1.307  -3.903  -0.194  0.00  0.00    +0.099 C 
ATOM     25  N   UNL     1       1.817  -4.915  -0.272  0.00  0.00    -0.191 NA
ENDBRANCH  21  24
ENDBRANCH  13  23
ENDBRANCH   1  14
BRANCH   9  26
ATOM     26  C   UNL     1      -0.661   2.138  10.889  0.00  0.00    +0.154 C 
BRANCH  26  27
ATOM     27  C   UNL     1       0.717   2.399  11.438  0.00  0.00    -0.013 C 
ATOM     28  C   UNL     1       1.073   3.618  11.762  0.00  0.00    +0.005 C 
ENDBRANCH  26  27
ENDBRANCH   9  26
TORSDOF 5
