REMARK  Name = ZINC64045212
REMARK  6 active torsions:
REMARK  status: ('A' for Active; 'I' for Inactive)
REMARK    1  A    between atoms: C_1  and  C_2
REMARK    2  A    between atoms: C_2  and  C_3
REMARK    3  A    between atoms: C_2  and  N_4
REMARK    4  A    between atoms: C_6  and  C_9
REMARK    5  A    between atoms: N_23  and  C_24
REMARK    6  A    between atoms: C_24  and  C_25
REMARK                            x       y       z     vdW  Elec       q    Type
REMARK                         _______ _______ _______ _____ _____    ______ ____
ROOT
ATOM      1  C   UNL     1      -4.505  -1.530   1.576  0.00  0.00    +0.117 C 
ATOM      2  C   UNL     1      -5.474  -0.347   1.647  0.00  0.00    +0.128 C 
ATOM      3  C   UNL     1      -6.052  -0.185   0.246  0.00  0.00    -0.035 C 
ATOM      4  C   UNL     1      -5.838   1.075  -0.105  0.00  0.00    -0.001 A 
ATOM      5  C   UNL     1      -6.238   1.845  -1.294  0.00  0.00    +0.010 A 
ATOM      6  C   UNL     1      -5.828   3.141  -1.335  0.00  0.00    +0.001 A 
ATOM      7  C   UNL     1      -5.069   3.740  -0.325  0.00  0.00    +0.002 A 
ATOM      8  C   UNL     1      -4.662   3.109   0.805  0.00  0.00    +0.026 A 
ATOM      9  C   UNL     1      -5.037   1.744   0.966  0.00  0.00    +0.043 A 
ATOM     10  N   UNL     1      -4.803   0.912   1.963  0.00  0.00    -0.376 N 
ATOM     11  C   UNL     1      -6.633  -1.355  -0.512  0.00  0.00    +0.049 C 
ATOM     12  C   UNL     1      -5.608  -2.497  -0.391  0.00  0.00    +0.090 C 
ATOM     13  N   UNL     1      -5.223  -2.684   1.012  0.00  0.00    -0.289 NA
ATOM     14  H   UNL     1      -4.280   1.092   2.760  0.00  0.00    +0.160 HD
ENDROOT
BRANCH   1  17
ATOM     15  N   UNL     1      -1.304  -0.844  -0.031  0.00  0.00    -0.269 N 
ATOM     16  C   UNL     1      -2.030  -1.240   1.036  0.00  0.00    +0.113 A 
ATOM     17  C   UNL     1      -3.337  -1.177   0.691  0.00  0.00    +0.009 A 
ATOM     18  C   UNL     1      -3.413  -0.726  -0.631  0.00  0.00    +0.139 A 
ATOM     19  N   UNL     1      -2.195  -0.521  -1.062  0.00  0.00    -0.179 NA
BRANCH  15  21
ATOM     20  C   UNL     1       0.616   0.584   0.473  0.00  0.00    +0.032 C 
ATOM     21  C   UNL     1       0.157  -0.760  -0.096  0.00  0.00    +0.101 C 
ATOM     22  C   UNL     1       0.770  -1.897   0.725  0.00  0.00    +0.032 C 
ENDBRANCH  15  21
ENDBRANCH   1  17
BRANCH  13  23
ATOM     23  C   UNL     1      -4.450  -3.921   1.187  0.00  0.00    +0.120 C 
BRANCH  23  24
ATOM     24  C   UNL     1      -5.309  -5.106   0.826  0.00  0.00    -0.031 A 
ATOM     25  C   UNL     1      -6.083  -5.713   1.815  0.00  0.00    +0.007 A 
ATOM     26  C   UNL     1      -6.872  -6.778   1.541  0.00  0.00    +0.031 A 
ATOM     27  C   UNL     1      -6.926  -7.306   0.222  0.00  0.00    +0.100 A 
ATOM     28  C   UNL     1      -6.117  -6.671  -0.812  0.00  0.00    +0.100 A 
ATOM     29  C   UNL     1      -5.317  -5.552  -0.452  0.00  0.00    +0.035 A 
ATOM     30  N   UNL     1      -6.247  -7.248  -2.007  0.00  0.00    -0.191 NA
ATOM     31  S   UNL     1      -7.288  -8.456  -1.796  0.00  0.00    +0.116 S 
ATOM     32  N   UNL     1      -7.638  -8.339  -0.230  0.00  0.00    -0.191 NA
ENDBRANCH  23  24
ENDBRANCH  13  23
TORSDOF 4
