REMARK  Name = ZINC35521866
REMARK  7 active torsions:
REMARK  status: ('A' for Active; 'I' for Inactive)
REMARK    1  A    between atoms: C_1  and  C_2
REMARK    2  A    between atoms: C_6  and  C_8
REMARK    3  A    between atoms: C_8  and  N_9
REMARK    4  A    between atoms: C_10  and  C_17
REMARK    5  A    between atoms: C_23  and  C_26
REMARK    6  A    between atoms: N_29  and  C_30
REMARK    7  A    between atoms: C_35  and  C_36
REMARK                            x       y       z     vdW  Elec       q    Type
REMARK                         _______ _______ _______ _____ _____    ______ ____
ROOT
ATOM      1  C   UNL     1       2.153  -5.829   2.082  0.00  0.00    +0.263 C 
ATOM      2  O   UNL     1       2.893  -6.795   2.050  0.00  0.00    -0.268 OA
ATOM      3  N   UNL     1       1.041  -5.806   1.321  0.00  0.00    -0.293 N 
ATOM      4  C   UNL     1       0.021  -4.767   1.519  0.00  0.00    +0.127 C 
ATOM      5  C   UNL     1      -1.331  -5.449   1.769  0.00  0.00    +0.128 C 
ATOM      6  N   UNL     1      -1.545  -6.462   0.726  0.00  0.00    -0.280 N 
ATOM      7  C   UNL     1      -0.525  -7.501   0.528  0.00  0.00    +0.092 C 
ATOM      8  C   UNL     1       0.829  -6.816   0.275  0.00  0.00    +0.130 C 
ATOM      9  C   UNL     1      -0.899  -8.365  -0.678  0.00  0.00    +0.030 C 
ATOM     10  C   UNL     1      -2.658  -6.439  -0.034  0.00  0.00    +0.307 C 
ATOM     11  O   UNL     1      -2.885  -7.351  -0.806  0.00  0.00    -0.252 OA
ATOM     12  N   UNL     1      -3.518  -5.406   0.061  0.00  0.00    -0.269 N 
ATOM     13  H   UNL     1      -3.296  -4.640   0.613  0.00  0.00    +0.156 HD
ENDROOT
BRANCH   1  15
ATOM     14  N   UNL     1       3.163  -4.752   4.143  0.00  0.00    -0.303 N 
ATOM     15  C   UNL     1       2.473  -4.690   2.946  0.00  0.00    +0.108 A 
ATOM     16  C   UNL     1       2.140  -3.388   2.707  0.00  0.00    +0.044 A 
ATOM     17  C   UNL     1       2.634  -2.623   3.777  0.00  0.00    +0.040 A 
ATOM     18  C   UNL     1       3.262  -3.495   4.662  0.00  0.00    +0.209 A 
ATOM     19  O   UNL     1       3.727  -2.762   5.689  0.00  0.00    -0.447 OA
ATOM     20  C   UNL     1       3.434  -1.460   5.524  0.00  0.00    +0.198 A 
ATOM     21  C   UNL     1       2.772  -1.287   4.372  0.00  0.00    +0.051 A 
BRANCH  14  22
ATOM     22  C   UNL     1       3.696  -5.971   4.756  0.00  0.00    +0.160 C 
BRANCH  22  28
ATOM     23  C   UNL     1       1.929  -6.273   9.428  0.00  0.00    +0.044 C 
ATOM     24  C   UNL     1       1.849  -6.663   7.975  0.00  0.00    -0.050 A 
ATOM     25  C   UNL     1       0.856  -7.523   7.544  0.00  0.00    +0.003 A 
ATOM     26  C   UNL     1       0.782  -7.881   6.211  0.00  0.00    +0.001 A 
ATOM     27  C   UNL     1       1.702  -7.379   5.308  0.00  0.00    +0.005 A 
ATOM     28  C   UNL     1       2.694  -6.518   5.739  0.00  0.00    -0.027 A 
ATOM     29  C   UNL     1       2.765  -6.157   7.072  0.00  0.00    +0.008 A 
ENDBRANCH  22  28
ENDBRANCH  14  22
ENDBRANCH   1  15
BRANCH  12  30
ATOM     30  C   UNL     1      -4.731  -5.440  -0.636  0.00  0.00    +0.038 A 
ATOM     31  C   UNL     1      -5.192  -6.634  -1.175  0.00  0.00    +0.023 A 
ATOM     32  C   UNL     1      -6.389  -6.664  -1.861  0.00  0.00    +0.002 A 
ATOM     33  C   UNL     1      -7.130  -5.505  -2.014  0.00  0.00    +0.000 A 
ATOM     34  C   UNL     1      -6.674  -4.315  -1.479  0.00  0.00    +0.005 A 
ATOM     35  C   UNL     1      -5.479  -4.280  -0.785  0.00  0.00    -0.029 A 
ATOM     36  C   UNL     1      -4.986  -2.983  -0.198  0.00  0.00    +0.045 C 
ENDBRANCH  12  30
TORSDOF 4
