REMARK  Name = ZINC21238184
REMARK  10 active torsions:
REMARK  status: ('A' for Active; 'I' for Inactive)
REMARK    1  A    between atoms: C_1  and  C_2
REMARK    2  A    between atoms: C_7  and  O_8
REMARK    3  A    between atoms: O_8  and  C_9
REMARK    4  A    between atoms: C_9  and  C_10
REMARK    5  A    between atoms: C_10  and  C_11
REMARK    6  A    between atoms: C_11  and  O_13
REMARK    7  A    between atoms: O_13  and  C_14
REMARK    8  A    between atoms: C_14  and  C_15
REMARK    9  A    between atoms: C_17  and  O_18
REMARK   10  A    between atoms: C_27  and  C_29
REMARK                            x       y       z     vdW  Elec       q    Type
REMARK                         _______ _______ _______ _____ _____    ______ ____
ROOT
ATOM      1  C   UNL     1      -3.600  -6.345  -0.018  0.00  0.00    +0.007 A 
ATOM      2  C   UNL     1      -2.386  -6.921  -0.220  0.00  0.00    +0.095 A 
ATOM      3  C   UNL     1      -2.295  -8.316  -0.407  0.00  0.00    +0.285 A 
ATOM      4  O   UNL     1      -3.383  -9.102  -0.393  0.00  0.00    -0.425 OA
ATOM      5  C   UNL     1      -4.619  -8.592  -0.198  0.00  0.00    +0.141 A 
ATOM      6  C   UNL     1      -4.782  -7.208   0.002  0.00  0.00    +0.024 A 
ATOM      7  C   UNL     1      -6.061  -6.675   0.199  0.00  0.00    +0.014 A 
ATOM      8  C   UNL     1      -7.147  -7.501   0.208  0.00  0.00    +0.024 A 
ATOM      9  C   UNL     1      -6.991  -8.874   0.015  0.00  0.00    +0.037 A 
ATOM     10  C   UNL     1      -5.732  -9.418  -0.187  0.00  0.00    +0.070 A 
ATOM     11  N   UNL     1      -8.111  -9.705   0.026  0.00  0.00    -0.286 N 
ATOM     12  C   UNL     1      -8.015 -10.959   0.512  0.00  0.00    +0.214 C 
ATOM     13  O   UNL     1      -6.982 -11.332   1.026  0.00  0.00    -0.276 OA
ATOM     14  C   UNL     1      -9.191 -11.897   0.415  0.00  0.00    +0.109 C 
ATOM     15  H   UNL     1      -9.073  -9.338  -0.361  0.00  0.00    +0.155 HD
ENDROOT
BRANCH   3  16
ATOM     16  O   UNL     1      -1.201  -8.820  -0.587  0.00  0.00    -0.480 OA
ATOM     17  H   UNL     1      -1.114  -9.907  -0.735  0.00  0.00    +0.295 HD
ENDBRANCH   3  16
BRANCH   1  18
ATOM     18  C   UNL     1      -3.725  -4.857   0.186  0.00  0.00    +0.268 C 
BRANCH  18  19
ATOM     19  O   UNL     1      -2.408  -4.247   0.125  0.00  0.00    -0.460 OA
BRANCH  19  20
ATOM     20  C   UNL     1      -2.345  -2.917   0.288  0.00  0.00    +0.311 C 
ATOM     21  O   UNL     1      -3.356  -2.282   0.476  0.00  0.00    -0.251 OA
BRANCH  20  22
ATOM     22  C   UNL     1      -1.012  -2.214   0.238  0.00  0.00    +0.161 C 
BRANCH  22  23
ATOM     23  C   UNL     1      -1.219  -0.713   0.452  0.00  0.00    +0.240 C 
BRANCH  23  24
ATOM     24  O   UNL     1       0.045  -0.047   0.404  0.00  0.00    -0.491 OA
BRANCH  24  31
ATOM     25  C   UNL     1       2.532   1.289   0.313  0.00  0.00    +0.047 C 
ATOM     26  C   UNL     1       1.229   2.011   0.542  0.00  0.00    -0.009 A 
ATOM     27  C   UNL     1       1.220   3.381   0.718  0.00  0.00    +0.007 A 
ATOM     28  C   UNL     1       0.026   4.045   0.928  0.00  0.00    +0.000 A 
ATOM     29  C   UNL     1      -1.163   3.339   0.963  0.00  0.00    +0.004 A 
ATOM     30  C   UNL     1      -1.160   1.969   0.783  0.00  0.00    +0.046 A 
ATOM     31  C   UNL     1       0.038   1.301   0.577  0.00  0.00    +0.123 A 
ENDBRANCH  24  31
ENDBRANCH  23  24
ENDBRANCH  22  23
ENDBRANCH  20  22
ENDBRANCH  19  20
ENDBRANCH  18  19
ENDBRANCH   1  18
TORSDOF 8
