REMARK  Name = ZINC25045235
REMARK  7 active torsions:
REMARK  status: ('A' for Active; 'I' for Inactive)
REMARK    1  A    between atoms: C_1  and  C_2
REMARK    2  A    between atoms: C_3  and  C_15
REMARK    3  A    between atoms: C_4  and  C_14
REMARK    4  A    between atoms: C_8  and  C_11
REMARK    5  A    between atoms: C_15  and  C_16
REMARK    6  A    between atoms: C_16  and  C_17
REMARK    7  A    between atoms: N_19  and  C_20
REMARK                            x       y       z     vdW  Elec       q    Type
REMARK                         _______ _______ _______ _____ _____    ______ ____
ROOT
ATOM      1  C   UNL     1      -3.750   1.624   2.546  0.00  0.00    +0.066 C 
ATOM      2  C   UNL     1      -4.408   2.003   1.245  0.00  0.00    +0.045 A 
ATOM      3  C   UNL     1      -3.794   1.670   0.029  0.00  0.00    -0.006 A 
ATOM      4  C   UNL     1      -4.396   2.010  -1.137  0.00  0.00    +0.028 A 
ATOM      5  N   UNL     1      -5.588   2.676  -1.099  0.00  0.00    -0.287 N 
ATOM      6  C   UNL     1      -6.420   3.145  -2.071  0.00  0.00    +0.206 A 
ATOM      7  N   UNL     1      -7.452   3.720  -1.525  0.00  0.00    -0.229 NA
ATOM      8  C   UNL     1      -7.349   3.659  -0.180  0.00  0.00    +0.169 A 
ATOM      9  C   UNL     1      -6.153   2.990   0.112  0.00  0.00    +0.170 A 
ATOM     10  N   UNL     1      -5.552   2.650   1.253  0.00  0.00    -0.232 NA
ATOM     11  C   UNL     1      -3.759   1.658  -2.457  0.00  0.00    +0.064 C 
ENDROOT
BRANCH   8  12
ATOM     12  C   UNL     1      -8.306   4.192   0.790  0.00  0.00    +0.264 C 
ATOM     13  O   UNL     1      -8.095   4.071   1.983  0.00  0.00    -0.269 OA
ATOM     14  N   UNL     1      -9.421   4.816   0.363  0.00  0.00    -0.324 N 
ATOM     15  H   UNL     1     -10.141   5.217   1.092  0.00  0.00    +0.145 HD
ATOM     16  H   UNL     1      -9.612   4.926  -0.715  0.00  0.00    +0.145 HD
ENDBRANCH   8  12
BRANCH   3  17
ATOM     17  C   UNL     1      -2.479   0.934   0.019  0.00  0.00    +0.048 C 
BRANCH  17  18
ATOM     18  C   UNL     1      -1.330   1.944   0.019  0.00  0.00    +0.100 C 
BRANCH  18  19
ATOM     19  C   UNL     1      -0.014   1.209   0.009  0.00  0.00    +0.214 C 
ATOM     20  O   UNL     1       0.002  -0.004   0.002  0.00  0.00    -0.276 OA
ATOM     21  N   UNL     1       1.143   1.898   0.001  0.00  0.00    -0.312 N 
ATOM     22  H   UNL     1       1.129   2.998   0.007  0.00  0.00    +0.149 HD
BRANCH  21  23
ATOM     23  C   UNL     1       2.422   1.183  -0.015  0.00  0.00    +0.073 C 
ATOM     24  C   UNL     1       2.774   0.757   1.425  0.00  0.00    +0.022 C 
ATOM     25  C   UNL     1       3.765  -0.374   1.360  0.00  0.00    +0.002 C 
ATOM     26  C   UNL     1       5.223   0.114   1.454  0.00  0.00    +0.000 C 
ATOM     27  C   UNL     1       5.481   1.387   0.625  0.00  0.00    +0.000 C 
ATOM     28  C   UNL     1       4.806   1.346  -0.719  0.00  0.00    +0.002 C 
ATOM     29  C   UNL     1       3.437   2.045  -0.602  0.00  0.00    +0.022 C 
ENDBRANCH  21  23
ENDBRANCH  18  19
ENDBRANCH  17  18
ENDBRANCH   3  17
TORSDOF 5
