REMARK  Name = ZINC52121543
REMARK  4 active torsions:
REMARK  status: ('A' for Active; 'I' for Inactive)
REMARK    1  A    between atoms: C_3  and  N_16
REMARK    2  A    between atoms: C_4  and  N_8
REMARK    3  A    between atoms: C_11  and  C_14
REMARK    4  A    between atoms: C_14  and  O_15
REMARK                            x       y       z     vdW  Elec       q    Type
REMARK                         _______ _______ _______ _____ _____    ______ ____
ROOT
ATOM      1  C   UNL     1      -0.094   1.218   0.020  0.00  0.00    +0.041 A 
ATOM      2  C   UNL     1       0.101  -0.147  -0.074  0.00  0.00    +0.037 A 
ATOM      3  C   UNL     1       1.382  -0.664  -0.098  0.00  0.00    +0.147 A 
ATOM      4  C   UNL     1       2.476   0.190  -0.029  0.00  0.00    +0.063 A 
ATOM      5  C   UNL     1       2.279   1.561   0.065  0.00  0.00    +0.063 A 
ATOM      6  C   UNL     1       0.994   2.073   0.089  0.00  0.00    +0.125 A 
ATOM      7  F   UNL     1       0.800   3.407   0.181  0.00  0.00    -0.205 F 
ENDROOT
BRANCH   4   8
ATOM      8  N   UNL     1       3.772  -0.331  -0.054  0.00  0.00    -0.328 N 
ATOM      9  C   UNL     1       4.436  -0.745   1.190  0.00  0.00    +0.105 C 
ATOM     10  C   UNL     1       5.791  -0.037   1.284  0.00  0.00    +0.024 C 
ATOM     11  C   UNL     1       6.599  -0.320   0.016  0.00  0.00    +0.017 C 
ATOM     12  C   UNL     1       5.851   0.229  -1.201  0.00  0.00    +0.024 C 
ATOM     13  C   UNL     1       4.495  -0.481  -1.324  0.00  0.00    +0.105 C 
BRANCH  11  14
ATOM     14  C   UNL     1       7.967   0.357   0.122  0.00  0.00    +0.159 C 
BRANCH  14  15
ATOM     15  O   UNL     1       8.765  -0.002  -1.008  0.00  0.00    -0.395 OA
ATOM     16  H   UNL     1       9.648   0.392  -1.007  0.00  0.00    +0.209 HD
ENDBRANCH  14  15
ENDBRANCH  11  14
ENDBRANCH   4   8
BRANCH   3  17
ATOM     17  N   UNL     1       1.588  -2.126  -0.198  0.00  0.00    +0.058 N 
ATOM     18  O   UNL     1       0.640  -2.874  -0.161  0.00  0.00    -0.126 OA
ATOM     19  O   UNL     1       2.706  -2.572  -0.316  0.00  0.00    -0.126 OA
ENDBRANCH   3  17
TORSDOF 4
