REMARK  Name = ZINC48607928
REMARK  6 active torsions:
REMARK  status: ('A' for Active; 'I' for Inactive)
REMARK    1  A    between atoms: C_1  and  C_2
REMARK    2  A    between atoms: N_8  and  C_9
REMARK    3  A    between atoms: C_10  and  S_12
REMARK    4  A    between atoms: S_12  and  C_13
REMARK    5  A    between atoms: C_16  and  S_18
REMARK    6  A    between atoms: S_18  and  C_19
REMARK                            x       y       z     vdW  Elec       q    Type
REMARK                         _______ _______ _______ _____ _____    ______ ____
ROOT
ATOM      1  C   UNL     1      -0.018   1.503   0.010  0.00  0.00    +0.088 C 
ATOM      2  C   UNL     1       0.002  -0.004   0.002  0.00  0.00    +0.130 A 
ATOM      3  N   UNL     1       0.005  -0.629  -1.155  0.00  0.00    -0.213 NA
ATOM      4  C   UNL     1       0.023  -1.960  -1.210  0.00  0.00    +0.163 A 
ATOM      5  C   UNL     1       0.039  -2.689  -0.005  0.00  0.00    +0.071 A 
ATOM      6  C   UNL     1       0.057  -4.057  -0.349  0.00  0.00    +0.147 A 
ATOM      7  N   UNL     1       0.052  -4.156  -1.648  0.00  0.00    -0.177 NA
ATOM      8  N   UNL     1       0.031  -2.877  -2.219  0.00  0.00    -0.249 N 
ATOM      9  C   UNL     1       0.019  -2.576  -3.652  0.00  0.00    +0.174 C 
ATOM     10  C   UNL     1       0.035  -1.972   1.208  0.00  0.00    +0.118 A 
ATOM     11  N   UNL     1       0.022  -0.644   1.157  0.00  0.00    -0.225 NA
ENDROOT
BRANCH  10  12
ATOM     12  S   UNL     1       0.054  -2.816   2.755  0.00  0.00    -0.040 S 
BRANCH  12  13
ATOM     13  C   UNL     1       0.042  -1.520   3.948  0.00  0.00    +0.165 A 
ATOM     14  N   UNL     1       0.018  -0.214   3.763  0.00  0.00    -0.134 NA
ATOM     15  N   UNL     1       0.012   0.631   4.848  0.00  0.00    -0.134 NA
ATOM     16  C   UNL     1       0.031   0.131   6.070  0.00  0.00    +0.159 A 
ATOM     17  S   UNL     1       0.052  -1.623   5.731  0.00  0.00    -0.033 S 
BRANCH  16  18
ATOM     18  S   UNL     1       0.030   0.970   7.620  0.00  0.00    -0.100 S 
ATOM     19  C   UNL     1      -0.004   2.726   7.168  0.00  0.00    +0.092 C 
ENDBRANCH  16  18
ENDBRANCH  12  13
ENDBRANCH  10  12
TORSDOF 3
