REMARK  Name = ZINC50175639
REMARK  7 active torsions:
REMARK  status: ('A' for Active; 'I' for Inactive)
REMARK    1  A    between atoms: C_1  and  C_2
REMARK    2  A    between atoms: C_7  and  C_9
REMARK    3  A    between atoms: C_7  and  C_10
REMARK    4  A    between atoms: C_11  and  C_13
REMARK    5  A    between atoms: N_15  and  C_16
REMARK    6  A    between atoms: C_20  and  C_22
REMARK    7  A    between atoms: N_24  and  C_25
REMARK                            x       y       z     vdW  Elec       q    Type
REMARK                         _______ _______ _______ _____ _____    ______ ____
ROOT
ATOM      1  C   UNL     1      -0.251  -2.220  -3.318  0.00  0.00    +0.303 C 
ATOM      2  O   UNL     1      -0.481  -1.031  -3.395  0.00  0.00    -0.265 OA
ATOM      3  N   UNL     1      -0.635  -3.046  -4.312  0.00  0.00    -0.278 N 
ATOM      4  H   UNL     1      -0.523  -4.005  -4.216  0.00  0.00    +0.155 HD
ENDROOT
BRANCH   1  14
ATOM      5  C   UNL     1      -0.668   1.263   0.319  0.00  0.00    +0.039 C 
ATOM      6  C   UNL     1      -0.422  -0.243   0.213  0.00  0.00    +0.133 C 
ATOM      7  C   UNL     1       0.337  -0.548  -1.083  0.00  0.00    +0.139 C 
ATOM      8  N   UNL     1       0.724  -1.968  -1.072  0.00  0.00    -0.289 N 
ATOM      9  C   UNL     1       1.411  -2.488   0.121  0.00  0.00    +0.142 C 
ATOM     10  C   UNL     1       0.600  -2.088   1.359  0.00  0.00    +0.080 C 
ATOM     11  O   UNL     1       0.357  -0.680   1.329  0.00  0.00    -0.368 OA
ATOM     12  C   UNL     1       1.385  -2.445   2.622  0.00  0.00    +0.043 C 
ATOM     13  C   UNL     1      -0.735  -2.836   1.358  0.00  0.00    +0.043 C 
ATOM     14  C   UNL     1       0.457  -2.768  -2.123  0.00  0.00    +0.302 C 
ATOM     15  O   UNL     1       0.792  -3.934  -2.098  0.00  0.00    -0.265 OA
ENDBRANCH   1  14
BRANCH   3  16
ATOM     16  C   UNL     1      -1.193  -2.521  -5.481  0.00  0.00    +0.035 A 
ATOM     17  C   UNL     1      -0.828  -1.251  -5.916  0.00  0.00    +0.026 A 
ATOM     18  C   UNL     1      -1.376  -0.726  -7.070  0.00  0.00    +0.041 A 
ATOM     19  C   UNL     1      -2.293  -1.460  -7.801  0.00  0.00    +0.136 A 
ATOM     20  C   UNL     1      -2.665  -2.738  -7.372  0.00  0.00    +0.074 A 
ATOM     21  C   UNL     1      -2.106  -3.268  -6.209  0.00  0.00    +0.039 A 
ATOM     22  F   UNL     1      -2.827  -0.943  -8.929  0.00  0.00    -0.205 F 
BRANCH  20  23
ATOM     23  C   UNL     1      -3.644  -3.525  -8.150  0.00  0.00    +0.247 C 
ATOM     24  O   UNL     1      -4.126  -3.063  -9.165  0.00  0.00    -0.270 OA
ATOM     25  N   UNL     1      -4.001  -4.756  -7.734  0.00  0.00    -0.314 N 
ATOM     26  C   UNL     1      -4.971  -5.537  -8.505  0.00  0.00    +0.128 C 
ATOM     27  H   UNL     1      -3.616  -5.125  -6.923  0.00  0.00    +0.149 HD
ENDBRANCH  20  23
ENDBRANCH   3  16
TORSDOF 3
