REMARK  Name = ZINC55502679
REMARK  5 active torsions:
REMARK  status: ('A' for Active; 'I' for Inactive)
REMARK    1  A    between atoms: C_1  and  C_2
REMARK    2  A    between atoms: C_2  and  C_3
REMARK    3  A    between atoms: C_2  and  N_4
REMARK    4  A    between atoms: C_5  and  C_7
REMARK    5  A    between atoms: C_7  and  C_8
REMARK                            x       y       z     vdW  Elec       q    Type
REMARK                         _______ _______ _______ _____ _____    ______ ____
ROOT
ATOM      1  C   UNL     1      -3.088  -3.635  -1.082  0.00  0.00    +0.120 A 
ATOM      2  N   UNL     1      -4.272  -4.295  -1.178  0.00  0.00    -0.310 N 
ATOM      3  H   UNL     1      -5.081  -3.869  -0.855  0.00  0.00    +0.170 HD
ATOM      4  C   UNL     1      -4.344  -5.527  -1.715  0.00  0.00    +0.260 A 
ATOM      5  O   UNL     1      -5.414  -6.107  -1.795  0.00  0.00    -0.267 OA
ATOM      6  C   UNL     1      -3.142  -6.147  -2.190  0.00  0.00    +0.076 A 
ATOM      7  C   UNL     1      -2.989  -7.473  -2.800  0.00  0.00    -0.012 A 
ATOM      8  C   UNL     1      -1.729  -7.815  -3.171  0.00  0.00    +0.051 A 
ATOM      9  S   UNL     1      -0.710  -6.440  -2.725  0.00  0.00    -0.062 S 
ATOM     10  C   UNL     1      -1.971  -5.389  -2.048  0.00  0.00    +0.117 A 
ATOM     11  N   UNL     1      -1.978  -4.172  -1.511  0.00  0.00    -0.226 NA
ATOM     12  S   UNL     1      -1.238  -9.317  -3.941  0.00  0.00    -0.118 S 
ATOM     13  C   UNL     1      -2.750 -10.324  -3.774  0.00  0.00    +0.075 C 
ATOM     14  C   UNL     1      -3.938  -9.410  -4.106  0.00  0.00    +0.016 C 
ATOM     15  C   UNL     1      -4.176  -8.405  -2.990  0.00  0.00    +0.038 C 
ENDROOT
BRANCH   1  16
ATOM     16  C   UNL     1      -3.057  -2.256  -0.474  0.00  0.00    +0.170 C 
BRANCH  16  18
ATOM     17  N   UNL     1      -1.372  -0.511   0.012  0.00  0.00    -0.313 N 
ATOM     18  C   UNL     1      -1.643  -1.734  -0.485  0.00  0.00    +0.221 C 
ATOM     19  O   UNL     1      -0.749  -2.415  -0.941  0.00  0.00    -0.275 OA
ATOM     20  H   UNL     1      -2.087   0.033   0.377  0.00  0.00    +0.149 HD
BRANCH  17  22
ATOM     21  C   UNL     1      -0.019   1.526   0.010  0.00  0.00    +0.027 C 
ATOM     22  C   UNL     1       0.002  -0.004   0.002  0.00  0.00    +0.067 C 
ATOM     23  C   UNL     1       0.742  -0.511   1.242  0.00  0.00    +0.027 C 
ENDBRANCH  17  22
ENDBRANCH  16  18
ENDBRANCH   1  16
TORSDOF 3
