REMARK  Name = ZINC63807449
REMARK  8 active torsions:
REMARK  status: ('A' for Active; 'I' for Inactive)
REMARK    1  A    between atoms: C_1  and  O_2
REMARK    2  A    between atoms: O_2  and  C_3
REMARK    3  A    between atoms: C_6  and  O_31
REMARK    4  A    between atoms: C_9  and  C_13
REMARK    5  A    between atoms: N_18  and  S_21
REMARK    6  A    between atoms: S_21  and  C_24
REMARK    7  A    between atoms: C_24  and  C_25
REMARK    8  A    between atoms: O_31  and  C_32
REMARK                            x       y       z     vdW  Elec       q    Type
REMARK                         _______ _______ _______ _____ _____    ______ ____
ROOT
ATOM      1  C   UNL     1      -0.707  -5.176  -1.234  0.00  0.00    +0.242 C 
ATOM      2  O   UNL     1      -1.573  -5.440  -2.041  0.00  0.00    -0.273 OA
ATOM      3  N   UNL     1       0.559  -5.587  -1.444  0.00  0.00    -0.297 N 
ATOM      4  C   UNL     1       1.617  -5.279  -0.472  0.00  0.00    +0.125 C 
ATOM      5  C   UNL     1       2.286  -6.591  -0.044  0.00  0.00    +0.128 C 
ATOM      6  N   UNL     1       2.633  -7.357  -1.250  0.00  0.00    -0.178 NA
ATOM      7  C   UNL     1       1.575  -7.665  -2.222  0.00  0.00    +0.128 C 
ATOM      8  C   UNL     1       0.905  -6.357  -2.647  0.00  0.00    +0.125 C 
ENDROOT
BRANCH   1  15
ATOM      9  C   UNL     1      -1.198  -0.636   0.010  0.00  0.00    +0.129 A 
ATOM     10  C   UNL     1      -2.350   0.082   0.019  0.00  0.00    +0.050 A 
ATOM     11  C   UNL     1      -3.609  -0.524   0.028  0.00  0.00    +0.051 A 
ATOM     12  C   UNL     1      -3.774  -1.871   0.027  0.00  0.00    +0.144 A 
ATOM     13  C   UNL     1      -2.598  -2.747   0.017  0.00  0.00    +0.089 A 
ATOM     14  N   UNL     1      -2.476  -4.053   0.015  0.00  0.00    -0.367 N 
ATOM     15  C   UNL     1      -1.047  -4.387   0.004  0.00  0.00    +0.190 C 
ATOM     16  C   UNL     1      -0.312  -3.065   0.000  0.00  0.00    +0.020 C 
ATOM     17  C   UNL     1      -1.262  -2.107   0.003  0.00  0.00    +0.042 A 
ATOM     18  H   UNL     1      -3.207  -4.690   0.020  0.00  0.00    +0.161 HD
BRANCH   9  20
ATOM     19  C   UNL     1      -0.017   1.425   0.010  0.00  0.00    +0.277 C 
ATOM     20  O   UNL     1       0.002  -0.004   0.002  0.00  0.00    -0.494 OA
ENDBRANCH   9  20
BRANCH  12  21
ATOM     21  O   UNL     1      -5.024  -2.406   0.036  0.00  0.00    -0.493 OA
ATOM     22  C   UNL     1      -6.122  -1.491   0.046  0.00  0.00    +0.277 C 
ENDBRANCH  12  21
ENDBRANCH   1  15
BRANCH   6  23
ATOM     23  S   UNL     1       4.189  -7.862  -1.509  0.00  0.00    +0.036 S 
ATOM     24  O   UNL     1       4.301  -7.983  -2.920  0.00  0.00    -0.158 OA
ATOM     25  O   UNL     1       4.995  -6.935  -0.794  0.00  0.00    -0.158 OA
BRANCH  23  26
ATOM     26  C   UNL     1       4.282  -9.499  -0.732  0.00  0.00    +0.220 C 
BRANCH  26  27
ATOM     27  C   UNL     1       5.669 -10.061  -0.909  0.00  0.00    -0.025 A 
ATOM     28  C   UNL     1       5.971 -10.821  -2.023  0.00  0.00    +0.005 A 
ATOM     29  C   UNL     1       7.243 -11.336  -2.185  0.00  0.00    +0.000 A 
ATOM     30  C   UNL     1       8.215 -11.090  -1.232  0.00  0.00    +0.000 A 
ATOM     31  C   UNL     1       7.914 -10.329  -0.119  0.00  0.00    +0.000 A 
ATOM     32  C   UNL     1       6.642  -9.810   0.041  0.00  0.00    +0.005 A 
ENDBRANCH  26  27
ENDBRANCH  23  26
ENDBRANCH   6  23
TORSDOF 6
