REMARK  Name = ZINC04386359
REMARK  6 active torsions:
REMARK  status: ('A' for Active; 'I' for Inactive)
REMARK    1  A    between atoms: C_1  and  C_2
REMARK    2  A    between atoms: C_4  and  C_26
REMARK    3  A    between atoms: C_6  and  N_8
REMARK    4  A    between atoms: N_18  and  C_23
REMARK    5  A    between atoms: N_21  and  C_22
REMARK    6  A    between atoms: C_23  and  C_24
REMARK                            x       y       z     vdW  Elec       q    Type
REMARK                         _______ _______ _______ _____ _____    ______ ____
ROOT
ATOM      1  N   UNL     1      -6.071  -1.996  -3.811  0.00  0.00    -0.269 N 
ATOM      2  C   UNL     1      -6.318  -2.816  -2.619  0.00  0.00    +0.135 C 
ATOM      3  C   UNL     1      -5.392  -2.217  -1.547  0.00  0.00    +0.144 C 
ATOM      4  N   UNL     1      -4.704  -1.112  -2.230  0.00  0.00    -0.304 N 
ATOM      5  C   UNL     1      -5.129  -1.033  -3.513  0.00  0.00    +0.205 A 
ATOM      6  N   UNL     1      -4.496  -0.029  -4.110  0.00  0.00    -0.196 NA
ATOM      7  C   UNL     1      -3.661   0.561  -3.257  0.00  0.00    +0.170 A 
ATOM      8  C   UNL     1      -3.767  -0.105  -2.042  0.00  0.00    +0.153 A 
ATOM      9  C   UNL     1      -2.984   0.319  -0.953  0.00  0.00    +0.283 A 
ATOM     10  O   UNL     1      -3.061  -0.252   0.121  0.00  0.00    -0.265 OA
ATOM     11  N   UNL     1      -2.146   1.365  -1.112  0.00  0.00    -0.255 N 
ATOM     12  C   UNL     1      -2.055   2.006  -2.290  0.00  0.00    +0.334 A 
ATOM     13  O   UNL     1      -1.294   2.948  -2.394  0.00  0.00    -0.246 OA
ATOM     14  N   UNL     1      -2.783   1.629  -3.358  0.00  0.00    -0.279 N 
ATOM     15  C   UNL     1      -2.651   2.350  -4.626  0.00  0.00    +0.155 C 
ENDROOT
BRANCH   1  21
ATOM     16  C   UNL     1      -9.255  -4.434  -6.653  0.00  0.00    +0.044 C 
ATOM     17  C   UNL     1      -8.240  -3.338  -6.459  0.00  0.00    -0.048 A 
ATOM     18  C   UNL     1      -7.920  -2.498  -7.509  0.00  0.00    +0.006 A 
ATOM     19  C   UNL     1      -6.989  -1.491  -7.335  0.00  0.00    -0.048 A 
ATOM     20  C   UNL     1      -6.374  -1.321  -6.110  0.00  0.00    +0.027 A 
ATOM     21  C   UNL     1      -6.692  -2.164  -5.053  0.00  0.00    +0.037 A 
ATOM     22  C   UNL     1      -7.625  -3.178  -5.233  0.00  0.00    +0.027 A 
ATOM     23  C   UNL     1      -6.645  -0.577  -8.483  0.00  0.00    +0.044 C 
ENDBRANCH   1  21
BRANCH  11  24
ATOM     24  C   UNL     1      -1.328   1.812   0.018  0.00  0.00    +0.156 C 
BRANCH  24  25
ATOM     25  C   UNL     1      -0.013   1.076   0.008  0.00  0.00    -0.013 C 
ATOM     26  C   UNL     1       1.113   1.746   0.001  0.00  0.00    +0.005 C 
ENDBRANCH  24  25
ENDBRANCH  11  24
TORSDOF 3
