REMARK  Name = ZINC22363058
REMARK  12 active torsions:
REMARK  status: ('A' for Active; 'I' for Inactive)
REMARK    1  A    between atoms: C_1  and  C_2
REMARK    2  A    between atoms: C_2  and  C_3
REMARK    3  A    between atoms: C_3  and  C_4
REMARK    4  A    between atoms: C_3  and  C_5
REMARK    5  A    between atoms: C_3  and  N_6
REMARK    6  A    between atoms: C_7  and  C_9
REMARK    7  A    between atoms: C_9  and  N_10
REMARK    8  A    between atoms: N_10  and  C_11
REMARK    9  A    between atoms: N_10  and  S_19
REMARK   10  A    between atoms: C_14  and  C_18
REMARK   11  A    between atoms: C_15  and  C_17
REMARK   12  A    between atoms: S_19  and  C_22
REMARK                            x       y       z     vdW  Elec       q    Type
REMARK                         _______ _______ _______ _____ _____    ______ ____
ROOT
ATOM      1  N   UNL     1      -0.342   1.625  -0.033  0.00  0.00    -0.194 N 
ENDROOT
BRANCH   1   2
ATOM      2  C   UNL     1       0.793   2.415  -0.232  0.00  0.00    +0.052 A 
ATOM      3  C   UNL     1       2.053   1.912   0.067  0.00  0.00    +0.025 A 
ATOM      4  C   UNL     1       3.172   2.694  -0.136  0.00  0.00    +0.005 A 
ATOM      5  C   UNL     1       3.040   3.981  -0.625  0.00  0.00    -0.047 A 
ATOM      6  C   UNL     1       1.787   4.487  -0.918  0.00  0.00    -0.046 A 
ATOM      7  C   UNL     1       0.663   3.708  -0.723  0.00  0.00    +0.028 A 
ATOM      8  C   UNL     1       1.647   5.889  -1.451  0.00  0.00    +0.044 C 
ATOM      9  C   UNL     1       4.264   4.833  -0.839  0.00  0.00    +0.044 C 
ENDBRANCH   1   2
BRANCH   1  10
ATOM     10  S   UNL     1      -0.490   0.176  -0.822  0.00  0.00    +0.075 S 
ATOM     11  O   UNL     1      -1.881  -0.105  -0.897  0.00  0.00    -0.150 OA
ATOM     12  O   UNL     1       0.335   0.256  -1.976  0.00  0.00    -0.150 OA
BRANCH  10  13
ATOM     13  C   UNL     1       0.217  -1.058   0.218  0.00  0.00    +0.109 A 
ATOM     14  C   UNL     1       1.522  -1.467   0.017  0.00  0.00    +0.030 A 
ATOM     15  C   UNL     1       2.079  -2.431   0.836  0.00  0.00    +0.022 A 
ATOM     16  C   UNL     1       1.326  -2.995   1.850  0.00  0.00    +0.041 A 
ATOM     17  C   UNL     1       0.018  -2.589   2.048  0.00  0.00    +0.022 A 
ATOM     18  C   UNL     1      -0.536  -1.621   1.232  0.00  0.00    +0.030 A 
ATOM     19 CL   UNL     1       2.023  -4.210   2.875  0.00  0.00    -0.084 Cl
ENDBRANCH  10  13
ENDBRANCH   1  10
BRANCH   1  20
ATOM     20  C   UNL     1      -1.403   2.080   0.868  0.00  0.00    +0.227 C 
BRANCH  20  22
ATOM     21  N   UNL     1      -1.903   2.002   3.289  0.00  0.00    -0.309 N 
ATOM     22  C   UNL     1      -1.065   1.685   2.283  0.00  0.00    +0.233 C 
ATOM     23  O   UNL     1      -0.038   1.083   2.515  0.00  0.00    -0.274 OA
ATOM     24  H   UNL     1      -2.834   2.548   3.079  0.00  0.00    +0.149 HD
BRANCH  21  25
ATOM     25  C   UNL     1      -1.574   1.618   4.664  0.00  0.00    +0.029 C 
ATOM     26  C   UNL     1      -1.449   0.096   4.753  0.00  0.00    +0.031 C 
ATOM     27  C   UNL     1      -0.248   2.264   5.071  0.00  0.00    +0.031 C 
BRANCH  25  29
ATOM     28  C   UNL     1      -2.339   1.693   7.042  0.00  0.00    +0.006 C 
ATOM     29  C   UNL     1      -2.683   2.094   5.606  0.00  0.00    +0.022 C 
ENDBRANCH  25  29
ENDBRANCH  21  25
ENDBRANCH  20  22
ENDBRANCH   1  20
TORSDOF 7
