REMARK  Name = ZINC04611937
REMARK  5 active torsions:
REMARK  status: ('A' for Active; 'I' for Inactive)
REMARK    1  A    between atoms: C_1  and  C_2
REMARK    2  A    between atoms: C_9  and  N_13
REMARK    3  A    between atoms: C_10  and  C_11
REMARK    4  A    between atoms: C_14  and  C_16
REMARK    5  A    between atoms: C_19  and  C_21
REMARK                            x       y       z     vdW  Elec       q    Type
REMARK                         _______ _______ _______ _____ _____    ______ ____
ROOT
ATOM      1  N   UNL     1       3.019   4.047  -3.308  0.00  0.00    -0.279 N 
ATOM      2  C   UNL     1       2.427   3.463  -2.248  0.00  0.00    +0.221 C 
ATOM      3  O   UNL     1       2.391   2.254  -2.162  0.00  0.00    -0.275 OA
ATOM      4  H   UNL     1       3.048   5.014  -3.377  0.00  0.00    +0.155 HD
ENDROOT
BRANCH   1  12
ATOM      5  C   UNL     1       6.028  -0.717  -8.735  0.00  0.00    +0.008 C 
ATOM      6  C   UNL     1       5.319   0.471  -8.084  0.00  0.00    -0.009 C 
ATOM      7  C   UNL     1       6.257   1.682  -8.065  0.00  0.00    +0.008 C 
ATOM      8  C   UNL     1       5.483   2.933  -7.647  0.00  0.00    +0.037 C 
ATOM      9  C   UNL     1       4.749   2.643  -6.344  0.00  0.00    -0.018 A 
ATOM     10  C   UNL     1       4.531   1.373  -5.936  0.00  0.00    -0.004 A 
ATOM     11  S   UNL     1       3.670   1.535  -4.397  0.00  0.00    -0.077 S 
ATOM     12  C   UNL     1       3.589   3.263  -4.302  0.00  0.00    +0.090 A 
ATOM     13  C   UNL     1       4.237   3.674  -5.458  0.00  0.00    +0.084 A 
ATOM     14  C   UNL     1       4.940   0.116  -6.638  0.00  0.00    +0.046 C 
BRANCH  13  15
ATOM     15  C   UNL     1       4.396   5.063  -5.766  0.00  0.00    +0.102 C 
ATOM     16  N   UNL     1       4.522   6.166  -6.010  0.00  0.00    -0.191 NA
ENDBRANCH  13  15
ENDBRANCH   1  12
BRANCH   2  17
ATOM     17  C   UNL     1       1.808   4.314  -1.168  0.00  0.00    +0.083 C 
ATOM     18  C   UNL     1       2.485   4.316   0.204  0.00  0.00    +0.022 C 
ATOM     19  C   UNL     1       1.151   3.592   0.010  0.00  0.00    +0.032 C 
BRANCH  19  20
ATOM     20  C   UNL     1       1.171   2.086   0.002  0.00  0.00    -0.044 A 
ATOM     21  C   UNL     1      -0.017   1.378   0.010  0.00  0.00    +0.004 A 
ATOM     22  C   UNL     1       0.002  -0.004   0.002  0.00  0.00    +0.000 A 
ATOM     23  C   UNL     1       1.208  -0.679  -0.014  0.00  0.00    +0.000 A 
ATOM     24  C   UNL     1       2.396   0.029  -0.021  0.00  0.00    +0.000 A 
ATOM     25  C   UNL     1       2.377   1.411  -0.014  0.00  0.00    +0.004 A 
ENDBRANCH  19  20
ENDBRANCH   2  17
TORSDOF 4
