REMARK  Name = ZINC06526045
REMARK  6 active torsions:
REMARK  status: ('A' for Active; 'I' for Inactive)
REMARK    1  A    between atoms: C_1  and  C_2
REMARK    2  A    between atoms: C_4  and  C_8
REMARK    3  A    between atoms: N_5  and  C_7
REMARK    4  A    between atoms: N_10  and  C_11
REMARK    5  A    between atoms: C_16  and  C_21
REMARK    6  A    between atoms: C_18  and  C_20
REMARK                            x       y       z     vdW  Elec       q    Type
REMARK                         _______ _______ _______ _____ _____    ______ ____
ROOT
ATOM      1  C   UNL     1      -3.533   2.612   3.330  0.00  0.00    +0.263 C 
ATOM      2  O   UNL     1      -4.582   2.497   2.725  0.00  0.00    -0.268 OA
ATOM      3  N   UNL     1      -3.530   3.091   4.590  0.00  0.00    -0.307 N 
ATOM      4  H   UNL     1      -2.689   3.256   5.044  0.00  0.00    +0.149 HD
ENDROOT
BRANCH   1   8
ATOM      5  C   UNL     1       0.777   2.628   0.656  0.00  0.00    +0.069 C 
ATOM      6  C   UNL     1      -0.384   2.219   1.524  0.00  0.00    +0.075 A 
ATOM      7  C   UNL     1      -1.458   3.031   1.898  0.00  0.00    +0.071 A 
ATOM      8  C   UNL     1      -2.267   2.229   2.687  0.00  0.00    +0.137 A 
ATOM      9  N   UNL     1      -1.649   1.011   2.751  0.00  0.00    -0.261 N 
ATOM     10  N   UNL     1      -0.563   1.042   2.067  0.00  0.00    -0.175 NA
ATOM     11  C   UNL     1      -2.151  -0.152   3.487  0.00  0.00    +0.173 C 
ATOM     12 BR   UNL     1      -1.748   4.839   1.426  0.00  0.00    -0.046 Br
ENDBRANCH   1   8
BRANCH   3  13
ATOM     13  C   UNL     1      -4.797   3.363   5.273  0.00  0.00    +0.076 C 
ATOM     14  C   UNL     1      -5.314   2.077   5.920  0.00  0.00    +0.022 C 
ATOM     15  C   UNL     1      -6.638   2.361   6.633  0.00  0.00    +0.002 C 
ATOM     16  C   UNL     1      -6.417   3.422   7.713  0.00  0.00    +0.003 C 
ATOM     17  C   UNL     1      -5.900   4.708   7.066  0.00  0.00    -0.009 C 
ATOM     18  C   UNL     1      -4.577   4.424   6.353  0.00  0.00    +0.009 C 
ATOM     19  C   UNL     1      -4.059   5.711   5.706  0.00  0.00    +0.009 C 
ATOM     20  C   UNL     1      -6.926   5.218   6.053  0.00  0.00    +0.008 C 
ENDBRANCH   3  13
TORSDOF 2
