REMARK  Name = ZINC12496937
REMARK  7 active torsions:
REMARK  status: ('A' for Active; 'I' for Inactive)
REMARK    1  A    between atoms: C_1  and  O_2
REMARK    2  A    between atoms: O_2  and  C_3
REMARK    3  A    between atoms: C_3  and  C_5
REMARK    4  A    between atoms: C_5  and  C_28
REMARK    5  A    between atoms: C_10  and  C_12
REMARK    6  A    between atoms: N_19  and  C_22
REMARK    7  A    between atoms: C_28  and  C_29
REMARK                            x       y       z     vdW  Elec       q    Type
REMARK                         _______ _______ _______ _____ _____    ______ ____
ROOT
ATOM      1  C   UNL     1      -1.293  -0.775   0.010  0.00  0.00    +0.048 C 
ATOM      2  C   UNL     1      -1.107  -2.106  -0.623  0.00  0.00    +0.086 C 
ATOM      3  C   UNL     1      -2.573  -2.402  -1.137  0.00  0.00    +0.078 C 
ATOM      4  C   UNL     1      -2.817  -1.091  -1.843  0.00  0.00    -0.020 C 
ATOM      5  C   UNL     1      -2.309  -3.711  -1.776  0.00  0.00    +0.229 C 
ATOM      6  O   UNL     1      -2.818  -4.153  -2.784  0.00  0.00    -0.275 OA
ATOM      7  N   UNL     1      -1.367  -4.316  -0.987  0.00  0.00    -0.210 N 
ATOM      8  C   UNL     1      -0.752  -3.436  -0.132  0.00  0.00    +0.229 C 
ATOM      9  O   UNL     1      -0.070  -3.699   0.835  0.00  0.00    -0.275 OA
ATOM     10  N   UNL     1      -2.312  -0.101  -0.844  0.00  0.00    +0.396 N 
ATOM     11  H   UNL     1      -1.885   0.696  -1.330  0.00  0.00    -0.083 HD
ATOM     12  H   UNL     1      -3.090   0.230  -0.260  0.00  0.00    -0.083 HD
ENDROOT
BRANCH   7  13
ATOM     13  C   UNL     1      -1.065  -5.684  -1.045  0.00  0.00    +0.044 A 
ATOM     14  C   UNL     1      -0.090  -6.217  -0.212  0.00  0.00    +0.024 A 
ATOM     15  C   UNL     1       0.202  -7.566  -0.269  0.00  0.00    +0.002 A 
ATOM     16  C   UNL     1      -0.467  -8.382  -1.162  0.00  0.00    +0.000 A 
ATOM     17  C   UNL     1      -1.434  -7.853  -1.997  0.00  0.00    +0.002 A 
ATOM     18  C   UNL     1      -1.734  -6.506  -1.941  0.00  0.00    +0.024 A 
ENDBRANCH   7  13
BRANCH   4  19
ATOM     19  C   UNL     1      -4.285  -0.888  -2.116  0.00  0.00    -0.023 A 
ATOM     20  C   UNL     1      -4.958  -0.991  -3.288  0.00  0.00    +0.009 A 
ATOM     21  C   UNL     1      -6.321  -0.760  -3.301  0.00  0.00    +0.008 A 
ATOM     22  C   UNL     1      -6.944  -0.437  -2.142  0.00  0.00    +0.045 A 
ATOM     23  S   UNL     1      -5.591  -0.460  -0.977  0.00  0.00    -0.103 S 
ENDBRANCH   4  19
BRANCH   1  24
ATOM     24  C   UNL     1       0.002  -0.004   0.002  0.00  0.00    +0.297 C 
ATOM     25  O   UNL     1       1.056  -0.594  -0.011  0.00  0.00    -0.252 OA
BRANCH  24  27
ATOM     26  C   UNL     1       1.268   2.015   0.001  0.00  0.00    +0.280 C 
ATOM     27  O   UNL     1      -0.016   1.338   0.009  0.00  0.00    -0.469 OA
ENDBRANCH  24  27
ENDBRANCH   1  24
BRANCH   1  28
ATOM     28  C   UNL     1      -1.810  -0.933   1.442  0.00  0.00    +0.034 C 
BRANCH  28  29
ATOM     29  C   UNL     1      -2.145   0.423   2.007  0.00  0.00    -0.048 A 
ATOM     30  C   UNL     1      -1.182   1.146   2.686  0.00  0.00    +0.003 A 
ATOM     31  C   UNL     1      -1.488   2.392   3.201  0.00  0.00    +0.000 A 
ATOM     32  C   UNL     1      -2.760   2.910   3.045  0.00  0.00    +0.000 A 
ATOM     33  C   UNL     1      -3.724   2.186   2.370  0.00  0.00    +0.000 A 
ATOM     34  C   UNL     1      -3.417   0.942   1.851  0.00  0.00    +0.003 A 
ENDBRANCH  28  29
ENDBRANCH   1  28
TORSDOF 6
