REMARK  Name = ZINC04968859
REMARK  8 active torsions:
REMARK  status: ('A' for Active; 'I' for Inactive)
REMARK    1  A    between atoms: C_1  and  C_2
REMARK    2  A    between atoms: C_3  and  S_8
REMARK    3  A    between atoms: C_4  and  C_7
REMARK    4  A    between atoms: S_8  and  N_11
REMARK    5  A    between atoms: C_14  and  C_17
REMARK    6  A    between atoms: N_19  and  C_20
REMARK    7  A    between atoms: C_20  and  C_22
REMARK    8  A    between atoms: C_20  and  C_23
REMARK                            x       y       z     vdW  Elec       q    Type
REMARK                         _______ _______ _______ _____ _____    ______ ____
ROOT
ATOM      1  N   UNL     1      -1.691   4.719  -0.272  0.00  0.00    -0.176 NA
ATOM      2  C   UNL     1      -1.730   4.197  -1.645  0.00  0.00    +0.110 C 
ATOM      3  C   UNL     1      -3.087   3.514  -1.869  0.00  0.00    +0.030 C 
ATOM      4  C   UNL     1      -4.209   4.501  -1.540  0.00  0.00    +0.077 C 
ATOM      5  C   UNL     1      -4.115   4.913  -0.069  0.00  0.00    +0.030 C 
ATOM      6  C   UNL     1      -2.772   5.607   0.177  0.00  0.00    +0.110 C 
ENDROOT
BRANCH   4   7
ATOM      7  C   UNL     1      -5.543   3.848  -1.794  0.00  0.00    +0.217 C 
ATOM      8  O   UNL     1      -6.340   3.724  -0.888  0.00  0.00    -0.275 OA
ATOM      9  N   UNL     1      -5.851   3.402  -3.028  0.00  0.00    -0.309 N 
ATOM     10  H   UNL     1      -5.215   3.502  -3.753  0.00  0.00    +0.149 HD
BRANCH   9  11
ATOM     11  C   UNL     1      -7.148   2.767  -3.275  0.00  0.00    +0.100 C 
ATOM     12  C   UNL     1      -8.197   3.844  -3.562  0.00  0.00    +0.033 C 
BRANCH  11  13
ATOM     13  C   UNL     1      -7.038   1.844  -4.461  0.00  0.00    -0.027 A 
ATOM     14  C   UNL     1      -6.302   2.225  -5.567  0.00  0.00    +0.005 A 
ATOM     15  C   UNL     1      -6.197   1.377  -6.654  0.00  0.00    +0.000 A 
ATOM     16  C   UNL     1      -6.837   0.152  -6.638  0.00  0.00    +0.000 A 
ATOM     17  C   UNL     1      -7.577  -0.228  -5.534  0.00  0.00    +0.000 A 
ATOM     18  C   UNL     1      -7.678   0.619  -4.446  0.00  0.00    +0.005 A 
ENDBRANCH  11  13
ENDBRANCH   9  11
ENDBRANCH   4   7
BRANCH   1  19
ATOM     19  S   UNL     1      -0.448   4.321   0.748  0.00  0.00    +0.066 S 
ATOM     20  O   UNL     1      -0.370   5.356   1.717  0.00  0.00    -0.153 OA
ATOM     21  O   UNL     1       0.653   3.962  -0.075  0.00  0.00    -0.153 OA
BRANCH  19  24
ATOM     22  C   UNL     1      -2.118   3.903   3.687  0.00  0.00    +0.071 C 
ATOM     23  C   UNL     1      -1.626   2.762   2.835  0.00  0.00    +0.107 A 
ATOM     24  C   UNL     1      -0.929   2.860   1.609  0.00  0.00    +0.170 A 
ATOM     25  C   UNL     1      -0.718   1.572   1.248  0.00  0.00    +0.161 A 
ATOM     26  O   UNL     1      -1.256   0.814   2.214  0.00  0.00    -0.358 OA
ATOM     27  N   UNL     1      -1.754   1.491   3.084  0.00  0.00    -0.081 NA
ATOM     28  C   UNL     1      -0.013   1.086   0.008  0.00  0.00    +0.091 C 
ENDBRANCH  19  24
ENDBRANCH   1  19
TORSDOF 5
