REMARK  Name = ZINC40583247
REMARK  4 active torsions:
REMARK  status: ('A' for Active; 'I' for Inactive)
REMARK    1  A    between atoms: C_12  and  N_29
REMARK    2  A    between atoms: C_13  and  N_17
REMARK    3  A    between atoms: N_17  and  C_18
REMARK    4  A    between atoms: C_20  and  C_25
REMARK                            x       y       z     vdW  Elec       q    Type
REMARK                         _______ _______ _______ _____ _____    ______ ____
ROOT
ATOM      1  C   UNL     1      -1.712  -1.812  -0.162  0.00  0.00    +0.000 A 
ATOM      2  C   UNL     1      -1.642  -1.309   1.124  0.00  0.00    +0.000 A 
ATOM      3  C   UNL     1      -0.411  -1.130   1.722  0.00  0.00    +0.005 A 
ATOM      4  C   UNL     1       0.756  -1.456   1.044  0.00  0.00    -0.027 A 
ATOM      5  C   UNL     1       0.687  -1.966  -0.233  0.00  0.00    -0.041 A 
ATOM      6  C   UNL     1      -0.553  -2.138  -0.836  0.00  0.00    +0.004 A 
ATOM      7  C   UNL     1       1.907  -2.370  -1.018  0.00  0.00    +0.054 C 
ATOM      8  C   UNL     1       3.160  -1.699  -0.459  0.00  0.00    +0.111 C 
ATOM      9  N   UNL     1       3.152  -1.869   1.003  0.00  0.00    -0.309 N 
ATOM     10  C   UNL     1       2.068  -1.223   1.750  0.00  0.00    +0.142 C 
ATOM     11  C   UNL     1       4.130  -2.610   1.649  0.00  0.00    +0.157 A 
ATOM     12  C   UNL     1       5.332  -2.017   2.024  0.00  0.00    +0.206 A 
ATOM     13  C   UNL     1       6.281  -2.803   2.670  0.00  0.00    +0.159 A 
ATOM     14  N   UNL     1       6.008  -4.086   2.903  0.00  0.00    -0.218 NA
ATOM     15  C   UNL     1       4.858  -4.610   2.531  0.00  0.00    +0.225 A 
ATOM     16  N   UNL     1       3.932  -3.898   1.923  0.00  0.00    -0.218 NA
ENDROOT
BRANCH  12  17
ATOM     17  N   UNL     1       5.594  -0.587   1.744  0.00  0.00    +0.063 N 
ATOM     18  O   UNL     1       5.351   0.248   2.584  0.00  0.00    -0.126 OA
ATOM     19  O   UNL     1       6.051  -0.254   0.676  0.00  0.00    -0.126 OA
ENDBRANCH  12  17
BRANCH  13  20
ATOM     20  N   UNL     1       7.495  -2.260   3.064  0.00  0.00    -0.296 N 
ATOM     21  H   UNL     1       7.727  -1.353   2.808  0.00  0.00    +0.154 HD
BRANCH  20  22
ATOM     22  C   UNL     1       8.385  -3.019   3.831  0.00  0.00    +0.052 A 
ATOM     23  C   UNL     1       7.911  -4.053   4.627  0.00  0.00    +0.037 A 
ATOM     24  C   UNL     1       8.792  -4.801   5.383  0.00  0.00    +0.057 A 
ATOM     25  C   UNL     1      10.146  -4.522   5.348  0.00  0.00    +0.014 A 
ATOM     26  C   UNL     1      10.622  -3.493   4.557  0.00  0.00    +0.022 A 
ATOM     27  C   UNL     1       9.747  -2.744   3.793  0.00  0.00    +0.062 A 
ATOM     28 CL   UNL     1      10.346  -1.456   2.795  0.00  0.00    -0.082 Cl
BRANCH  24  29
ATOM     29  C   UNL     1       8.277  -5.924   6.247  0.00  0.00    +0.417 C 
ATOM     30  F   UNL     1       8.266  -7.112   5.510  0.00  0.00    -0.166 F 
ATOM     31  F   UNL     1       9.111  -6.074   7.361  0.00  0.00    -0.166 F 
ATOM     32  F   UNL     1       6.979  -5.626   6.673  0.00  0.00    -0.166 F 
ENDBRANCH  24  29
ENDBRANCH  20  22
ENDBRANCH  13  20
TORSDOF 4
