REMARK  Name = ZINC25154448
REMARK  8 active torsions:
REMARK  status: ('A' for Active; 'I' for Inactive)
REMARK    1  A    between atoms: C_1  and  O_2
REMARK    2  A    between atoms: O_2  and  C_3
REMARK    3  A    between atoms: C_7  and  C_9
REMARK    4  A    between atoms: N_14  and  C_17
REMARK    5  A    between atoms: C_17  and  C_19
REMARK    6  A    between atoms: C_17  and  C_26
REMARK    7  A    between atoms: C_26  and  O_28
REMARK    8  A    between atoms: O_28  and  C_29
REMARK                            x       y       z     vdW  Elec       q    Type
REMARK                         _______ _______ _______ _____ _____    ______ ____
ROOT
ATOM      1  C   UNL     1      -1.054   0.710   2.197  0.00  0.00    +0.248 C 
ATOM      2  O   UNL     1      -0.706   1.262   3.223  0.00  0.00    -0.270 OA
ATOM      3  N   UNL     1      -1.639   1.422   1.214  0.00  0.00    -0.301 N 
ATOM      4  C   UNL     1      -1.999   0.790  -0.065  0.00  0.00    +0.089 C 
ATOM      5  C   UNL     1      -3.465   1.113  -0.376  0.00  0.00    -0.058 C 
ATOM      6  N   UNL     1      -3.665   2.567  -0.325  0.00  0.00    +0.393 N 
ATOM      7  C   UNL     1      -3.409   3.092   1.023  0.00  0.00    -0.058 C 
ATOM      8  C   UNL     1      -1.941   2.851   1.392  0.00  0.00    +0.089 C 
ATOM      9  H   UNL     1      -2.937   3.029  -1.008  0.00  0.00    -0.080 HD
ENDROOT
BRANCH   1  14
ATOM     10  C   UNL     1       0.028  -2.583   0.742  0.00  0.00    +0.121 A 
ATOM     11  C   UNL     1      -0.423  -3.466   1.714  0.00  0.00    +0.047 A 
ATOM     12  C   UNL     1      -1.076  -2.993   2.837  0.00  0.00    +0.019 A 
ATOM     13  C   UNL     1      -1.284  -1.637   2.999  0.00  0.00    +0.030 A 
ATOM     14  C   UNL     1      -0.833  -0.741   2.027  0.00  0.00    +0.054 A 
ATOM     15  C   UNL     1      -0.179  -1.222   0.892  0.00  0.00    +0.059 A 
ATOM     16 BR   UNL     1      -2.177  -0.994   4.537  0.00  0.00    -0.050 Br
BRANCH  10  18
ATOM     17  C   UNL     1       0.844  -4.470  -0.452  0.00  0.00    +0.277 C 
ATOM     18  O   UNL     1       0.669  -3.055  -0.360  0.00  0.00    -0.495 OA
ENDBRANCH  10  18
ENDBRANCH   1  14
BRANCH   6  19
ATOM     19  C   UNL     1      -5.012   2.930  -0.784  0.00  0.00    +0.073 C 
BRANCH  19  20
ATOM     20  C   UNL     1      -5.179   4.426  -0.718  0.00  0.00    -0.050 A 
ATOM     21  C   UNL     1      -4.135   5.255  -1.084  0.00  0.00    +0.004 A 
ATOM     22  C   UNL     1      -4.290   6.627  -1.028  0.00  0.00    +0.020 A 
ATOM     23  C   UNL     1      -5.487   7.171  -0.595  0.00  0.00    +0.041 A 
ATOM     24  C   UNL     1      -6.529   6.341  -0.224  0.00  0.00    +0.020 A 
ATOM     25  C   UNL     1      -6.375   4.969  -0.285  0.00  0.00    +0.004 A 
ATOM     26 CL   UNL     1      -5.679   8.895  -0.518  0.00  0.00    -0.084 Cl
ENDBRANCH  19  20
BRANCH  19  27
ATOM     27  C   UNL     1      -5.199   2.466  -2.206  0.00  0.00    +0.297 C 
ATOM     28  O   UNL     1      -4.302   1.893  -2.778  0.00  0.00    -0.252 OA
BRANCH  27  29
ATOM     29  O   UNL     1      -6.362   2.691  -2.837  0.00  0.00    -0.469 OA
ATOM     30  C   UNL     1      -6.472   2.217  -4.205  0.00  0.00    +0.280 C 
ENDBRANCH  27  29
ENDBRANCH  19  27
ENDBRANCH   6  19
TORSDOF 6
