REMARK  Name = ZINC65096903
REMARK  7 active torsions:
REMARK  status: ('A' for Active; 'I' for Inactive)
REMARK    1  A    between atoms: C_1  and  C_2
REMARK    2  A    between atoms: N_4  and  C_5
REMARK    3  A    between atoms: C_5  and  C_6
REMARK    4  A    between atoms: C_9  and  C_11
REMARK    5  A    between atoms: C_13  and  C_16
REMARK    6  A    between atoms: C_16  and  C_17
REMARK    7  A    between atoms: C_17  and  C_18
REMARK                            x       y       z     vdW  Elec       q    Type
REMARK                         _______ _______ _______ _____ _____    ______ ____
ROOT
ATOM      1  C   UNL     1      -0.986  -3.966  -6.412  0.00  0.00    +0.209 A 
ATOM      2  N   UNL     1      -2.284  -4.092  -6.746  0.00  0.00    -0.191 NA
ATOM      3  C   UNL     1      -2.390  -4.520  -7.971  0.00  0.00    +0.228 A 
ATOM      4  O   UNL     1      -1.159  -4.687  -8.472  0.00  0.00    -0.338 OA
ATOM      5  N   UNL     1      -0.253  -4.316  -7.443  0.00  0.00    -0.056 NA
ENDROOT
BRANCH   1   9
ATOM      6  C   UNL     1       0.013  -2.631  -2.600  0.00  0.00    +0.008 A 
ATOM      7  C   UNL     1       1.066  -2.902  -3.416  0.00  0.00    +0.013 A 
ATOM      8  C   UNL     1       0.826  -3.349  -4.695  0.00  0.00    +0.019 A 
ATOM      9  C   UNL     1      -0.472  -3.507  -5.105  0.00  0.00    +0.060 A 
ATOM     10  S   UNL     1      -1.380  -3.019  -3.647  0.00  0.00    -0.088 S 
BRANCH   6  11
ATOM     11  C   UNL     1       0.020  -2.136  -1.177  0.00  0.00    +0.146 C 
BRANCH  11  15
ATOM     12  C   UNL     1      -0.018   1.503   0.010  0.00  0.00    +0.109 C 
ATOM     13  C   UNL     1       0.002  -0.004   0.002  0.00  0.00    +0.210 C 
ATOM     14  O   UNL     1       0.020  -0.616   1.049  0.00  0.00    -0.276 OA
ATOM     15  N   UNL     1       0.000  -0.672  -1.169  0.00  0.00    -0.311 N 
ATOM     16  H   UNL     1      -0.015  -0.182  -2.006  0.00  0.00    +0.149 HD
ENDBRANCH  11  15
ENDBRANCH   6  11
ENDBRANCH   1   9
BRANCH   3  17
ATOM     17  C   UNL     1      -3.681  -4.784  -8.702  0.00  0.00    +0.103 C 
BRANCH  17  18
ATOM     18  C   UNL     1      -4.127  -3.512  -9.425  0.00  0.00    +0.042 C 
BRANCH  18  19
ATOM     19  C   UNL     1      -5.418  -3.776 -10.157  0.00  0.00    -0.041 C 
ATOM     20  C   UNL     1      -6.670  -3.523  -9.713  0.00  0.00    -0.001 A 
ATOM     21  C   UNL     1      -7.186  -2.950  -8.463  0.00  0.00    +0.010 A 
ATOM     22  C   UNL     1      -8.522  -2.820  -8.304  0.00  0.00    +0.001 A 
ATOM     23  C   UNL     1      -9.426  -3.217  -9.300  0.00  0.00    +0.002 A 
ATOM     24  C   UNL     1      -9.028  -3.752 -10.473  0.00  0.00    +0.026 A 
ATOM     25  C   UNL     1      -7.645  -3.935 -10.748  0.00  0.00    +0.043 A 
ATOM     26  N   UNL     1      -7.019  -4.423 -11.792  0.00  0.00    -0.380 N 
ATOM     27  C   UNL     1      -5.575  -4.370 -11.538  0.00  0.00    +0.144 C 
ATOM     28  H   UNL     1      -7.440  -4.759 -12.598  0.00  0.00    +0.160 HD
ENDBRANCH  18  19
ENDBRANCH  17  18
ENDBRANCH   3  17
TORSDOF 6
