REMARK  Name = ZINC40563826
REMARK  4 active torsions:
REMARK  status: ('A' for Active; 'I' for Inactive)
REMARK    1  A    between atoms: C_1  and  C_2
REMARK    2  A    between atoms: C_9  and  N_13
REMARK    3  A    between atoms: C_10  and  C_11
REMARK    4  A    between atoms: C_14  and  C_16
REMARK                            x       y       z     vdW  Elec       q    Type
REMARK                         _______ _______ _______ _____ _____    ______ ____
ROOT
ATOM      1  N   UNL     1       0.696  -5.848   2.431  0.00  0.00    -0.275 N 
ATOM      2  C   UNL     1       1.678  -6.097   3.320  0.00  0.00    +0.249 C 
ATOM      3  O   UNL     1       2.386  -5.190   3.714  0.00  0.00    -0.270 OA
ATOM      4  H   UNL     1       0.132  -6.572   2.116  0.00  0.00    +0.156 HD
ENDROOT
BRANCH   2   5
ATOM      5  C   UNL     1       1.895  -7.471   3.815  0.00  0.00    +0.039 A 
ATOM      6  C   UNL     1       1.085  -8.516   3.357  0.00  0.00    +0.015 A 
ATOM      7  C   UNL     1       1.286  -9.796   3.817  0.00  0.00    +0.028 A 
ATOM      8  C   UNL     1       2.296 -10.060   4.740  0.00  0.00    +0.066 A 
ATOM      9  C   UNL     1       3.109  -9.020   5.202  0.00  0.00    +0.066 A 
ATOM     10  C   UNL     1       2.911  -7.729   4.734  0.00  0.00    +0.040 A 
ATOM     11  N   UNL     1       4.122  -9.269   6.125  0.00  0.00    -0.316 N 
ATOM     12  H   UNL     1       4.681  -8.541   6.439  0.00  0.00    +0.169 HD
ATOM     13  C   UNL     1       4.327 -10.521   6.582  0.00  0.00    +0.314 A 
ATOM     14  O   UNL     1       5.208 -10.744   7.387  0.00  0.00    -0.262 OA
ATOM     15  C   UNL     1       3.458 -11.629   6.088  0.00  0.00    +0.314 A 
ATOM     16  O   UNL     1       3.626 -12.764   6.487  0.00  0.00    -0.262 OA
ATOM     17  N   UNL     1       2.485 -11.358   5.195  0.00  0.00    -0.316 N 
ATOM     18  H   UNL     1       1.916 -12.073   4.869  0.00  0.00    +0.169 HD
ENDBRANCH   2   5
BRANCH   1  26
ATOM     19  C   UNL     1      -0.019   1.526   0.010  0.00  0.00    +0.008 C 
ATOM     20  C   UNL     1       0.002  -0.004   0.002  0.00  0.00    -0.009 C 
ATOM     21  C   UNL     1      -1.434  -0.537   0.019  0.00  0.00    +0.008 C 
ATOM     22  C   UNL     1      -1.433  -2.045  -0.237  0.00  0.00    +0.037 C 
ATOM     23  C   UNL     1      -0.464  -2.704   0.734  0.00  0.00    -0.018 A 
ATOM     24  C   UNL     1       0.485  -1.986   1.374  0.00  0.00    -0.004 A 
ATOM     25  S   UNL     1       1.343  -3.168   2.372  0.00  0.00    -0.077 S 
ATOM     26  C   UNL     1       0.492  -4.558   1.966  0.00  0.00    +0.090 A 
ATOM     27  C   UNL     1      -0.459  -4.119   1.060  0.00  0.00    +0.084 A 
ATOM     28  C   UNL     1       0.739  -0.515   1.248  0.00  0.00    +0.046 C 
BRANCH  27  29
ATOM     29  C   UNL     1      -1.399  -5.024   0.469  0.00  0.00    +0.102 C 
ATOM     30  N   UNL     1      -2.145  -5.741   0.000  0.00  0.00    -0.191 NA
ENDBRANCH  27  29
ENDBRANCH   1  26
TORSDOF 3
