REMARK  Name = ZINC61933726
REMARK  3 active torsions:
REMARK  status: ('A' for Active; 'I' for Inactive)
REMARK    1  A    between atoms: C_1  and  C_2
REMARK    2  A    between atoms: C_10  and  C_12
REMARK    3  A    between atoms: C_17  and  O_18
REMARK                            x       y       z     vdW  Elec       q    Type
REMARK                         _______ _______ _______ _____ _____    ______ ____
ROOT
ATOM      1  C   UNL     1      -0.261   1.471   0.350  0.00  0.00    +0.039 C 
ATOM      2  C   UNL     1      -0.267  -0.058   0.318  0.00  0.00    +0.132 C 
ATOM      3  C   UNL     1      -1.703  -0.563   0.032  0.00  0.00    +0.139 C 
ATOM      4  N   UNL     1      -1.679  -1.998  -0.183  0.00  0.00    -0.295 N 
ATOM      5  C   UNL     1      -1.827  -2.967   0.919  0.00  0.00    +0.110 C 
ATOM      6  C   UNL     1      -1.028  -2.524   2.153  0.00  0.00    +0.047 C 
ATOM      7  C   UNL     1       0.304  -1.948   1.716  0.00  0.00    +0.162 C 
ATOM      8  O   UNL     1       0.158  -0.546   1.537  0.00  0.00    -0.375 OA
ATOM      9  C   UNL     1      -1.516  -2.462  -1.438  0.00  0.00    +0.250 C 
ATOM     10  O   UNL     1      -1.468  -1.686  -2.372  0.00  0.00    -0.270 OA
ENDROOT
BRANCH   9  11
ATOM     11  C   UNL     1      -1.396  -3.913  -1.677  0.00  0.00    +0.078 A 
ATOM     12  C   UNL     1      -2.365  -4.789  -1.181  0.00  0.00    +0.018 A 
ATOM     13  C   UNL     1      -2.247  -6.143  -1.409  0.00  0.00    +0.021 A 
ATOM     14  C   UNL     1      -1.170  -6.640  -2.127  0.00  0.00    +0.044 A 
ATOM     15  C   UNL     1      -0.205  -5.784  -2.623  0.00  0.00    +0.066 A 
ATOM     16  C   UNL     1      -0.312  -4.418  -2.408  0.00  0.00    +0.130 A 
ATOM     17 CL   UNL     1      -1.034  -8.348  -2.405  0.00  0.00    -0.083 Cl
BRANCH  16  18
ATOM     18  O   UNL     1       0.632  -3.576  -2.898  0.00  0.00    -0.506 OA
ATOM     19  H   UNL     1       1.369  -3.417  -2.294  0.00  0.00    +0.292 HD
ENDBRANCH  16  18
ENDBRANCH   9  11
TORSDOF 2
