REMARK  Name = ZINC64802261
REMARK  3 active torsions:
REMARK  status: ('A' for Active; 'I' for Inactive)
REMARK    1  A    between atoms: C_4  and  C_7
REMARK    2  A    between atoms: N_10  and  C_14
REMARK    3  A    between atoms: C_14  and  C_15
REMARK                            x       y       z     vdW  Elec       q    Type
REMARK                         _______ _______ _______ _____ _____    ______ ____
ROOT
ATOM      1  C   UNL     1       3.697  -0.686  -0.037  0.00  0.00    +0.096 A 
ATOM      2  C   UNL     1       3.736  -2.100  -0.051  0.00  0.00    +0.161 A 
ATOM      3  N   UNL     1       4.891  -2.710  -0.066  0.00  0.00    -0.173 NA
ATOM      4  N   UNL     1       5.990  -2.043  -0.069  0.00  0.00    -0.204 N 
ATOM      5  C   UNL     1       5.994  -0.698  -0.055  0.00  0.00    +0.366 A 
ATOM      6  O   UNL     1       7.055  -0.095  -0.058  0.00  0.00    -0.243 OA
ATOM      7  N   UNL     1       4.844  -0.016  -0.045  0.00  0.00    -0.190 NA
ENDROOT
BRANCH   1  11
ATOM      8  C   UNL     1      -0.017   1.379   0.010  0.00  0.00    +0.000 A 
ATOM      9  C   UNL     1       1.169   2.093   0.002  0.00  0.00    +0.001 A 
ATOM     10  C   UNL     1       2.377   1.429  -0.013  0.00  0.00    +0.010 A 
ATOM     11  C   UNL     1       2.403   0.034  -0.021  0.00  0.00    +0.002 A 
ATOM     12  C   UNL     1       1.204  -0.680  -0.013  0.00  0.00    +0.010 A 
ATOM     13  C   UNL     1       0.002  -0.004   0.002  0.00  0.00    +0.001 A 
ENDBRANCH   1  11
BRANCH   4  14
ATOM     14  C   UNL     1       7.266  -2.763  -0.086  0.00  0.00    +0.245 C 
BRANCH  14  15
ATOM     15  C   UNL     1       7.715  -3.024   1.329  0.00  0.00    +0.241 C 
ATOM     16  O   UNL     1       7.036  -2.645   2.260  0.00  0.00    -0.273 OA
ATOM     17  N   UNL     1       8.870  -3.677   1.560  0.00  0.00    -0.269 N 
ATOM     18  C   UNL     1       9.406  -3.993   2.887  0.00  0.00    +0.118 C 
ATOM     19  C   UNL     1      10.727  -4.735   2.622  0.00  0.00    +0.056 C 
ATOM     20  C   UNL     1      10.841  -4.783   1.115  0.00  0.00    -0.024 A 
ATOM     21  C   UNL     1       9.731  -4.159   0.569  0.00  0.00    +0.040 A 
ATOM     22  C   UNL     1       9.611  -4.084  -0.820  0.00  0.00    +0.024 A 
ATOM     23  C   UNL     1      10.583  -4.629  -1.632  0.00  0.00    +0.002 A 
ATOM     24  C   UNL     1      11.684  -5.253  -1.077  0.00  0.00    +0.000 A 
ATOM     25  C   UNL     1      11.814  -5.324   0.298  0.00  0.00    +0.005 A 
ENDBRANCH  14  15
ENDBRANCH   4  14
TORSDOF 3
