REMARK  Name = ZINC07327839
REMARK  6 active torsions:
REMARK  status: ('A' for Active; 'I' for Inactive)
REMARK    1  A    between atoms: C_1  and  C_2
REMARK    2  A    between atoms: C_9  and  S_12
REMARK    3  A    between atoms: S_12  and  C_13
REMARK    4  A    between atoms: C_16  and  S_22
REMARK    5  A    between atoms: C_18  and  N_19
REMARK    6  A    between atoms: S_22  and  C_25
REMARK                            x       y       z     vdW  Elec       q    Type
REMARK                         _______ _______ _______ _____ _____    ______ ____
ROOT
ATOM      1  C   UNL     1       1.211  -0.681  -0.011  0.00  0.00    +0.046 A 
ATOM      2  C   UNL     1       2.389   0.039  -0.168  0.00  0.00    +0.019 A 
ATOM      3  C   UNL     1       2.359   1.419  -0.159  0.00  0.00    +0.028 A 
ATOM      4  C   UNL     1       1.158   2.086   0.007  0.00  0.00    +0.090 A 
ATOM      5  C   UNL     1      -0.016   1.373   0.163  0.00  0.00    +0.060 A 
ATOM      6  C   UNL     1       0.006  -0.008   0.154  0.00  0.00    +0.142 A 
ENDROOT
BRANCH   4   7
ATOM      7  S   UNL     1       1.125   3.848   0.018  0.00  0.00    -0.006 S 
ATOM      8  O   UNL     1       2.260   4.237  -0.742  0.00  0.00    -0.170 OA
ATOM      9  O   UNL     1      -0.186   4.188  -0.412  0.00  0.00    -0.170 OA
ATOM     10  C   UNL     1       1.351   4.307   1.758  0.00  0.00    +0.200 C 
ENDBRANCH   4   7
BRANCH   6  11
ATOM     11  N   UNL     1      -1.251  -0.771   0.321  0.00  0.00    +0.058 N 
ATOM     12  O   UNL     1      -2.307  -0.181   0.466  0.00  0.00    -0.126 OA
ATOM     13  O   UNL     1      -1.231  -1.989   0.313  0.00  0.00    -0.126 OA
ENDBRANCH   6  11
BRANCH   1  14
ATOM     14  S   UNL     1       1.244  -2.442  -0.024  0.00  0.00    -0.050 S 
BRANCH  14  23
ATOM     15  C   UNL     1      -1.321  -2.230  -7.249  0.00  0.00    +0.044 C 
ATOM     16  C   UNL     1      -0.884  -2.773  -5.913  0.00  0.00    -0.048 A 
ATOM     17  C   UNL     1      -0.903  -4.141  -5.686  0.00  0.00    +0.005 A 
ATOM     18  C   UNL     1      -0.506  -4.653  -4.468  0.00  0.00    +0.028 A 
ATOM     19  C   UNL     1      -0.084  -3.796  -3.463  0.00  0.00    +0.067 A 
ATOM     20  C   UNL     1      -0.063  -2.409  -3.687  0.00  0.00    +0.090 A 
ATOM     21  C   UNL     1      -0.469  -1.907  -4.926  0.00  0.00    +0.033 A 
ATOM     22  N   UNL     1       0.387  -1.826  -2.546  0.00  0.00    -0.222 NA
ATOM     23  C   UNL     1       0.640  -2.749  -1.650  0.00  0.00    +0.172 A 
ATOM     24  N   UNL     1       0.370  -3.984  -2.168  0.00  0.00    -0.333 N 
ATOM     25  H   UNL     1       0.480  -4.861  -1.699  0.00  0.00    +0.168 HD
ENDBRANCH  14  23
ENDBRANCH   1  14
TORSDOF 4
