REMARK  Name = ZINC63375156
REMARK  8 active torsions:
REMARK  status: ('A' for Active; 'I' for Inactive)
REMARK    1  A    between atoms: C_1  and  C_2
REMARK    2  A    between atoms: C_2  and  C_3
REMARK    3  A    between atoms: C_3  and  C_4
REMARK    4  A    between atoms: C_4  and  N_5
REMARK    5  A    between atoms: C_11  and  C_27
REMARK    6  A    between atoms: C_23  and  C_26
REMARK    7  A    between atoms: C_32  and  O_33
REMARK    8  A    between atoms: O_33  and  C_34
REMARK                            x       y       z     vdW  Elec       q    Type
REMARK                         _______ _______ _______ _____ _____    ______ ____
ROOT
ATOM      1  N   UNL     1       1.425  -2.500  -2.470  0.00  0.00    -0.291 N 
ATOM      2  C   UNL     1       0.632  -2.728  -3.667  0.00  0.00    +0.203 C 
ATOM      3  C   UNL     1       1.460  -3.226  -4.805  0.00  0.00    +0.234 C 
ATOM      4  O   UNL     1       0.895  -3.452  -5.854  0.00  0.00    -0.274 OA
ATOM      5  N   UNL     1       2.779  -3.443  -4.753  0.00  0.00    -0.283 N 
ATOM      6  C   UNL     1       3.443  -3.975  -5.958  0.00  0.00    +0.121 C 
ATOM      7  C   UNL     1       4.541  -2.996  -6.409  0.00  0.00    +0.068 C 
ATOM      8  C   UNL     1       5.320  -2.620  -5.174  0.00  0.00    -0.027 C 
ATOM      9  C   UNL     1       6.620  -2.640  -4.912  0.00  0.00    -0.000 A 
ATOM     10  C   UNL     1       7.787  -2.924  -5.762  0.00  0.00    +0.010 A 
ATOM     11  C   UNL     1       9.001  -2.877  -5.151  0.00  0.00    +0.001 A 
ATOM     12  C   UNL     1       9.168  -2.579  -3.795  0.00  0.00    +0.002 A 
ATOM     13  C   UNL     1       8.152  -2.296  -2.941  0.00  0.00    +0.026 A 
ATOM     14  C   UNL     1       6.829  -2.306  -3.470  0.00  0.00    +0.043 A 
ATOM     15  N   UNL     1       5.691  -2.051  -2.893  0.00  0.00    -0.375 N 
ATOM     16  C   UNL     1       4.635  -2.128  -3.903  0.00  0.00    +0.139 C 
ATOM     17  C   UNL     1       3.573  -3.175  -3.552  0.00  0.00    +0.135 C 
ATOM     18  C   UNL     1       2.741  -2.692  -2.412  0.00  0.00    +0.242 C 
ATOM     19  O   UNL     1       3.300  -2.464  -1.360  0.00  0.00    -0.273 OA
ATOM     20  C   UNL     1       4.275  -4.466  -3.126  0.00  0.00    +0.044 C 
ATOM     21  H   UNL     1       5.564  -1.845  -1.954  0.00  0.00    +0.160 HD
ENDROOT
BRANCH   7  22
ATOM     22  C   UNL     1       3.917  -1.768  -7.021  0.00  0.00    +0.003 A 
ATOM     23  C   UNL     1       3.068  -0.977  -6.271  0.00  0.00    +0.008 A 
ATOM     24  C   UNL     1       2.495   0.149  -6.832  0.00  0.00    +0.001 A 
ATOM     25  C   UNL     1       2.769   0.486  -8.145  0.00  0.00    +0.004 A 
ATOM     26  C   UNL     1       3.616  -0.301  -8.899  0.00  0.00    +0.046 A 
ATOM     27  C   UNL     1       4.197  -1.429  -8.337  0.00  0.00    +0.124 A 
BRANCH  27  28
ATOM     28  O   UNL     1       5.036  -2.203  -9.075  0.00  0.00    -0.495 OA
ATOM     29  C   UNL     1       5.279  -1.793 -10.422  0.00  0.00    +0.277 C 
ENDBRANCH  27  28
ENDBRANCH   7  22
BRANCH   1  30
ATOM     30  C   UNL     1       0.739  -2.027  -1.265  0.00  0.00    +0.108 C 
BRANCH  30  31
ATOM     31  C   UNL     1       0.718  -0.497  -1.257  0.00  0.00    +0.019 C 
BRANCH  31  33
ATOM     32  C   UNL     1      -0.019   1.526   0.010  0.00  0.00    +0.004 C 
ATOM     33  C   UNL     1       0.002  -0.004   0.002  0.00  0.00    -0.002 C 
ENDBRANCH  31  33
ENDBRANCH  30  31
ENDBRANCH   1  30
TORSDOF 5
