REMARK  Name = ZINC47031925
REMARK  6 active torsions:
REMARK  status: ('A' for Active; 'I' for Inactive)
REMARK    1  A    between atoms: C_4  and  S_8
REMARK    2  A    between atoms: S_8  and  N_11
REMARK    3  A    between atoms: N_11  and  C_12
REMARK    4  A    between atoms: C_12  and  C_13
REMARK    5  A    between atoms: C_13  and  C_15
REMARK    6  A    between atoms: C_13  and  N_20
REMARK                            x       y       z     vdW  Elec       q    Type
REMARK                         _______ _______ _______ _____ _____    ______ ____
ROOT
ATOM      1  N   UNL     1       2.341  -1.223   2.809  0.00  0.00    -0.191 NA
ATOM      2  H   UNL     1       2.035  -1.318   3.724  0.00  0.00    +0.148 HD
ENDROOT
BRANCH   1   3
ATOM      3  S   UNL     1       1.423  -0.389   1.711  0.00  0.00    +0.061 S 
ATOM      4  O   UNL     1       2.297   0.524   1.061  0.00  0.00    -0.153 OA
ATOM      5  O   UNL     1       0.253   0.034   2.398  0.00  0.00    -0.153 OA
BRANCH   3   9
ATOM      6  C   UNL     1       0.077  -3.353  -1.436  0.00  0.00    +0.003 A 
ATOM      7  C   UNL     1      -0.700  -3.137  -0.313  0.00  0.00    +0.022 A 
ATOM      8  C   UNL     1      -0.289  -2.232   0.649  0.00  0.00    +0.069 A 
ATOM      9  C   UNL     1       0.900  -1.543   0.487  0.00  0.00    +0.142 A 
ATOM     10  C   UNL     1       1.677  -1.760  -0.637  0.00  0.00    +0.069 A 
ATOM     11  C   UNL     1       1.264  -2.665  -1.598  0.00  0.00    +0.022 A 
ATOM     12 CL   UNL     1       3.168  -0.895  -0.841  0.00  0.00    -0.081 Cl
ATOM     13 CL   UNL     1      -1.265  -1.960   2.058  0.00  0.00    -0.081 Cl
ENDBRANCH   3   9
ENDBRANCH   1   3
BRANCH   1  14
ATOM     14  C   UNL     1       3.616  -1.816   2.397  0.00  0.00    +0.098 C 
BRANCH  14  15
ATOM     15  C   UNL     1       4.426  -2.194   3.639  0.00  0.00    +0.015 C 
BRANCH  15  16
ATOM     16  N   UNL     1       5.750  -2.682   3.229  0.00  0.00    +0.387 N 
ATOM     17  C   UNL     1       6.506  -1.600   2.546  0.00  0.00    -0.078 C 
ATOM     18  C   UNL     1       7.981  -2.050   2.694  0.00  0.00    -0.020 C 
ATOM     19  C   UNL     1       8.013  -2.670   4.110  0.00  0.00    -0.020 C 
ATOM     20  C   UNL     1       6.551  -3.044   4.419  0.00  0.00    -0.078 C 
ATOM     21  H   UNL     1       5.654  -3.479   2.619  0.00  0.00    -0.081 HD
ENDBRANCH  15  16
BRANCH  15  22
ATOM     22  C   UNL     1       3.705  -3.278   4.399  0.00  0.00    +0.093 A 
ATOM     23  C   UNL     1       2.941  -3.097   5.490  0.00  0.00    +0.043 A 
ATOM     24  C   UNL     1       2.464  -4.372   5.873  0.00  0.00    +0.041 A 
ATOM     25  C   UNL     1       2.966  -5.256   4.991  0.00  0.00    +0.195 A 
ATOM     26  O   UNL     1       3.713  -4.586   4.098  0.00  0.00    -0.469 OA
ENDBRANCH  15  22
ENDBRANCH  14  15
ENDBRANCH   1  14
TORSDOF 6
