REMARK  Name = ZINC37471626
REMARK  12 active torsions:
REMARK  status: ('A' for Active; 'I' for Inactive)
REMARK    1  A    between atoms: C_1  and  C_2
REMARK    2  A    between atoms: C_5  and  S_26
REMARK    3  A    between atoms: C_7  and  N_8
REMARK    4  A    between atoms: C_9  and  C_11
REMARK    5  A    between atoms: C_11  and  C_13
REMARK    6  A    between atoms: C_11  and  N_14
REMARK    7  A    between atoms: N_14  and  C_15
REMARK    8  A    between atoms: C_20  and  C_25
REMARK    9  A    between atoms: C_22  and  C_24
REMARK   10  A    between atoms: S_26  and  N_29
REMARK   11  A    between atoms: N_29  and  C_30
REMARK   12  A    between atoms: N_29  and  C_31
REMARK                            x       y       z     vdW  Elec       q    Type
REMARK                         _______ _______ _______ _____ _____    ______ ____
ROOT
ATOM      1  N   UNL     1       0.025  -0.015   2.417  0.00  0.00    -0.287 N 
ATOM      2  C   UNL     1      -0.056  -0.694   3.578  0.00  0.00    +0.203 C 
ATOM      3  O   UNL     1      -0.040  -1.907   3.573  0.00  0.00    -0.277 OA
ATOM      4  H   UNL     1       0.078   0.954   2.425  0.00  0.00    +0.155 HD
ENDROOT
BRANCH   1  11
ATOM      5  C   UNL     1      -1.264   1.184   0.181  0.00  0.00    +0.045 C 
ATOM      6  C   UNL     1      -0.584  -0.158   0.084  0.00  0.00    -0.029 A 
ATOM      7  C   UNL     1      -0.569  -0.840  -1.117  0.00  0.00    +0.007 A 
ATOM      8  C   UNL     1       0.055  -2.071  -1.206  0.00  0.00    +0.029 A 
ATOM      9  C   UNL     1       0.666  -2.622  -0.095  0.00  0.00    +0.107 A 
ATOM     10  C   UNL     1       0.655  -1.945   1.108  0.00  0.00    +0.052 A 
ATOM     11  C   UNL     1       0.034  -0.706   1.201  0.00  0.00    +0.038 A 
BRANCH   9  12
ATOM     12  S   UNL     1       1.459  -4.191  -0.214  0.00  0.00    +0.060 S 
ATOM     13  O   UNL     1       1.482  -4.736   1.098  0.00  0.00    -0.153 OA
ATOM     14  O   UNL     1       0.858  -4.868  -1.310  0.00  0.00    -0.153 OA
BRANCH  12  15
ATOM     15  N   UNL     1       3.035  -3.912  -0.638  0.00  0.00    -0.183 NA
ATOM     16  C   UNL     1       4.051  -3.721   0.401  0.00  0.00    +0.131 C 
ATOM     17  C   UNL     1       3.415  -3.856  -2.052  0.00  0.00    +0.131 C 
ENDBRANCH  12  15
ENDBRANCH   9  12
ENDBRANCH   1  11
BRANCH   2  18
ATOM     18  C   UNL     1      -0.168   0.052   4.882  0.00  0.00    +0.014 C 
ATOM     19  C   UNL     1      -1.431   0.915   4.870  0.00  0.00    -0.004 C 
BRANCH  18  20
ATOM     20  N   UNL     1      -0.242  -0.908   5.992  0.00  0.00    +0.388 N 
ATOM     21  H   UNL     1      -1.094  -1.443   5.917  0.00  0.00    -0.084 HD
ATOM     22  H   UNL     1       0.551  -1.530   5.951  0.00  0.00    -0.084 HD
BRANCH  20  23
ATOM     23  C   UNL     1      -0.230  -0.182   7.269  0.00  0.00    -0.068 C 
ATOM     24  C   UNL     1       1.114   0.530   7.438  0.00  0.00    -0.015 C 
ATOM     25  C   UNL     1       1.127   1.285   8.768  0.00  0.00    -0.001 C 
ATOM     26  C   UNL     1       0.925   0.297   9.919  0.00  0.00    +0.003 C 
ATOM     27  C   UNL     1      -0.419  -0.415   9.749  0.00  0.00    -0.013 C 
ATOM     28  C   UNL     1      -0.431  -1.171   8.419  0.00  0.00    -0.025 C 
ATOM     29  C   UNL     1       0.698  -2.203   8.408  0.00  0.00    +0.006 C 
ATOM     30  C   UNL     1      -0.621  -1.404  10.899  0.00  0.00    +0.008 C 
ENDBRANCH  20  23
ENDBRANCH  18  20
ENDBRANCH   2  18
TORSDOF 6
