REMARK  Name = ZINC19685034
REMARK  1 active torsions:
REMARK  status: ('A' for Active; 'I' for Inactive)
REMARK    1  A    between atoms: C_10  and  C_11
REMARK                            x       y       z     vdW  Elec       q    Type
REMARK                         _______ _______ _______ _____ _____    ______ ____
ROOT
ATOM      1  C   UNL     1      -3.622  -0.749  -0.044  0.00  0.00    +0.032 A 
ATOM      2  C   UNL     1      -2.404  -0.046   0.016  0.00  0.00    +0.003 A 
ATOM      3  C   UNL     1      -1.175  -0.724   0.008  0.00  0.00    +0.033 A 
ATOM      4  C   UNL     1       0.002  -0.006   0.068  0.00  0.00    +0.031 A 
ATOM      5  C   UNL     1      -0.018   1.391   0.135  0.00  0.00    -0.024 A 
ATOM      6  C   UNL     1      -1.204   2.066   0.142  0.00  0.00    +0.033 A 
ATOM      7  C   UNL     1      -2.421   1.369   0.086  0.00  0.00    +0.074 A 
ATOM      8  N   UNL     1      -3.587   2.029   0.094  0.00  0.00    -0.231 NA
ATOM      9  C   UNL     1      -4.739   1.397   0.039  0.00  0.00    +0.139 A 
ATOM     10  C   UNL     1      -4.801  -0.015  -0.032  0.00  0.00    +0.092 A 
ATOM     11  N   UNL     1      -5.914   2.127   0.050  0.00  0.00    -0.314 N 
ATOM     12  C   UNL     1      -5.997   3.008  -1.122  0.00  0.00    +0.106 C 
ATOM     13  C   UNL     1      -7.367   3.689  -1.154  0.00  0.00    +0.019 C 
ATOM     14  C   UNL     1      -7.559   4.499   0.132  0.00  0.00    +0.003 C 
ATOM     15  C   UNL     1      -7.420   3.567   1.338  0.00  0.00    +0.019 C 
ATOM     16  C   UNL     1      -6.048   2.890   1.298  0.00  0.00    +0.106 C 
ATOM     17  C   UNL     1       1.261   2.188   0.196  0.00  0.00    +0.038 C 
ATOM     18  C   UNL     1       2.416   1.312   0.678  0.00  0.00    +0.023 C 
ATOM     19  C   UNL     1       2.462   0.037  -0.174  0.00  0.00    +0.102 C 
ATOM     20  N   UNL     1       1.216  -0.705   0.061  0.00  0.00    -0.344 N 
ATOM     21  H   UNL     1       1.247  -1.792   0.229  0.00  0.00    +0.146 HD
ENDROOT
BRANCH  10  22
ATOM     22  C   UNL     1      -6.067  -0.681  -0.091  0.00  0.00    +0.103 C 
ATOM     23  N   UNL     1      -7.072  -1.210  -0.139  0.00  0.00    -0.191 NA
ENDBRANCH  10  22
TORSDOF 1
