REMARK  Name = ZINC51667783
REMARK  6 active torsions:
REMARK  status: ('A' for Active; 'I' for Inactive)
REMARK    1  A    between atoms: C_3  and  C_18
REMARK    2  A    between atoms: C_6  and  C_7
REMARK    3  A    between atoms: C_7  and  N_8
REMARK    4  A    between atoms: N_8  and  S_9
REMARK    5  A    between atoms: S_9  and  C_12
REMARK    6  A    between atoms: N_19  and  O_20
REMARK                            x       y       z     vdW  Elec       q    Type
REMARK                         _______ _______ _______ _____ _____    ______ ____
ROOT
ATOM      1  C   UNL     1      -0.023   1.415  -0.122  0.00  0.00    +0.005 A 
ATOM      2  C   UNL     1       1.168   2.112  -0.101  0.00  0.00    +0.012 A 
ATOM      3  C   UNL     1       2.377   1.420  -0.044  0.00  0.00    +0.018 A 
ATOM      4  C   UNL     1       2.375   0.025  -0.008  0.00  0.00    +0.012 A 
ATOM      5  C   UNL     1       1.178  -0.660  -0.029  0.00  0.00    +0.005 A 
ATOM      6  C   UNL     1      -0.018   0.032  -0.086  0.00  0.00    -0.032 A 
ENDROOT
BRANCH   3   7
ATOM      7  C   UNL     1       3.658   2.162  -0.022  0.00  0.00    +0.162 C 
ATOM      8  N   UNL     1       3.702   3.369   0.460  0.00  0.00    -0.072 NA
ATOM      9  N   UNL     1       4.809   1.571  -0.514  0.00  0.00    -0.340 N 
ATOM     10  H   UNL     1       4.777   0.670  -0.873  0.00  0.00    +0.144 HD
ATOM     11  H   UNL     1       5.649   2.057  -0.499  0.00  0.00    +0.144 HD
BRANCH   8  12
ATOM     12  O   UNL     1       2.560   3.923   1.088  0.00  0.00    -0.408 OA
ATOM     13  H   UNL     1       2.688   4.824   1.414  0.00  0.00    +0.328 HD
ENDBRANCH   8  12
ENDBRANCH   3   7
BRANCH   6  14
ATOM     14  C   UNL     1      -1.322  -0.723  -0.109  0.00  0.00    +0.141 C 
BRANCH  14  15
ATOM     15  N   UNL     1      -1.700  -1.004  -1.496  0.00  0.00    -0.185 NA
ATOM     16  H   UNL     1      -1.264  -0.532  -2.223  0.00  0.00    +0.148 HD
BRANCH  15  17
ATOM     17  S   UNL     1      -2.873  -2.126  -1.824  0.00  0.00    +0.066 S 
ATOM     18  O   UNL     1      -3.029  -2.150  -3.236  0.00  0.00    -0.153 OA
ATOM     19  O   UNL     1      -2.545  -3.288  -1.074  0.00  0.00    -0.153 OA
BRANCH  17  20
ATOM     20  C   UNL     1      -4.385  -1.509  -1.162  0.00  0.00    +0.156 A 
ATOM     21  C   UNL     1      -5.617  -2.074  -1.177  0.00  0.00    +0.051 A 
ATOM     22  C   UNL     1      -6.671  -1.399  -0.588  0.00  0.00    +0.025 A 
ATOM     23  C   UNL     1      -6.440  -0.194  -0.012  0.00  0.00    +0.048 A 
ATOM     24  S   UNL     1      -4.689   0.019  -0.289  0.00  0.00    -0.076 S 
ATOM     25 BR   UNL     1      -5.891  -3.758  -1.992  0.00  0.00    -0.048 Br
ENDBRANCH  17  20
ENDBRANCH  15  17
ENDBRANCH  14  15
ENDBRANCH   6  14
TORSDOF 6
