REMARK  Name = ZINC12073912
REMARK  7 active torsions:
REMARK  status: ('A' for Active; 'I' for Inactive)
REMARK    1  A    between atoms: C_1  and  N_2
REMARK    2  A    between atoms: N_2  and  C_3
REMARK    3  A    between atoms: C_13  and  N_49
REMARK    4  A    between atoms: C_15  and  C_16
REMARK    5  A    between atoms: C_15  and  N_49
REMARK    6  A    between atoms: C_20  and  O_22
REMARK    7  A    between atoms: O_22  and  C_23
REMARK                            x       y       z     vdW  Elec       q    Type
REMARK                         _______ _______ _______ _____ _____    ______ ____
ROOT
ATOM      1  N   UNL     1       0.030  -0.495   1.387  0.00  0.00    +0.386 N 
ATOM      2  H   UNL     1       0.815  -0.227   0.782  0.00  0.00    -0.085 HD
ATOM      3  H   UNL     1       0.149  -0.067   2.313  0.00  0.00    -0.085 HD
ENDROOT
BRANCH   1  16
ATOM      4  C   UNL     1       5.705  -4.843   2.295  0.00  0.00    +0.132 C 
ATOM      5  N   UNL     1       5.258  -3.793   1.376  0.00  0.00    -0.306 N 
ATOM      6  C   UNL     1       6.195  -3.220   0.407  0.00  0.00    +0.132 C 
ATOM      7  C   UNL     1       3.950  -3.342   1.425  0.00  0.00    +0.218 A 
ATOM      8  N   UNL     1       3.561  -2.392   0.587  0.00  0.00    -0.223 NA
ATOM      9  C   UNL     1       2.318  -1.945   0.609  0.00  0.00    +0.118 A 
ATOM     10  C   UNL     1       1.416  -2.480   1.522  0.00  0.00    -0.022 A 
ATOM     11  C   UNL     1       1.854  -3.464   2.382  0.00  0.00    +0.048 A 
ATOM     12  N   UNL     1       3.116  -3.870   2.306  0.00  0.00    -0.219 NA
ATOM     13  C   UNL     1       0.959  -4.095   3.414  0.00  0.00    +0.056 C 
ATOM     14  C   UNL     1      -0.509  -3.836   3.079  0.00  0.00    +0.005 C 
ATOM     15  C   UNL     1      -0.695  -2.333   2.836  0.00  0.00    -0.011 C 
ATOM     16  C   UNL     1       0.004  -1.963   1.528  0.00  0.00    -0.037 C 
ENDBRANCH   1  16
BRANCH   1  17
ATOM     17  C   UNL     1      -1.230  -0.016   0.789  0.00  0.00    -0.046 C 
BRANCH  17  18
ATOM     18  C   UNL     1      -1.228   1.491   0.773  0.00  0.00    -0.057 A 
ATOM     19  C   UNL     1      -0.716   2.168  -0.318  0.00  0.00    +0.051 A 
ATOM     20  C   UNL     1      -0.712   3.555  -0.337  0.00  0.00    +0.170 A 
ATOM     21  C   UNL     1      -1.224   4.264   0.744  0.00  0.00    +0.208 A 
ATOM     22  C   UNL     1      -1.737   3.579   1.839  0.00  0.00    +0.166 A 
ATOM     23  C   UNL     1      -1.742   2.193   1.847  0.00  0.00    +0.051 A 
ATOM     24  O   UNL     1      -1.107   5.600   0.485  0.00  0.00    -0.449 OA
ATOM     25  C   UNL     1      -0.149   5.702  -0.585  0.00  0.00    +0.467 C 
ATOM     26  O   UNL     1      -0.274   4.445  -1.275  0.00  0.00    -0.452 OA
BRANCH  22  27
ATOM     27  O   UNL     1      -2.239   4.269   2.898  0.00  0.00    -0.491 OA
ATOM     28  C   UNL     1      -2.750   3.499   3.989  0.00  0.00    +0.277 C 
ENDBRANCH  22  27
ENDBRANCH  17  18
ENDBRANCH   1  17
TORSDOF 4
