REMARK  Name = ZINC02803725
REMARK  4 active torsions:
REMARK  status: ('A' for Active; 'I' for Inactive)
REMARK    1  A    between atoms: C_1  and  C_2
REMARK    2  A    between atoms: C_8  and  C_11
REMARK    3  A    between atoms: N_13  and  C_14
REMARK    4  A    between atoms: C_14  and  C_15
REMARK                            x       y       z     vdW  Elec       q    Type
REMARK                         _______ _______ _______ _____ _____    ______ ____
ROOT
ATOM      1  C   UNL     1      -0.019   1.526   0.010  0.00  0.00    +0.008 C 
ATOM      2  C   UNL     1       0.002  -0.004   0.002  0.00  0.00    -0.009 C 
ATOM      3  C   UNL     1      -1.434  -0.534   0.013  0.00  0.00    +0.011 C 
ATOM      4  C   UNL     1      -1.423  -2.045  -0.248  0.00  0.00    +0.078 C 
ATOM      5  C   UNL     1      -0.424  -2.683   0.685  0.00  0.00    +0.141 A 
ATOM      6  C   UNL     1       0.535  -2.003   1.348  0.00  0.00    +0.027 A 
ATOM      7  C   UNL     1       1.273  -2.924   2.120  0.00  0.00    +0.171 A 
ATOM      8  N   UNL     1       0.761  -4.115   1.917  0.00  0.00    -0.073 NA
ATOM      9  O   UNL     1      -0.318  -3.976   1.006  0.00  0.00    -0.359 OA
ATOM     10  C   UNL     1       0.744  -0.512   1.244  0.00  0.00    +0.044 C 
ENDROOT
BRANCH   7  11
ATOM     11  C   UNL     1       2.420  -2.603   3.004  0.00  0.00    +0.266 C 
ATOM     12  O   UNL     1       2.804  -1.456   3.110  0.00  0.00    -0.268 OA
ATOM     13  N   UNL     1       3.038  -3.586   3.689  0.00  0.00    -0.303 N 
ATOM     14  H   UNL     1       2.732  -4.503   3.605  0.00  0.00    +0.150 HD
BRANCH  13  15
ATOM     15  C   UNL     1       4.171  -3.270   4.562  0.00  0.00    +0.179 C 
BRANCH  15  16
ATOM     16  C   UNL     1       4.676  -4.535   5.207  0.00  0.00    +0.122 A 
ATOM     17  C   UNL     1       5.630  -5.344   4.711  0.00  0.00    +0.046 A 
ATOM     18  C   UNL     1       5.788  -6.404   5.633  0.00  0.00    +0.041 A 
ATOM     19  C   UNL     1       4.923  -6.178   6.638  0.00  0.00    +0.195 A 
ATOM     20  O   UNL     1       4.256  -5.042   6.377  0.00  0.00    -0.466 OA
ENDBRANCH  15  16
ENDBRANCH  13  15
ENDBRANCH   7  11
TORSDOF 3
