REMARK  Name = ZINC39916067
REMARK  4 active torsions:
REMARK  status: ('A' for Active; 'I' for Inactive)
REMARK    1  A    between atoms: C_5  and  C_7
REMARK    2  A    between atoms: C_7  and  S_8
REMARK    3  A    between atoms: S_8  and  C_9
REMARK    4  A    between atoms: C_16  and  C_20
REMARK                            x       y       z     vdW  Elec       q    Type
REMARK                         _______ _______ _______ _____ _____    ______ ____
ROOT
ATOM      1  C   UNL     1       1.276  -4.553   1.507  0.00  0.00    +0.167 C 
ATOM      2  N   UNL     1       1.279  -5.195   0.353  0.00  0.00    -0.223 NA
ATOM      3  C   UNL     1       1.324  -6.616   0.699  0.00  0.00    +0.284 C 
ATOM      4  N   UNL     1       0.476  -7.491  -0.104  0.00  0.00    -0.312 N 
ATOM      5  C   UNL     1       0.196  -8.722   0.452  0.00  0.00    +0.015 C 
ATOM      6  C   UNL     1       0.402  -8.954   1.769  0.00  0.00    +0.035 C 
ATOM      7  C   UNL     1       0.924  -7.865   2.691  0.00  0.00    +0.142 C 
ATOM      8  N   UNL     1       0.701  -6.581   2.062  0.00  0.00    -0.176 NA
ATOM      9  N   UNL     1       1.299  -5.461   2.562  0.00  0.00    -0.253 N 
ATOM     10  C   UNL     1       0.133 -10.210   2.333  0.00  0.00    +0.163 C 
ATOM     11  O   UNL     1       0.338 -10.390   3.517  0.00  0.00    -0.292 OA
ATOM     12  C   UNL     1      -0.406 -11.339   1.495  0.00  0.00    +0.080 C 
ATOM     13  C   UNL     1      -1.229 -10.754   0.343  0.00  0.00    +0.014 C 
ATOM     14  C   UNL     1      -0.338  -9.800  -0.456  0.00  0.00    +0.051 C 
ATOM     15  H   UNL     1       0.133  -7.226  -0.972  0.00  0.00    +0.149 HD
ATOM     16  H   UNL     1       1.658  -5.325   3.453  0.00  0.00    +0.169 HD
ENDROOT
BRANCH   7  17
ATOM     17  C   UNL     1       0.200  -7.924   4.012  0.00  0.00    -0.026 C 
ATOM     18  C   UNL     1       0.725  -8.208   5.202  0.00  0.00    +0.020 C 
ATOM     19  C   UNL     1      -0.323  -8.158   6.222  0.00  0.00    +0.078 C 
ATOM     20  N   UNL     1      -1.465  -7.855   5.700  0.00  0.00    -0.386 N 
ATOM     21  C   UNL     1      -1.270  -7.666   4.257  0.00  0.00    +0.145 C 
ATOM     22  H   UNL     1      -2.304  -7.764   6.178  0.00  0.00    +0.159 HD
ENDBRANCH   7  17
BRANCH   1  23
ATOM     23  S   UNL     1       1.254  -2.800   1.685  0.00  0.00    -0.085 S 
BRANCH  23  24
ATOM     24  C   UNL     1       1.229  -2.186  -0.022  0.00  0.00    +0.113 C 
BRANCH  24  29
ATOM     25  C   UNL     1      -0.017   1.378   0.010  0.00  0.00    +0.000 A 
ATOM     26  C   UNL     1       1.171   2.086   0.002  0.00  0.00    +0.001 A 
ATOM     27  C   UNL     1       2.377   1.412  -0.013  0.00  0.00    +0.020 A 
ATOM     28  C   UNL     1       2.397   0.029  -0.021  0.00  0.00    +0.045 A 
ATOM     29  C   UNL     1       1.208  -0.679  -0.013  0.00  0.00    -0.019 A 
ATOM     30  C   UNL     1       0.002  -0.004   0.002  0.00  0.00    +0.006 A 
ATOM     31 CL   UNL     1       3.912  -0.818  -0.041  0.00  0.00    -0.083 Cl
ENDBRANCH  24  29
ENDBRANCH  23  24
ENDBRANCH   1  23
TORSDOF 4
