REMARK  Name = ZINC10381931
REMARK  4 active torsions:
REMARK  status: ('A' for Active; 'I' for Inactive)
REMARK    1  A    between atoms: C_1  and  C_2
REMARK    2  A    between atoms: C_2  and  C_4
REMARK    3  A    between atoms: C_2  and  S_19
REMARK    4  A    between atoms: S_19  and  C_20
REMARK                            x       y       z     vdW  Elec       q    Type
REMARK                         _______ _______ _______ _____ _____    ______ ____
ROOT
ATOM      1  C   UNL     1       3.478   0.781  -0.027  0.00  0.00    +0.245 C 
ATOM      2  O   UNL     1       4.068   0.825  -1.085  0.00  0.00    -0.271 OA
ATOM      3  N   UNL     1       2.140   0.628  -0.007  0.00  0.00    -0.279 N 
ATOM      4  C   UNL     1       1.221   1.667   0.072  0.00  0.00    +0.058 A 
ATOM      5  C   UNL     1       1.374   3.046   0.148  0.00  0.00    +0.027 A 
ATOM      6  C   UNL     1       0.264   3.861   0.218  0.00  0.00    +0.002 A 
ATOM      7  C   UNL     1      -1.011   3.317   0.214  0.00  0.00    +0.001 A 
ATOM      8  C   UNL     1      -1.181   1.951   0.135  0.00  0.00    +0.010 A 
ATOM      9  C   UNL     1      -0.069   1.117   0.068  0.00  0.00    +0.008 A 
ATOM     10  C   UNL     1       0.098  -0.347  -0.019  0.00  0.00    +0.008 A 
ATOM     11  C   UNL     1       1.477  -0.591  -0.063  0.00  0.00    +0.058 A 
ATOM     12  C   UNL     1       1.935  -1.901  -0.149  0.00  0.00    +0.027 A 
ATOM     13  C   UNL     1       1.036  -2.946  -0.190  0.00  0.00    +0.002 A 
ATOM     14  C   UNL     1      -0.327  -2.703  -0.147  0.00  0.00    +0.001 A 
ATOM     15  C   UNL     1      -0.800  -1.410  -0.061  0.00  0.00    +0.010 A 
ENDROOT
BRANCH   1  17
ATOM     16  C   UNL     1       4.265   2.361   1.715  0.00  0.00    +0.029 C 
ATOM     17  C   UNL     1       4.243   0.898   1.267  0.00  0.00    +0.140 C 
BRANCH  17  18
ATOM     18  S   UNL     1       5.939   0.317   1.020  0.00  0.00    -0.073 S 
BRANCH  18  19
ATOM     19  C   UNL     1       6.540   0.417   2.673  0.00  0.00    +0.190 A 
ATOM     20  N   UNL     1       7.794   0.089   3.102  0.00  0.00    -0.323 N 
ATOM     21  H   UNL     1       8.529  -0.244   2.564  0.00  0.00    +0.169 HD
ATOM     22  C   UNL     1       7.800   0.330   4.448  0.00  0.00    +0.222 A 
ATOM     23  N   UNL     1       6.614   0.763   4.770  0.00  0.00    -0.137 NA
ATOM     24  N   UNL     1       5.865   0.816   3.726  0.00  0.00    -0.123 NA
ENDBRANCH  18  19
ENDBRANCH  17  18
ENDBRANCH   1  17
TORSDOF 3
