REMARK  Name = ZINC39558097
REMARK  3 active torsions:
REMARK  status: ('A' for Active; 'I' for Inactive)
REMARK    1  A    between atoms: C_2  and  C_11
REMARK    2  A    between atoms: N_20  and  C_21
REMARK    3  A    between atoms: C_21  and  C_22
REMARK                            x       y       z     vdW  Elec       q    Type
REMARK                         _______ _______ _______ _____ _____    ______ ____
ROOT
ATOM      1  C   UNL     1       1.147   3.596   0.010  0.00  0.00    +0.207 C 
ATOM      2  N   UNL     1       2.273   4.126   0.830  0.00  0.00    -0.267 NA
ATOM      3  C   UNL     1       1.691   5.378   1.330  0.00  0.00    +0.211 C 
ATOM      4  C   UNL     1       0.202   5.060   1.461  0.00  0.00    +0.094 C 
ATOM      5  N   UNL     1      -0.076   4.084   0.667  0.00  0.00    -0.260 NA
ATOM      6  C   UNL     1      -0.206   5.949   2.550  0.00  0.00    +0.156 C 
ATOM      7  N   UNL     1       0.844   6.221   3.275  0.00  0.00    -0.189 NA
ATOM      8  N   UNL     1       2.048   5.714   2.711  0.00  0.00    -0.232 N 
ATOM      9  H   UNL     1       2.492   3.500   1.591  0.00  0.00    +0.126 HD
ENDROOT
BRANCH   1  11
ATOM     10  C   UNL     1      -0.017   1.381   0.010  0.00  0.00    +0.058 A 
ATOM     11  C   UNL     1       1.171   2.089   0.002  0.00  0.00    +0.013 A 
ATOM     12  C   UNL     1       2.380   1.418  -0.013  0.00  0.00    +0.051 A 
ATOM     13  C   UNL     1       2.406   0.034  -0.021  0.00  0.00    +0.070 A 
ATOM     14  C   UNL     1       1.220  -0.681  -0.013  0.00  0.00    +0.168 A 
ATOM     15  C   UNL     1       0.002  -0.004   0.002  0.00  0.00    +0.167 A 
ATOM     16  O   UNL     1      -1.008  -0.923   0.007  0.00  0.00    -0.453 OA
ATOM     17  C   UNL     1      -0.404  -2.159  -0.418  0.00  0.00    +0.466 C 
ATOM     18  O   UNL     1       0.972  -2.023  -0.018  0.00  0.00    -0.453 OA
ATOM     19 CL   UNL     1       3.868   2.312  -0.024  0.00  0.00    -0.083 Cl
ENDBRANCH   1  11
BRANCH   8  20
ATOM     20  C   UNL     1       3.352   5.548   3.359  0.00  0.00    +0.131 C 
BRANCH  20  21
ATOM     21  C   UNL     1       4.183   6.817   3.165  0.00  0.00    +0.008 C 
ATOM     22  C   UNL     1       5.475   6.698   2.353  0.00  0.00    +0.005 C 
ATOM     23  C   UNL     1       5.539   6.889   3.870  0.00  0.00    +0.005 C 
ENDBRANCH  20  21
ENDBRANCH   8  20
TORSDOF 3
