REMARK  Name = ZINC06028677
REMARK  5 active torsions:
REMARK  status: ('A' for Active; 'I' for Inactive)
REMARK    1  A    between atoms: C_1  and  S_2
REMARK    2  A    between atoms: S_2  and  C_3
REMARK    3  A    between atoms: C_6  and  S_8
REMARK    4  A    between atoms: S_8  and  C_9
REMARK    5  A    between atoms: C_9  and  C_10
REMARK                            x       y       z     vdW  Elec       q    Type
REMARK                         _______ _______ _______ _____ _____    ______ ____
ROOT
ATOM      1  C   UNL     1       4.121  -1.823  -7.247  0.00  0.00    +0.121 A 
ATOM      2  N   UNL     1       4.681  -1.069  -8.228  0.00  0.00    -0.310 N 
ATOM      3  H   UNL     1       4.644  -0.102  -8.163  0.00  0.00    +0.170 HD
ATOM      4  C   UNL     1       5.286  -1.636  -9.288  0.00  0.00    +0.260 A 
ATOM      5  O   UNL     1       5.784  -0.945 -10.160  0.00  0.00    -0.267 OA
ATOM      6  C   UNL     1       5.334  -3.066  -9.376  0.00  0.00    +0.075 A 
ATOM      7  C   UNL     1       5.931  -3.892 -10.424  0.00  0.00    -0.023 A 
ATOM      8  C   UNL     1       5.843  -5.231 -10.272  0.00  0.00    -0.004 A 
ATOM      9  S   UNL     1       4.974  -5.464  -8.745  0.00  0.00    -0.073 S 
ATOM     10  C   UNL     1       4.729  -3.760  -8.315  0.00  0.00    +0.116 A 
ATOM     11  N   UNL     1       4.154  -3.128  -7.296  0.00  0.00    -0.226 NA
ATOM     12  C   UNL     1       6.368  -6.285 -11.198  0.00  0.00    +0.043 C 
ATOM     13  C   UNL     1       6.701  -5.626 -12.544  0.00  0.00    +0.005 C 
ATOM     14  C   UNL     1       7.516  -4.356 -12.280  0.00  0.00    +0.005 C 
ATOM     15  C   UNL     1       6.624  -3.290 -11.643  0.00  0.00    +0.037 C 
ENDROOT
BRANCH   1  16
ATOM     16  C   UNL     1       3.455  -1.143  -6.079  0.00  0.00    +0.150 C 
BRANCH  16  17
ATOM     17  S   UNL     1       2.812  -2.396  -4.936  0.00  0.00    -0.089 S 
BRANCH  17  21
ATOM     18  C   UNL     1       0.848  -0.411  -1.489  0.00  0.00    +0.159 A 
ATOM     19  N   UNL     1       1.363   0.389  -2.403  0.00  0.00    -0.134 NA
ATOM     20  N   UNL     1       1.990  -0.144  -3.505  0.00  0.00    -0.134 NA
ATOM     21  C   UNL     1       2.074  -1.454  -3.642  0.00  0.00    +0.160 A 
ATOM     22  S   UNL     1       1.246  -2.017  -2.163  0.00  0.00    -0.033 S 
BRANCH  18  24
ATOM     23  C   UNL     1      -0.022   1.810   0.012  0.00  0.00    +0.092 C 
ATOM     24  S   UNL     1       0.002  -0.004   0.002  0.00  0.00    -0.100 S 
ENDBRANCH  18  24
ENDBRANCH  17  21
ENDBRANCH  16  17
ENDBRANCH   1  16
TORSDOF 4
