REMARK  Name = ZINC37491149
REMARK  4 active torsions:
REMARK  status: ('A' for Active; 'I' for Inactive)
REMARK    1  A    between atoms: C_4  and  S_10
REMARK    2  A    between atoms: C_6  and  O_9
REMARK    3  A    between atoms: S_10  and  C_11
REMARK    4  A    between atoms: N_15  and  C_16
REMARK                            x       y       z     vdW  Elec       q    Type
REMARK                         _______ _______ _______ _____ _____    ______ ____
ROOT
ATOM      1  C   UNL     1       4.708  -0.019   2.469  0.00  0.00    +0.210 A 
ATOM      2  N   UNL     1       5.161   0.681   1.452  0.00  0.00    -0.102 NA
ATOM      3  N   UNL     1       6.413   0.925   1.595  0.00  0.00    -0.022 NA
ATOM      4  N   UNL     1       6.848   0.409   2.694  0.00  0.00    -0.043 NA
ATOM      5  N   UNL     1       5.751  -0.221   3.309  0.00  0.00    -0.217 N 
ENDROOT
BRANCH   5   6
ATOM      6  C   UNL     1       5.741  -0.943   4.583  0.00  0.00    +0.112 C 
ATOM      7  C   UNL     1       6.233  -0.021   5.718  0.00  0.00    +0.027 C 
ATOM      8  C   UNL     1       7.057  -0.956   6.637  0.00  0.00    +0.002 C 
ATOM      9  C   UNL     1       7.772  -1.886   5.626  0.00  0.00    +0.002 C 
ATOM     10  C   UNL     1       6.719  -2.129   4.525  0.00  0.00    +0.027 C 
ENDBRANCH   5   6
BRANCH   1  11
ATOM     11  S   UNL     1       3.055  -0.582   2.700  0.00  0.00    -0.079 S 
BRANCH  11  15
ATOM     12  C   UNL     1      -0.019   1.526   0.010  0.00  0.00    +0.003 C 
ATOM     13  C   UNL     1       1.417   2.055  -0.000  0.00  0.00    +0.001 C 
ATOM     14  C   UNL     1       2.157   1.548   1.239  0.00  0.00    +0.017 C 
ATOM     15  C   UNL     1       2.178   0.019   1.231  0.00  0.00    +0.083 C 
ATOM     16  C   UNL     1       0.742  -0.511   1.242  0.00  0.00    +0.128 C 
ATOM     17  C   UNL     1       0.002  -0.004   0.002  0.00  0.00    +0.032 C 
BRANCH  16  18
ATOM     18  O   UNL     1       0.761  -1.940   1.234  0.00  0.00    -0.391 OA
ATOM     19  H   UNL     1      -0.117  -2.345   1.240  0.00  0.00    +0.210 HD
ENDBRANCH  16  18
ENDBRANCH  11  15
ENDBRANCH   1  11
TORSDOF 4
