REMARK  Name = ZINC05697370
REMARK  5 active torsions:
REMARK  status: ('A' for Active; 'I' for Inactive)
REMARK    1  A    between atoms: C_1  and  C_2
REMARK    2  A    between atoms: C_3  and  C_21
REMARK    3  A    between atoms: N_9  and  N_12
REMARK    4  A    between atoms: C_13  and  C_14
REMARK    5  A    between atoms: C_19  and  O_20
REMARK                            x       y       z     vdW  Elec       q    Type
REMARK                         _______ _______ _______ _____ _____    ______ ____
ROOT
ATOM      1  C   UNL     1       3.827  10.396   0.478  0.00  0.00    +0.045 C 
ATOM      2  C   UNL     1       4.999   9.449   0.440  0.00  0.00    -0.026 A 
ATOM      3  C   UNL     1       6.254   9.917   0.521  0.00  0.00    -0.008 A 
ATOM      4  S   UNL     1       7.252   8.442   0.434  0.00  0.00    -0.073 S 
ATOM      5  C   UNL     1       5.954   7.241   0.291  0.00  0.00    +0.116 A 
ATOM      6  C   UNL     1       4.783   8.019   0.316  0.00  0.00    +0.077 A 
ATOM      7  C   UNL     1       3.553   7.292   0.215  0.00  0.00    +0.283 A 
ATOM      8  O   UNL     1       2.484   7.878   0.227  0.00  0.00    -0.265 OA
ATOM      9  N   UNL     1       3.596   5.951   0.106  0.00  0.00    -0.185 N 
ATOM     10  C   UNL     1       4.779   5.280   0.096  0.00  0.00    +0.227 A 
ATOM     11  N   UNL     1       5.917   5.917   0.181  0.00  0.00    -0.228 NA
ATOM     12  C   UNL     1       6.711  11.347   0.655  0.00  0.00    +0.052 C 
ENDROOT
BRANCH   9  13
ATOM     13  N   UNL     1       2.398   5.231   0.008  0.00  0.00    -0.170 NA
ATOM     14  C   UNL     1       2.419   3.933   0.007  0.00  0.00    +0.145 C 
BRANCH  14  15
ATOM     15  C   UNL     1       1.155   3.176   0.016  0.00  0.00    +0.036 A 
ATOM     16  C   UNL     1       1.172   1.779   0.016  0.00  0.00    +0.013 A 
ATOM     17  C   UNL     1      -0.014   1.077   0.024  0.00  0.00    +0.001 A 
ATOM     18  C   UNL     1      -1.224   1.750   0.028  0.00  0.00    +0.004 A 
ATOM     19  C   UNL     1      -1.255   3.132   0.034  0.00  0.00    +0.046 A 
ATOM     20  C   UNL     1      -0.073   3.853   0.025  0.00  0.00    +0.125 A 
BRANCH  20  21
ATOM     21  O   UNL     1      -0.102   5.211   0.026  0.00  0.00    -0.506 OA
ATOM     22  H   UNL     1      -0.117   5.605  -0.857  0.00  0.00    +0.292 HD
ENDBRANCH  20  21
ENDBRANCH  14  15
ENDBRANCH   9  13
TORSDOF 3
