REMARK  Name = ZINC37638528
REMARK  2 active torsions:
REMARK  status: ('A' for Active; 'I' for Inactive)
REMARK    1  A    between atoms: C_4  and  C_7
REMARK    2  A    between atoms: N_17  and  C_18
REMARK                            x       y       z     vdW  Elec       q    Type
REMARK                         _______ _______ _______ _____ _____    ______ ____
ROOT
ATOM      1  C   UNL     1       3.642  -0.664   0.028  0.00  0.00    +0.233 C 
ATOM      2  N   UNL     1       4.681   0.258   0.517  0.00  0.00    -0.220 NA
ATOM      3  C   UNL     1       5.446  -0.155   1.514  0.00  0.00    +0.079 C 
ATOM      4  C   UNL     1       6.461   0.668   2.038  0.00  0.00    +0.052 C 
ATOM      5  C   UNL     1       7.238   0.206   3.076  0.00  0.00    +0.035 C 
ATOM      6  C   UNL     1       7.039  -1.073   3.624  0.00  0.00    +0.027 C 
ATOM      7  C   UNL     1       6.080  -1.907   3.162  0.00  0.00    +0.033 C 
ATOM      8  C   UNL     1       5.241  -1.498   2.093  0.00  0.00    +0.105 C 
ATOM      9  N   UNL     1       4.307  -2.303   1.637  0.00  0.00    -0.176 NA
ATOM     10  N   UNL     1       3.522  -1.977   0.674  0.00  0.00    -0.197 N 
ATOM     11  N   UNL     1       8.239   1.020   3.591  0.00  0.00    -0.398 N 
ATOM     12  H   UNL     1       8.384   1.904   3.220  0.00  0.00    +0.156 HD
ATOM     13  H   UNL     1       8.792   0.704   4.322  0.00  0.00    +0.156 HD
ENDROOT
BRANCH   1  17
ATOM     14  C   UNL     1      -0.128   1.311   0.391  0.00  0.00    +0.000 A 
ATOM     15  C   UNL     1       0.462   1.170  -0.851  0.00  0.00    +0.000 A 
ATOM     16  C   UNL     1       1.682   0.531  -0.969  0.00  0.00    +0.007 A 
ATOM     17  C   UNL     1       2.313   0.033   0.156  0.00  0.00    -0.006 A 
ATOM     18  C   UNL     1       1.724   0.175   1.399  0.00  0.00    +0.007 A 
ATOM     19  C   UNL     1       0.503   0.813   1.516  0.00  0.00    +0.000 A 
ENDBRANCH   1  17
BRANCH  10  20
ATOM     20  C   UNL     1       2.550  -2.877   0.238  0.00  0.00    +0.054 A 
ATOM     21  C   UNL     1       1.838  -2.623  -0.929  0.00  0.00    +0.025 A 
ATOM     22  C   UNL     1       0.876  -3.517  -1.356  0.00  0.00    +0.002 A 
ATOM     23  C   UNL     1       0.620  -4.662  -0.625  0.00  0.00    +0.000 A 
ATOM     24  C   UNL     1       1.326  -4.918   0.536  0.00  0.00    +0.002 A 
ATOM     25  C   UNL     1       2.293  -4.032   0.967  0.00  0.00    +0.025 A 
ENDBRANCH  10  20
TORSDOF 2
