REMARK  Name = ZINC10179996
REMARK  6 active torsions:
REMARK  status: ('A' for Active; 'I' for Inactive)
REMARK    1  A    between atoms: C_1  and  C_2
REMARK    2  A    between atoms: C_15  and  C_17
REMARK    3  A    between atoms: C_17  and  N_18
REMARK    4  A    between atoms: N_18  and  C_19
REMARK    5  A    between atoms: C_24  and  C_25
REMARK    6  A    between atoms: N_27  and  C_28
REMARK                            x       y       z     vdW  Elec       q    Type
REMARK                         _______ _______ _______ _____ _____    ______ ____
ROOT
ATOM      1  C   UNL     1       0.316   4.074   2.337  0.00  0.00    +0.029 C 
ATOM      2  C   UNL     1       1.477   4.128   1.342  0.00  0.00    +0.087 C 
ATOM      3  C   UNL     1       2.690   3.412   1.937  0.00  0.00    +0.118 C 
ATOM      4  C   UNL     1       3.691   3.103   0.856  0.00  0.00    +0.219 C 
ATOM      5  O   UNL     1       4.701   3.768   0.761  0.00  0.00    -0.275 OA
ATOM      6  N   UNL     1       3.471   2.090  -0.010  0.00  0.00    -0.284 N 
ATOM      7  C   UNL     1       2.268   1.376   0.023  0.00  0.00    +0.055 A 
ATOM      8  C   UNL     1       2.263  -0.009   0.025  0.00  0.00    +0.025 A 
ATOM      9  C   UNL     1       1.061  -0.693   0.027  0.00  0.00    +0.002 A 
ATOM     10  C   UNL     1      -0.136   0.001   0.023  0.00  0.00    +0.002 A 
ATOM     11  C   UNL     1      -0.139   1.384   0.027  0.00  0.00    +0.025 A 
ATOM     12  C   UNL     1       1.060   2.076   0.038  0.00  0.00    +0.058 A 
ATOM     13  N   UNL     1       1.077   3.476   0.094  0.00  0.00    -0.265 N 
ATOM     14  C   UNL     1       0.730   4.209  -0.983  0.00  0.00    +0.237 C 
ATOM     15  O   UNL     1       0.748   5.420  -0.923  0.00  0.00    -0.274 OA
ATOM     16  H   UNL     1       4.152   1.855  -0.660  0.00  0.00    +0.155 HD
ENDROOT
BRANCH  14  17
ATOM     17  C   UNL     1       0.321   3.524  -2.261  0.00  0.00    +0.198 C 
BRANCH  17  18
ATOM     18  N   UNL     1      -0.005   4.532  -3.273  0.00  0.00    -0.335 N 
ATOM     19  H   UNL     1       0.063   5.475  -3.057  0.00  0.00    +0.147 HD
BRANCH  18  20
ATOM     20  C   UNL     1      -0.412   4.137  -4.541  0.00  0.00    +0.040 A 
ATOM     21  C   UNL     1      -0.396   2.792  -4.892  0.00  0.00    +0.024 A 
ATOM     22  C   UNL     1      -0.805   2.402  -6.151  0.00  0.00    +0.002 A 
ATOM     23  C   UNL     1      -1.224   3.345  -7.076  0.00  0.00    +0.001 A 
ATOM     24  C   UNL     1      -1.241   4.683  -6.748  0.00  0.00    +0.015 A 
ATOM     25  C   UNL     1      -0.835   5.094  -5.476  0.00  0.00    +0.057 A 
BRANCH  25  26
ATOM     26  C   UNL     1      -0.850   6.524  -5.118  0.00  0.00    +0.246 C 
ATOM     27  O   UNL     1      -0.397   6.889  -4.050  0.00  0.00    -0.270 OA
ATOM     28  N   UNL     1      -1.366   7.428  -5.975  0.00  0.00    -0.314 N 
ATOM     29  C   UNL     1      -1.382   8.849  -5.620  0.00  0.00    +0.128 C 
ATOM     30  H   UNL     1      -1.728   7.137  -6.827  0.00  0.00    +0.149 HD
ENDBRANCH  25  26
ENDBRANCH  18  20
ENDBRANCH  17  18
ENDBRANCH  14  17
TORSDOF 4
