REMARK  Name = ZINC39712027
REMARK  10 active torsions:
REMARK  status: ('A' for Active; 'I' for Inactive)
REMARK    1  A    between atoms: C_1  and  C_2
REMARK    2  A    between atoms: C_8  and  C_14
REMARK    3  A    between atoms: C_14  and  N_15
REMARK    4  A    between atoms: N_15  and  C_16
REMARK    5  A    between atoms: C_16  and  C_17
REMARK    6  A    between atoms: C_22  and  C_24
REMARK    7  A    between atoms: C_27  and  C_30
REMARK    8  A    between atoms: C_30  and  C_31
REMARK    9  A    between atoms: C_30  and  C_32
REMARK   10  A    between atoms: C_30  and  C_33
REMARK                            x       y       z     vdW  Elec       q    Type
REMARK                         _______ _______ _______ _____ _____    ______ ____
ROOT
ATOM      1  N   UNL     1       0.555  -1.755   5.486  0.00  0.00    -0.289 N 
ATOM      2  C   UNL     1       1.246  -0.618   5.702  0.00  0.00    +0.247 C 
ATOM      3  O   UNL     1       2.285  -0.416   5.105  0.00  0.00    -0.270 OA
ENDROOT
BRANCH   2   4
ATOM      4  C   UNL     1       0.740   0.384   6.664  0.00  0.00    +0.037 A 
ATOM      5  C   UNL     1       0.137  -0.029   7.854  0.00  0.00    +0.013 A 
ATOM      6  C   UNL     1      -0.333   0.911   8.748  0.00  0.00    +0.005 A 
ATOM      7  C   UNL     1      -0.208   2.260   8.467  0.00  0.00    -0.042 A 
ATOM      8  C   UNL     1       0.387   2.676   7.289  0.00  0.00    +0.005 A 
ATOM      9  C   UNL     1       0.867   1.746   6.390  0.00  0.00    +0.013 A 
BRANCH   7  10
ATOM     10  C   UNL     1      -0.725   3.281   9.448  0.00  0.00    -0.013 C 
ATOM     11  C   UNL     1      -0.003   3.112  10.787  0.00  0.00    +0.015 C 
ATOM     12  C   UNL     1      -0.466   4.687   8.903  0.00  0.00    +0.015 C 
ATOM     13  C   UNL     1      -2.228   3.080   9.649  0.00  0.00    +0.015 C 
ENDBRANCH   7  10
ENDBRANCH   2   4
BRANCH   1  14
ATOM     14  C   UNL     1       1.089  -2.776   4.582  0.00  0.00    +0.125 C 
BRANCH  14  22
ATOM     15  C   UNL     1       3.394  -0.244  -0.512  0.00  0.00    +0.045 C 
ATOM     16  C   UNL     1       3.003  -1.664  -0.193  0.00  0.00    -0.029 A 
ATOM     17  C   UNL     1       3.431  -2.676  -0.992  0.00  0.00    +0.005 A 
ATOM     18  C   UNL     1       3.106  -4.012  -0.753  0.00  0.00    +0.001 A 
ATOM     19  C   UNL     1       2.335  -4.374   0.304  0.00  0.00    +0.009 A 
ATOM     20  C   UNL     1       1.839  -3.333   1.206  0.00  0.00    -0.007 A 
ATOM     21  C   UNL     1       1.062  -3.650   2.280  0.00  0.00    -0.003 C 
ATOM     22  C   UNL     1       0.593  -2.507   3.159  0.00  0.00    +0.116 C 
ATOM     23  C   UNL     1       1.026  -1.111   2.774  0.00  0.00    +0.226 C 
ATOM     24  O   UNL     1       0.679  -0.157   3.445  0.00  0.00    -0.275 OA
ATOM     25  N   UNL     1       1.784  -0.930   1.706  0.00  0.00    -0.284 N 
ATOM     26  C   UNL     1       2.202  -1.931   0.932  0.00  0.00    +0.043 A 
ATOM     27  H   UNL     1       2.050  -0.026   1.476  0.00  0.00    +0.155 HD
ENDBRANCH  14  22
ENDBRANCH   1  14
BRANCH   1  28
ATOM     28  C   UNL     1      -0.730  -1.969   6.156  0.00  0.00    +0.182 C 
BRANCH  28  29
ATOM     29  C   UNL     1      -0.699  -3.283   6.894  0.00  0.00    +0.122 A 
ATOM     30  C   UNL     1      -0.400  -3.448   8.194  0.00  0.00    +0.046 A 
ATOM     31  C   UNL     1      -0.492  -4.833   8.463  0.00  0.00    +0.041 A 
ATOM     32  C   UNL     1      -0.841  -5.432   7.310  0.00  0.00    +0.195 A 
ATOM     33  O   UNL     1      -0.971  -4.487   6.364  0.00  0.00    -0.466 OA
ENDBRANCH  28  29
ENDBRANCH   1  28
TORSDOF 6
