REMARK  Name = ZINC15982751
REMARK  3 active torsions:
REMARK  status: ('A' for Active; 'I' for Inactive)
REMARK    1  A    between atoms: C_12  and  N_14
REMARK    2  A    between atoms: C_15  and  C_17
REMARK    3  A    between atoms: C_22  and  N_23
REMARK                            x       y       z     vdW  Elec       q    Type
REMARK                         _______ _______ _______ _____ _____    ______ ____
ROOT
ATOM      1  N   UNL     1      -2.327  -0.934   0.429  0.00  0.00    -0.281 N 
ATOM      2  C   UNL     1      -1.108  -1.244   0.912  0.00  0.00    +0.250 C 
ATOM      3  O   UNL     1      -0.935  -2.293   1.500  0.00  0.00    -0.270 OA
ATOM      4  H   UNL     1      -2.452  -0.125  -0.091  0.00  0.00    +0.155 HD
ENDROOT
BRANCH   1  16
ATOM      5  C   UNL     1      -7.908  -6.937   1.800  0.00  0.00    +0.000 A 
ATOM      6  C   UNL     1      -8.583  -5.730   1.851  0.00  0.00    +0.001 A 
ATOM      7  C   UNL     1      -7.904  -4.545   1.658  0.00  0.00    +0.009 A 
ATOM      8  C   UNL     1      -6.530  -4.561   1.409  0.00  0.00    -0.014 A 
ATOM      9  C   UNL     1      -5.860  -5.780   1.359  0.00  0.00    -0.035 A 
ATOM     10  C   UNL     1      -6.546  -6.960   1.554  0.00  0.00    +0.004 A 
ATOM     11  C   UNL     1      -4.406  -5.489   1.078  0.00  0.00    +0.071 C 
ATOM     12  C   UNL     1      -4.295  -3.988   0.969  0.00  0.00    -0.034 A 
ATOM     13  C   UNL     1      -5.568  -3.458   1.169  0.00  0.00    -0.014 A 
ATOM     14  C   UNL     1      -5.752  -2.074   1.120  0.00  0.00    +0.010 A 
ATOM     15  C   UNL     1      -4.680  -1.244   0.876  0.00  0.00    +0.024 A 
ATOM     16  C   UNL     1      -3.412  -1.779   0.677  0.00  0.00    +0.034 A 
ATOM     17  C   UNL     1      -3.226  -3.156   0.719  0.00  0.00    +0.028 A 
ENDBRANCH   1  16
BRANCH   2  18
ATOM     18  C   UNL     1       0.020  -0.307   0.727  0.00  0.00    +0.067 A 
ATOM     19  C   UNL     1      -0.101   1.024   1.134  0.00  0.00    +0.017 A 
ATOM     20  C   UNL     1       0.957   1.892   0.964  0.00  0.00    +0.021 A 
ATOM     21  C   UNL     1       2.135   1.448   0.386  0.00  0.00    +0.043 A 
ATOM     22  C   UNL     1       2.259   0.131  -0.024  0.00  0.00    +0.053 A 
ATOM     23  C   UNL     1       1.208  -0.747   0.141  0.00  0.00    +0.140 A 
ATOM     24 CL   UNL     1       3.463   2.547   0.176  0.00  0.00    -0.083 Cl
BRANCH  23  25
ATOM     25  N   UNL     1       1.341  -2.154  -0.299  0.00  0.00    +0.057 N 
ATOM     26  O   UNL     1       2.415  -2.569  -0.695  0.00  0.00    -0.126 OA
ATOM     27  O   UNL     1       0.376  -2.897  -0.264  0.00  0.00    -0.126 OA
ENDBRANCH  23  25
ENDBRANCH   2  18
TORSDOF 3
