REMARK  Name = ZINC27021659
REMARK  2 active torsions:
REMARK  status: ('A' for Active; 'I' for Inactive)
REMARK    1  A    between atoms: C_6  and  N_7
REMARK    2  A    between atoms: C_8  and  C_10
REMARK                            x       y       z     vdW  Elec       q    Type
REMARK                         _______ _______ _______ _____ _____    ______ ____
ROOT
ATOM      1  C   UNL     1      -3.385   6.527  -0.123  0.00  0.00    +0.027 A 
ATOM      2  C   UNL     1      -4.266   7.590  -0.200  0.00  0.00    +0.051 A 
ATOM      3  C   UNL     1      -5.633   7.363  -0.181  0.00  0.00    +0.173 A 
ATOM      4  C   UNL     1      -6.120   6.061  -0.083  0.00  0.00    +0.174 A 
ATOM      5  C   UNL     1      -5.237   4.997  -0.012  0.00  0.00    +0.073 A 
ATOM      6  C   UNL     1      -3.868   5.229  -0.025  0.00  0.00    +0.037 A 
ATOM      7  O   UNL     1      -7.484   6.105  -0.084  0.00  0.00    -0.395 OA
ATOM      8  C   UNL     1      -7.827   7.407  -0.594  0.00  0.00    +0.589 C 
ATOM      9  O   UNL     1      -6.693   8.222  -0.243  0.00  0.00    -0.395 OA
ATOM     10  F   UNL     1      -7.990   7.364  -1.983  0.00  0.00    -0.125 F 
ATOM     11  F   UNL     1      -8.989   7.886   0.021  0.00  0.00    -0.125 F 
ENDROOT
BRANCH   6  12
ATOM     12  N   UNL     1      -2.975   4.154   0.053  0.00  0.00    -0.280 N 
ATOM     13  C   UNL     1      -3.295   3.063   0.776  0.00  0.00    +0.265 C 
ATOM     14  O   UNL     1      -4.316   3.050   1.438  0.00  0.00    -0.268 OA
ATOM     15  H   UNL     1      -2.011   4.200  -0.476  0.00  0.00    +0.155 HD
BRANCH  13  16
ATOM     16  C   UNL     1      -2.413   1.891   0.765  0.00  0.00    +0.104 A 
ATOM     17  C   UNL     1      -2.615   0.713   1.453  0.00  0.00    +0.052 A 
ATOM     18  C   UNL     1      -1.536  -0.126   1.157  0.00  0.00    +0.059 A 
ATOM     19  C   UNL     1      -0.711   0.540   0.312  0.00  0.00    +0.103 A 
ATOM     20  N   UNL     1      -1.231   1.769   0.071  0.00  0.00    -0.356 N 
ATOM     21  H   UNL     1      -0.868   2.603  -0.547  0.00  0.00    +0.166 HD
ATOM     22 CL   UNL     1      -1.295  -1.734   1.764  0.00  0.00    -0.082 Cl
ENDBRANCH  13  16
ENDBRANCH   6  12
TORSDOF 2
