REMARK  Name = ZINC41926626
REMARK  10 active torsions:
REMARK  status: ('A' for Active; 'I' for Inactive)
REMARK    1  A    between atoms: C_1  and  C_2
REMARK    2  A    between atoms: C_2  and  O_3
REMARK    3  A    between atoms: O_3  and  C_4
REMARK    4  A    between atoms: C_9  and  N_10
REMARK    5  A    between atoms: C_11  and  C_13
REMARK    6  A    between atoms: N_15  and  C_16
REMARK    7  A    between atoms: C_16  and  C_17
REMARK    8  A    between atoms: C_17  and  C_18
REMARK    9  A    between atoms: C_17  and  C_19
REMARK   10  A    between atoms: C_17  and  N_20
REMARK                            x       y       z     vdW  Elec       q    Type
REMARK                         _______ _______ _______ _____ _____    ______ ____
ROOT
ATOM      1  C   UNL     1       3.319  -1.025  -5.429  0.00  0.00    +0.299 C 
ATOM      2  O   UNL     1       3.213   0.177  -5.301  0.00  0.00    -0.265 OA
ATOM      3  N   UNL     1       4.030  -1.532  -6.456  0.00  0.00    -0.309 N 
ATOM      4  H   UNL     1       4.115  -2.493  -6.558  0.00  0.00    +0.149 HD
ENDROOT
BRANCH   1   6
ATOM      5  N   UNL     1       1.951  -1.433  -3.424  0.00  0.00    -0.275 N 
ATOM      6  C   UNL     1       2.662  -1.941  -4.450  0.00  0.00    +0.303 C 
ATOM      7  O   UNL     1       2.768  -3.144  -4.579  0.00  0.00    -0.265 OA
ATOM      8  H   UNL     1       1.812  -0.476  -3.357  0.00  0.00    +0.155 HD
BRANCH   5  14
ATOM      9  C   UNL     1       1.339  -1.878  -1.126  0.00  0.00    +0.142 A 
ATOM     10  C   UNL     1       0.800  -2.726  -0.172  0.00  0.00    +0.047 A 
ATOM     11  C   UNL     1       0.342  -3.978  -0.540  0.00  0.00    +0.004 A 
ATOM     12  C   UNL     1       0.420  -4.388  -1.859  0.00  0.00    +0.002 A 
ATOM     13  C   UNL     1       0.956  -3.548  -2.816  0.00  0.00    +0.027 A 
ATOM     14  C   UNL     1       1.413  -2.288  -2.456  0.00  0.00    +0.076 A 
BRANCH   9  15
ATOM     15  O   UNL     1       1.788  -0.646  -0.766  0.00  0.00    -0.490 OA
BRANCH  15  17
ATOM     16  C   UNL     1       2.233   1.117   0.826  0.00  0.00    +0.048 C 
ATOM     17  C   UNL     1       1.681  -0.294   0.614  0.00  0.00    +0.226 C 
ENDBRANCH  15  17
ENDBRANCH   9  15
ENDBRANCH   5  14
ENDBRANCH   1   6
BRANCH   3  18
ATOM     18  C   UNL     1       4.675  -0.633  -7.416  0.00  0.00    +0.092 C 
BRANCH  18  19
ATOM     19  C   UNL     1       5.411  -1.459  -8.473  0.00  0.00    -0.055 C 
ATOM     20  C   UNL     1       6.085  -0.519  -9.475  0.00  0.00    -0.008 C 
ATOM     21  C   UNL     1       6.474  -2.325  -7.793  0.00  0.00    -0.008 C 
BRANCH  19  22
ATOM     22  N   UNL     1       4.453  -2.321  -9.176  0.00  0.00    +0.387 N 
ATOM     23  C   UNL     1       5.133  -3.015 -10.280  0.00  0.00    -0.073 C 
ATOM     24  C   UNL     1       4.216  -4.123 -10.799  0.00  0.00    +0.017 C 
ATOM     25  C   UNL     1       2.847  -3.559 -11.085  0.00  0.00    -0.048 A 
ATOM     26  C   UNL     1       1.977  -4.294 -11.875  0.00  0.00    +0.004 A 
ATOM     27  C   UNL     1       0.714  -3.812 -12.155  0.00  0.00    +0.000 A 
ATOM     28  C   UNL     1       0.316  -2.590 -11.645  0.00  0.00    +0.000 A 
ATOM     29  C   UNL     1       1.182  -1.857 -10.860  0.00  0.00    +0.002 A 
ATOM     30  C   UNL     1       2.452  -2.339 -10.578  0.00  0.00    -0.061 A 
ATOM     31  C   UNL     1       3.367  -1.502  -9.724  0.00  0.00    -0.042 C 
ATOM     32  H   UNL     1       4.073  -2.999  -8.533  0.00  0.00    -0.080 HD
ENDBRANCH  19  22
ENDBRANCH  18  19
ENDBRANCH   3  18
TORSDOF 7
