REMARK  Name = ZINC38989843
REMARK  7 active torsions:
REMARK  status: ('A' for Active; 'I' for Inactive)
REMARK    1  A    between atoms: C_1  and  O_2
REMARK    2  A    between atoms: O_2  and  C_3
REMARK    3  A    between atoms: C_5  and  C_10
REMARK    4  A    between atoms: C_8  and  O_9
REMARK    5  A    between atoms: C_17  and  S_23
REMARK    6  A    between atoms: S_23  and  C_24
REMARK    7  A    between atoms: C_24  and  C_25
REMARK                            x       y       z     vdW  Elec       q    Type
REMARK                         _______ _______ _______ _____ _____    ______ ____
ROOT
ATOM      1  C   UNL     1       2.403   0.379  -4.230  0.00  0.00    +0.047 C 
ATOM      2  C   UNL     1       3.897   0.062  -4.343  0.00  0.00    +0.105 C 
ATOM      3  C   UNL     1       4.474   0.637  -5.602  0.00  0.00    +0.219 C 
ATOM      4  N   UNL     1       3.736   0.991  -6.663  0.00  0.00    -0.273 N 
ATOM      5  C   UNL     1       2.373   0.915  -6.627  0.00  0.00    +0.117 C 
ATOM      6  N   UNL     1       1.646   1.580  -7.478  0.00  0.00    -0.212 NA
ATOM      7  C   UNL     1       0.310   1.619  -7.399  0.00  0.00    +0.182 C 
ATOM      8  N   UNL     1      -0.357   1.018  -6.423  0.00  0.00    -0.154 NA
ATOM      9  C   UNL     1       0.259   0.279  -5.511  0.00  0.00    +0.249 C 
ATOM     10  O   UNL     1      -0.388  -0.221  -4.612  0.00  0.00    -0.273 OA
ATOM     11  C   UNL     1       1.737   0.049  -5.569  0.00  0.00    +0.148 C 
ATOM     12  O   UNL     1       5.676   0.790  -5.663  0.00  0.00    -0.275 OA
ATOM     13  H   UNL     1       4.177   1.305  -7.468  0.00  0.00    +0.156 HD
ENDROOT
BRANCH   1  16
ATOM     14  C   UNL     1       0.606  -0.608  -1.056  0.00  0.00    +0.162 A 
ATOM     15  C   UNL     1       1.173   0.159  -2.062  0.00  0.00    +0.053 A 
ATOM     16  C   UNL     1       1.787  -0.456  -3.137  0.00  0.00    -0.039 A 
ATOM     17  C   UNL     1       1.837  -1.836  -3.212  0.00  0.00    +0.008 A 
ATOM     18  C   UNL     1       1.273  -2.606  -2.212  0.00  0.00    +0.049 A 
ATOM     19  C   UNL     1       0.662  -1.996  -1.129  0.00  0.00    +0.158 A 
BRANCH  14  21
ATOM     20  C   UNL     1      -0.017   1.425   0.010  0.00  0.00    +0.277 C 
ATOM     21  O   UNL     1       0.002  -0.004   0.002  0.00  0.00    -0.491 OA
ENDBRANCH  14  21
BRANCH  19  22
ATOM     22  O   UNL     1       0.112  -2.753  -0.142  0.00  0.00    -0.503 OA
ATOM     23  H   UNL     1      -0.816  -2.979  -0.291  0.00  0.00    +0.292 HD
ENDBRANCH  19  22
ENDBRANCH   1  16
BRANCH   7  24
ATOM     24  S   UNL     1      -0.592   2.498  -8.631  0.00  0.00    -0.084 S 
BRANCH  24  25
ATOM     25  C   UNL     1      -2.325   2.291  -8.138  0.00  0.00    +0.112 C 
BRANCH  25  26
ATOM     26  C   UNL     1      -3.216   3.004  -9.122  0.00  0.00    -0.034 A 
ATOM     27  C   UNL     1      -3.551   4.330  -8.915  0.00  0.00    +0.004 A 
ATOM     28  C   UNL     1      -4.368   4.986  -9.817  0.00  0.00    +0.003 A 
ATOM     29  C   UNL     1      -4.851   4.317 -10.926  0.00  0.00    +0.038 A 
ATOM     30  C   UNL     1      -4.516   2.990 -11.134  0.00  0.00    +0.124 A 
ATOM     31  C   UNL     1      -3.692   2.336 -10.234  0.00  0.00    +0.042 A 
ATOM     32  F   UNL     1      -4.987   2.336 -12.218  0.00  0.00    -0.205 F 
ENDBRANCH  25  26
ENDBRANCH  24  25
ENDBRANCH   7  24
TORSDOF 6
