REMARK  Name = ZINC04453411
REMARK  6 active torsions:
REMARK  status: ('A' for Active; 'I' for Inactive)
REMARK    1  A    between atoms: C_1  and  C_2
REMARK    2  A    between atoms: C_2  and  O_3
REMARK    3  A    between atoms: O_3  and  C_4
REMARK    4  A    between atoms: C_12  and  C_22
REMARK    5  A    between atoms: C_17  and  N_21
REMARK    6  A    between atoms: C_18  and  C_19
REMARK                            x       y       z     vdW  Elec       q    Type
REMARK                         _______ _______ _______ _____ _____    ______ ____
ROOT
ATOM      1  C   UNL     1      -1.497  -1.836   0.006  0.00  0.00    +0.403 C 
ATOM      2  O   UNL     1      -0.523  -2.563  -0.007  0.00  0.00    -0.226 OA
ATOM      3  N   UNL     1      -2.735  -2.368   0.015  0.00  0.00    -0.267 N 
ATOM      4  C   UNL     1      -3.922  -1.502   0.025  0.00  0.00    +0.112 C 
ATOM      5  C   UNL     1      -4.840  -1.911  -1.130  0.00  0.00    +0.033 C 
ATOM      6  C   UNL     1      -5.166  -3.408  -1.012  0.00  0.00    +0.032 C 
ATOM      7  C   UNL     1      -3.857  -4.202  -1.140  0.00  0.00    +0.033 C 
ATOM      8  C   UNL     1      -2.925  -3.825   0.009  0.00  0.00    +0.112 C 
ATOM      9  C   UNL     1      -5.757  -3.667   0.374  0.00  0.00    +0.157 C 
ATOM     10  C   UNL     1      -6.188  -5.120   0.457  0.00  0.00    +0.089 C 
ATOM     11  N   UNL     1      -5.637  -5.956   1.276  0.00  0.00    -0.296 NA
ATOM     12  S   UNL     1      -7.496  -5.599  -0.641  0.00  0.00    -0.058 S 
ATOM     13  C   UNL     1      -7.073  -4.708  -2.107  0.00  0.00    +0.079 C 
ATOM     14  C   UNL     1      -6.086  -3.797  -2.120  0.00  0.00    +0.065 C 
ATOM     15  H   UNL     1      -4.924  -5.661   1.864  0.00  0.00    +0.187 HD
ENDROOT
BRANCH  13  16
ATOM     16  N   UNL     1      -7.772  -4.955  -3.264  0.00  0.00    -0.352 N 
ATOM     17  H   UNL     1      -8.487  -5.610  -3.269  0.00  0.00    +0.143 HD
ATOM     18  H   UNL     1      -7.550  -4.473  -4.077  0.00  0.00    +0.143 HD
ENDBRANCH  13  16
BRANCH  14  19
ATOM     19  C   UNL     1      -5.891  -3.110  -3.361  0.00  0.00    +0.098 C 
ATOM     20  N   UNL     1      -5.737  -2.564  -4.345  0.00  0.00    -0.191 NA
ENDBRANCH  14  19
BRANCH   9  21
ATOM     21  C   UNL     1      -6.921  -2.791   0.586  0.00  0.00    +0.074 C 
ATOM     22  N   UNL     1      -7.819  -2.115   0.750  0.00  0.00    -0.196 NA
ENDBRANCH   9  21
BRANCH   1  23
ATOM     23  O   UNL     1      -1.339  -0.499   0.012  0.00  0.00    -0.451 OA
BRANCH  23  25
ATOM     24  C   UNL     1      -0.019   1.526   0.010  0.00  0.00    +0.048 C 
ATOM     25  C   UNL     1       0.002  -0.004   0.002  0.00  0.00    +0.230 C 
ENDBRANCH  23  25
ENDBRANCH   1  23
TORSDOF 5
