REMARK  Name = ZINC35870172
REMARK  5 active torsions:
REMARK  status: ('A' for Active; 'I' for Inactive)
REMARK    1  A    between atoms: C_6  and  N_7
REMARK    2  A    between atoms: C_11  and  C_28
REMARK    3  A    between atoms: N_18  and  C_20
REMARK    4  A    between atoms: C_20  and  C_21
REMARK    5  A    between atoms: N_30  and  C_31
REMARK                            x       y       z     vdW  Elec       q    Type
REMARK                         _______ _______ _______ _____ _____    ______ ____
ROOT
ATOM      1  C   UNL     1      -0.017   1.378   0.010  0.00  0.00    +0.034 A 
ATOM      2  C   UNL     1       1.169   2.085   0.002  0.00  0.00    +0.025 A 
ATOM      3  C   UNL     1       2.384   1.405  -0.015  0.00  0.00    +0.033 A 
ATOM      4  C   UNL     1       2.399   0.021  -0.025  0.00  0.00    -0.023 A 
ATOM      5  C   UNL     1       1.207  -0.681  -0.015  0.00  0.00    +0.038 A 
ATOM      6  C   UNL     1       0.002  -0.004   0.002  0.00  0.00    +0.127 A 
ATOM      7  C   UNL     1       3.700  -0.737  -0.053  0.00  0.00    +0.051 C 
ATOM      8  C   UNL     1       4.784   0.135  -0.685  0.00  0.00    +0.098 C 
ATOM      9  C   UNL     1       4.859   1.475   0.054  0.00  0.00    +0.069 C 
ATOM     10  N   UNL     1       3.573   2.152  -0.018  0.00  0.00    -0.329 N 
ATOM     11  C   UNL     1       3.453   3.611  -0.064  0.00  0.00    +0.087 C 
ATOM     12  C   UNL     1       4.638   4.224  -0.807  0.00  0.00    -0.059 C 
ATOM     13  N   UNL     1       5.878   3.713  -0.205  0.00  0.00    +0.388 N 
ATOM     14  C   UNL     1       6.006   2.291  -0.520  0.00  0.00    -0.055 C 
ATOM     15  H   UNL     1       5.843   3.835   0.796  0.00  0.00    -0.081 HD
ENDROOT
BRANCH   8  16
ATOM     16  C   UNL     1       4.451   0.379  -2.135  0.00  0.00    +0.218 C 
ATOM     17  O   UNL     1       4.288   1.511  -2.537  0.00  0.00    -0.275 OA
ATOM     18  N   UNL     1       4.334  -0.661  -2.984  0.00  0.00    -0.312 N 
ATOM     19  H   UNL     1       4.464  -1.567  -2.662  0.00  0.00    +0.149 HD
BRANCH  18  20
ATOM     20  C   UNL     1       4.010  -0.424  -4.393  0.00  0.00    +0.073 C 
ATOM     21  C   UNL     1       2.968  -1.337  -5.041  0.00  0.00    +0.024 C 
ATOM     22  C   UNL     1       4.446  -1.484  -5.406  0.00  0.00    +0.024 C 
ENDBRANCH  18  20
ENDBRANCH   8  16
BRANCH   6  23
ATOM     23  N   UNL     1      -1.270  -0.760   0.012  0.00  0.00    +0.056 N 
ATOM     24  O   UNL     1      -2.325  -0.169   0.027  0.00  0.00    -0.126 OA
ATOM     25  O   UNL     1      -1.255  -1.969   0.005  0.00  0.00    -0.126 OA
ENDBRANCH   6  23
BRANCH  13  26
ATOM     26  C   UNL     1       7.028   4.443  -0.753  0.00  0.00    +0.019 C 
BRANCH  26  27
ATOM     27  C   UNL     1       6.950   5.889  -0.336  0.00  0.00    +0.199 C 
ATOM     28  O   UNL     1       6.027   6.273   0.351  0.00  0.00    -0.278 OA
ATOM     29  N   UNL     1       7.906   6.756  -0.725  0.00  0.00    -0.303 N 
ATOM     30  C   UNL     1       9.072   6.428  -1.560  0.00  0.00    +0.108 C 
ATOM     31  C   UNL     1       9.897   7.721  -1.722  0.00  0.00    +0.020 C 
ATOM     32  C   UNL     1       9.453   8.573  -0.504  0.00  0.00    +0.020 C 
ATOM     33  C   UNL     1       7.954   8.191  -0.390  0.00  0.00    +0.108 C 
ENDBRANCH  26  27
ENDBRANCH  13  26
TORSDOF 5
