REMARK  Name = ZINC27807121
REMARK  4 active torsions:
REMARK  status: ('A' for Active; 'I' for Inactive)
REMARK    1  A    between atoms: C_1  and  C_2
REMARK    2  A    between atoms: C_4  and  C_14
REMARK    3  A    between atoms: N_16  and  N_17
REMARK    4  A    between atoms: C_18  and  C_20
REMARK                            x       y       z     vdW  Elec       q    Type
REMARK                         _______ _______ _______ _____ _____    ______ ____
ROOT
ATOM      1  C   UNL     1      -1.479   3.204   1.712  0.00  0.00    +0.274 C 
ATOM      2  O   UNL     1      -1.444   2.079   2.164  0.00  0.00    -0.270 OA
ATOM      3  N   UNL     1      -1.568   4.262   2.543  0.00  0.00    -0.231 N 
ATOM      4  H   UNL     1      -1.683   5.275   2.132  0.00  0.00    +0.173 HD
ENDROOT
BRANCH   1   7
ATOM      5  C   UNL     1       0.102   5.379   0.554  0.00  0.00    +0.056 C 
ATOM      6  C   UNL     1      -0.072   4.038  -0.162  0.00  0.00    +0.220 C 
ATOM      7  C   UNL     1      -1.423   3.419   0.222  0.00  0.00    +0.300 C 
ATOM      8  O   UNL     1      -1.548   2.163  -0.455  0.00  0.00    -0.472 OA
ATOM      9  C   UNL     1      -0.468   1.335  -0.410  0.00  0.00    +0.163 A 
ATOM     10  C   UNL     1      -0.626  -0.008  -0.714  0.00  0.00    +0.049 A 
ATOM     11  C   UNL     1       0.463  -0.859  -0.681  0.00  0.00    +0.004 A 
ATOM     12  C   UNL     1       1.712  -0.373  -0.344  0.00  0.00    +0.004 A 
ATOM     13  C   UNL     1       1.877   0.965  -0.039  0.00  0.00    +0.049 A 
ATOM     14  C   UNL     1       0.788   1.823  -0.069  0.00  0.00    +0.163 A 
ATOM     15  O   UNL     1       0.965   3.137   0.241  0.00  0.00    -0.481 OA
ENDBRANCH   1   7
BRANCH   3  16
ATOM     16  N   UNL     1      -1.513   4.070   3.930  0.00  0.00    -0.229 N 
ATOM     17  C   UNL     1      -1.602   5.127   4.760  0.00  0.00    +0.276 C 
ATOM     18  O   UNL     1      -1.730   6.249   4.306  0.00  0.00    -0.267 OA
ATOM     19  H   UNL     1      -1.397   3.056   4.340  0.00  0.00    +0.173 HD
BRANCH  17  20
ATOM     20  C   UNL     1      -1.544   4.926   6.212  0.00  0.00    +0.104 A 
ATOM     21  C   UNL     1      -1.622   5.911   7.175  0.00  0.00    +0.047 A 
ATOM     22  C   UNL     1      -1.525   5.278   8.418  0.00  0.00    +0.036 A 
ATOM     23  C   UNL     1      -1.393   3.948   8.198  0.00  0.00    +0.098 A 
ATOM     24  N   UNL     1      -1.409   3.721   6.862  0.00  0.00    -0.356 N 
ATOM     25  H   UNL     1      -1.335   2.789   6.282  0.00  0.00    +0.166 HD
ATOM     26 BR   UNL     1      -1.571   6.129  10.107  0.00  0.00    -0.049 Br
ENDBRANCH  17  20
ENDBRANCH   3  16
TORSDOF 3
