REMARK  Name = ZINC00447583
REMARK  4 active torsions:
REMARK  status: ('A' for Active; 'I' for Inactive)
REMARK    1  A    between atoms: C_1  and  C_2
REMARK    2  A    between atoms: C_5  and  N_8
REMARK    3  A    between atoms: C_12  and  C_13
REMARK    4  A    between atoms: C_16  and  O_19
REMARK                            x       y       z     vdW  Elec       q    Type
REMARK                         _______ _______ _______ _____ _____    ______ ____
ROOT
ATOM      1  N   UNL     1      -1.315   2.775  -0.638  0.00  0.00    -0.217 N 
ATOM      2  C   UNL     1      -0.340   3.425   0.030  0.00  0.00    +0.262 C 
ATOM      3  O   UNL     1      -0.595   4.391   0.724  0.00  0.00    -0.269 OA
ATOM      4  C   UNL     1       1.044   2.929  -0.102  0.00  0.00    +0.100 C 
ATOM      5  C   UNL     1       2.095   3.542   0.552  0.00  0.00    +0.026 C 
ATOM      6  C   UNL     1       1.255   1.749  -0.964  0.00  0.00    +0.255 C 
ATOM      7  O   UNL     1       2.367   1.282  -1.123  0.00  0.00    -0.270 OA
ATOM      8  N   UNL     1       0.181   1.204  -1.571  0.00  0.00    -0.263 N 
ATOM      9  C   UNL     1      -1.049   1.712  -1.409  0.00  0.00    +0.150 C 
ATOM     10  S   UNL     1      -2.351   0.956  -2.224  0.00  0.00    -0.018 S 
ATOM     11  H   UNL     1       0.302   0.429  -2.141  0.00  0.00    +0.157 HD
ENDROOT
BRANCH   1  16
ATOM     12  C   UNL     1      -6.670   4.603  -0.194  0.00  0.00    +0.044 C 
ATOM     13  C   UNL     1      -5.248   4.117  -0.312  0.00  0.00    -0.050 A 
ATOM     14  C   UNL     1      -4.813   3.060   0.466  0.00  0.00    +0.005 A 
ATOM     15  C   UNL     1      -3.510   2.612   0.360  0.00  0.00    +0.024 A 
ATOM     16  C   UNL     1      -2.637   3.226  -0.528  0.00  0.00    +0.043 A 
ATOM     17  C   UNL     1      -3.075   4.292  -1.303  0.00  0.00    +0.024 A 
ATOM     18  C   UNL     1      -4.380   4.731  -1.197  0.00  0.00    +0.005 A 
ENDBRANCH   1  16
BRANCH   5  19
ATOM     19  C   UNL     1       3.396   2.878   0.629  0.00  0.00    -0.024 A 
ATOM     20  C   UNL     1       3.470   1.503   0.902  0.00  0.00    +0.011 A 
ATOM     21  C   UNL     1       4.687   0.887   0.967  0.00  0.00    +0.046 A 
ATOM     22  C   UNL     1       5.853   1.623   0.776  0.00  0.00    +0.117 A 
ATOM     23  C   UNL     1       5.787   2.987   0.511  0.00  0.00    +0.046 A 
ATOM     24  C   UNL     1       4.576   3.613   0.437  0.00  0.00    +0.011 A 
BRANCH  22  25
ATOM     25  O   UNL     1       7.059   1.006   0.848  0.00  0.00    -0.507 OA
ATOM     26  H   UNL     1       7.444   0.998   1.735  0.00  0.00    +0.292 HD
ENDBRANCH  22  25
ENDBRANCH   5  19
TORSDOF 3
