REMARK  Name = ZINC20590240
REMARK  5 active torsions:
REMARK  status: ('A' for Active; 'I' for Inactive)
REMARK    1  A    between atoms: C_1  and  C_2
REMARK    2  A    between atoms: C_5  and  N_9
REMARK    3  A    between atoms: C_10  and  C_15
REMARK    4  A    between atoms: C_15  and  C_16
REMARK    5  A    between atoms: C_15  and  C_17
REMARK                            x       y       z     vdW  Elec       q    Type
REMARK                         _______ _______ _______ _____ _____    ______ ____
ROOT
ATOM      1  N   UNL     1      -1.265   0.789   2.230  0.00  0.00    -0.275 N 
ATOM      2  C   UNL     1      -0.718   1.572   1.248  0.00  0.00    +0.139 A 
ATOM      3  N   UNL     1      -0.916   2.814   1.587  0.00  0.00    -0.158 NA
ATOM      4  N   UNL     1      -1.552   2.873   2.702  0.00  0.00    -0.254 N 
ATOM      5  C   UNL     1      -1.790   1.660   3.146  0.00  0.00    +0.180 A 
ATOM      6  S   UNL     1      -2.628   1.235   4.636  0.00  0.00    -0.011 S 
ATOM      7  H   UNL     1      -1.812   3.849   3.137  0.00  0.00    +0.191 HD
ENDROOT
BRANCH   1  12
ATOM      8  C   UNL     1      -1.333  -4.883   2.462  0.00  0.00    +0.047 C 
ATOM      9  C   UNL     1      -1.315  -3.377   2.400  0.00  0.00    -0.015 A 
ATOM     10  C   UNL     1      -0.611  -2.656   3.346  0.00  0.00    +0.008 A 
ATOM     11  C   UNL     1      -0.592  -1.276   3.292  0.00  0.00    +0.027 A 
ATOM     12  C   UNL     1      -1.282  -0.612   2.287  0.00  0.00    +0.053 A 
ATOM     13  C   UNL     1      -1.994  -1.336   1.341  0.00  0.00    +0.064 A 
ATOM     14  C   UNL     1      -2.005  -2.719   1.396  0.00  0.00    +0.128 A 
ATOM     15  F   UNL     1      -2.693  -3.426   0.473  0.00  0.00    -0.205 F 
ENDBRANCH   1  12
BRANCH   2  16
ATOM     16  C   UNL     1      -0.018   1.086   0.005  0.00  0.00    +0.051 C 
ATOM     17  C   UNL     1       1.417   1.617  -0.012  0.00  0.00    +0.015 C 
ATOM     18  C   UNL     1      -0.764   1.591  -1.231  0.00  0.00    +0.015 C 
ENDBRANCH   2  16
TORSDOF 2
