REMARK  Name = ZINC67081036
REMARK  8 active torsions:
REMARK  status: ('A' for Active; 'I' for Inactive)
REMARK    1  A    between atoms: C_1  and  C_2
REMARK    2  A    between atoms: C_2  and  C_3
REMARK    3  A    between atoms: C_2  and  C_4
REMARK    4  A    between atoms: C_6  and  C_9
REMARK    5  A    between atoms: C_9  and  C_10
REMARK    6  A    between atoms: C_10  and  C_11
REMARK    7  A    between atoms: C_11  and  N_12
REMARK    8  A    between atoms: C_19  and  C_22
REMARK                            x       y       z     vdW  Elec       q    Type
REMARK                         _______ _______ _______ _____ _____    ______ ____
ROOT
ATOM      1  N   UNL     1      -4.878  -6.144  -1.377  0.00  0.00    -0.299 N 
ATOM      2  C   UNL     1      -5.636  -7.090  -1.965  0.00  0.00    +0.302 C 
ATOM      3  O   UNL     1      -6.478  -6.772  -2.783  0.00  0.00    -0.253 OA
ATOM      4  N   UNL     1      -5.462  -8.387  -1.646  0.00  0.00    -0.281 N 
ATOM      5  C   UNL     1      -4.532  -8.787  -0.578  0.00  0.00    +0.137 C 
ATOM      6  C   UNL     1      -3.606  -9.879  -1.125  0.00  0.00    +0.179 C 
ATOM      7  O   UNL     1      -4.397 -10.921  -1.702  0.00  0.00    -0.369 OA
ATOM      8  C   UNL     1      -5.189 -10.507  -2.818  0.00  0.00    +0.168 C 
ATOM      9  C   UNL     1      -6.200  -9.447  -2.353  0.00  0.00    +0.145 C 
ATOM     10  H   UNL     1      -4.258  -6.388  -0.671  0.00  0.00    +0.150 HD
ENDROOT
BRANCH   8  11
ATOM     11  C   UNL     1      -5.928 -11.694  -3.379  0.00  0.00    +0.018 A 
ATOM     12  C   UNL     1      -6.211 -12.778  -2.570  0.00  0.00    +0.009 A 
ATOM     13  C   UNL     1      -6.889 -13.867  -3.085  0.00  0.00    +0.001 A 
ATOM     14  C   UNL     1      -7.284 -13.874  -4.410  0.00  0.00    +0.003 A 
ATOM     15  C   UNL     1      -7.002 -12.791  -5.221  0.00  0.00    +0.039 A 
ATOM     16  C   UNL     1      -6.328 -11.697  -4.705  0.00  0.00    +0.129 A 
ATOM     17  F   UNL     1      -6.056 -10.636  -5.495  0.00  0.00    -0.205 F 
ENDBRANCH   8  11
BRANCH   1  18
ATOM     18  C   UNL     1      -4.989  -4.746  -1.802  0.00  0.00    +0.106 C 
BRANCH  18  19
ATOM     19  C   UNL     1      -4.027  -3.885  -0.981  0.00  0.00    +0.028 C 
BRANCH  19  20
ATOM     20  C   UNL     1      -4.143  -2.425  -1.426  0.00  0.00    +0.100 C 
BRANCH  20  23
ATOM     21  C   UNL     1      -1.410  -0.527   0.012  0.00  0.00    +0.174 A 
ATOM     22  N   UNL     1      -1.958  -1.306  -0.927  0.00  0.00    -0.196 NA
ATOM     23  C   UNL     1      -3.196  -1.577  -0.617  0.00  0.00    +0.227 A 
ATOM     24  O   UNL     1      -3.479  -0.972   0.543  0.00  0.00    -0.338 OA
ATOM     25  N   UNL     1      -2.295  -0.296   0.938  0.00  0.00    -0.061 NA
BRANCH  21  27
ATOM     26  C   UNL     1      -0.016   1.524   0.009  0.00  0.00    +0.015 C 
ATOM     27  C   UNL     1       0.004  -0.006   0.002  0.00  0.00    +0.054 C 
ATOM     28  C   UNL     1       0.743  -0.512   1.243  0.00  0.00    +0.015 C 
ENDBRANCH  21  27
ENDBRANCH  20  23
ENDBRANCH  19  20
ENDBRANCH  18  19
ENDBRANCH   1  18
TORSDOF 6
