REMARK  Name = ZINC31776812
REMARK  1 active torsions:
REMARK  status: ('A' for Active; 'I' for Inactive)
REMARK    1  A    between atoms: C_6  and  C_7
REMARK                            x       y       z     vdW  Elec       q    Type
REMARK                         _______ _______ _______ _____ _____    ______ ____
ROOT
ATOM      1  C   UNL     1      -2.391  -0.053   0.024  0.00  0.00    +0.012 A 
ATOM      2  C   UNL     1      -1.206  -0.719   0.010  0.00  0.00    +0.013 A 
ATOM      3  C   UNL     1       0.002  -0.004   0.002  0.00  0.00    +0.033 A 
ATOM      4  C   UNL     1      -0.017   1.406   0.010  0.00  0.00    +0.067 A 
ATOM      5  C   UNL     1      -1.231   2.079   0.030  0.00  0.00    +0.039 A 
ATOM      6  C   UNL     1      -2.421   1.352   0.032  0.00  0.00    +0.016 A 
ATOM      7  N   UNL     1       1.293   1.815  -0.001  0.00  0.00    -0.276 N 
ATOM      8  H   UNL     1       1.534   2.889   0.003  0.00  0.00    +0.189 HD
ATOM      9  N   UNL     1       2.105   0.674  -0.014  0.00  0.00    -0.167 NA
ATOM     10  C   UNL     1       1.361  -0.395  -0.013  0.00  0.00    +0.131 A 
ATOM     11  I   UNL     1       2.063  -2.369  -0.030  0.00  0.00    -0.019 I 
ENDROOT
BRANCH   6  12
ATOM     12  C   UNL     1      -3.710   2.058   0.048  0.00  0.00    +0.258 C 
ATOM     13  O   UNL     1      -3.737   3.270   0.055  0.00  0.00    -0.296 OA
ENDBRANCH   6  12
TORSDOF 1
