REMARK  Name = ZINC00884606
REMARK  8 active torsions:
REMARK  status: ('A' for Active; 'I' for Inactive)
REMARK    1  A    between atoms: C_1  and  C_2
REMARK    2  A    between atoms: C_5  and  C_8
REMARK    3  A    between atoms: C_11  and  C_30
REMARK    4  A    between atoms: C_15  and  C_18
REMARK    5  A    between atoms: N_20  and  C_21
REMARK    6  A    between atoms: C_21  and  C_22
REMARK    7  A    between atoms: N_25  and  C_28
REMARK    8  A    between atoms: C_26  and  C_27
REMARK                            x       y       z     vdW  Elec       q    Type
REMARK                         _______ _______ _______ _____ _____    ______ ____
ROOT
ATOM      1  C   UNL     1       0.059  -4.275  -0.021  0.00  0.00    +0.104 C 
ATOM      2  C   UNL     1      -1.352  -4.810   0.244  0.00  0.00    +0.063 C 
ATOM      3  C   UNL     1      -1.347  -6.342   0.183  0.00  0.00    +0.215 C 
ATOM      4  N   UNL     1      -0.253  -6.846   1.019  0.00  0.00    -0.238 N 
ATOM      5  C   UNL     1       0.803  -6.093   1.408  0.00  0.00    +0.130 A 
ATOM      6  C   UNL     1       1.624  -6.891   2.181  0.00  0.00    +0.096 A 
ATOM      7  C   UNL     1       1.012  -8.169   2.241  0.00  0.00    +0.149 A 
ATOM      8  N   UNL     1      -0.095  -8.125   1.550  0.00  0.00    -0.177 NA
ATOM      9  N   UNL     1       0.958  -4.766   1.042  0.00  0.00    -0.322 N 
ATOM     10  H   UNL     1       1.616  -4.190   1.463  0.00  0.00    +0.148 HD
ENDROOT
BRANCH   1  15
ATOM     11  C   UNL     1      -0.018   1.503   0.010  0.00  0.00    +0.044 C 
ATOM     12  C   UNL     1       0.002  -0.004   0.002  0.00  0.00    -0.050 A 
ATOM     13  C   UNL     1       0.006  -0.689  -1.199  0.00  0.00    +0.004 A 
ATOM     14  C   UNL     1       0.025  -2.071  -1.206  0.00  0.00    +0.006 A 
ATOM     15  C   UNL     1       0.040  -2.768  -0.013  0.00  0.00    -0.027 A 
ATOM     16  C   UNL     1       0.037  -2.084   1.188  0.00  0.00    +0.006 A 
ATOM     17  C   UNL     1       0.023  -0.702   1.195  0.00  0.00    +0.004 A 
ENDBRANCH   1  15
BRANCH   6  18
ATOM     18  C   UNL     1       2.886  -6.494   2.817  0.00  0.00    +0.249 C 
ATOM     19  O   UNL     1       3.302  -5.358   2.686  0.00  0.00    -0.270 OA
ATOM     20  N   UNL     1       3.583  -7.387   3.547  0.00  0.00    -0.307 N 
ATOM     21  H   UNL     1       3.252  -8.293   3.651  0.00  0.00    +0.149 HD
BRANCH  20  22
ATOM     22  C   UNL     1       4.843  -6.990   4.182  0.00  0.00    +0.143 C 
BRANCH  22  23
ATOM     23  C   UNL     1       5.418  -8.164   4.932  0.00  0.00    +0.010 A 
ATOM     24  C   UNL     1       5.322  -8.387   6.309  0.00  0.00    +0.139 A 
ATOM     25  N   UNL     1       5.943  -9.505   6.587  0.00  0.00    -0.179 NA
ATOM     26  N   UNL     1       6.455 -10.029   5.393  0.00  0.00    -0.271 N 
ATOM     27  C   UNL     1       6.114  -9.190   4.391  0.00  0.00    +0.040 A 
ATOM     28  C   UNL     1       6.453  -9.364   2.933  0.00  0.00    +0.065 C 
ATOM     29  C   UNL     1       7.219 -11.271   5.254  0.00  0.00    +0.172 C 
ENDBRANCH  22  23
ENDBRANCH  20  22
ENDBRANCH   6  18
BRANCH   3  30
ATOM     30  C   UNL     1      -2.683  -6.880   0.702  0.00  0.00    +0.412 C 
ATOM     31  F   UNL     1      -3.724  -6.386  -0.091  0.00  0.00    -0.168 F 
ATOM     32  F   UNL     1      -2.676  -8.278   0.645  0.00  0.00    -0.168 F 
ATOM     33  F   UNL     1      -2.869  -6.468   2.026  0.00  0.00    -0.168 F 
ENDBRANCH   3  30
TORSDOF 5
