REMARK  Name = ZINC05121399
REMARK  6 active torsions:
REMARK  status: ('A' for Active; 'I' for Inactive)
REMARK    1  A    between atoms: C_1  and  C_2
REMARK    2  A    between atoms: C_5  and  N_20
REMARK    3  A    between atoms: C_7  and  N_8
REMARK    4  A    between atoms: N_8  and  S_9
REMARK    5  A    between atoms: S_9  and  C_12
REMARK    6  A    between atoms: C_16  and  C_18
REMARK                            x       y       z     vdW  Elec       q    Type
REMARK                         _______ _______ _______ _____ _____    ______ ____
ROOT
ATOM      1  N   UNL     1      -1.974   2.468   1.607  0.00  0.00    -0.216 N 
ATOM      2  H   UNL     1      -2.771   2.043   1.962  0.00  0.00    +0.174 HD
ENDROOT
BRANCH   1   9
ATOM      3  C   UNL     1      -1.634   1.548   4.277  0.00  0.00    +0.046 C 
ATOM      4  C   UNL     1      -0.940   2.783   3.764  0.00  0.00    -0.028 A 
ATOM      5  C   UNL     1      -0.105   3.503   4.597  0.00  0.00    +0.007 A 
ATOM      6  C   UNL     1       0.528   4.640   4.129  0.00  0.00    +0.033 A 
ATOM      7  C   UNL     1       0.331   5.058   2.825  0.00  0.00    +0.128 A 
ATOM      8  C   UNL     1      -0.498   4.340   1.986  0.00  0.00    +0.057 A 
ATOM      9  C   UNL     1      -1.135   3.197   2.453  0.00  0.00    +0.053 A 
BRANCH   7  10
ATOM     10  N   UNL     1       1.010   6.276   2.329  0.00  0.00    +0.056 N 
ATOM     11  O   UNL     1       0.837   6.644   1.181  0.00  0.00    -0.126 OA
ATOM     12  O   UNL     1       1.741   6.909   3.068  0.00  0.00    -0.126 OA
ENDBRANCH   7  10
ENDBRANCH   1   9
BRANCH   1  13
ATOM     13  S   UNL     1      -1.610   2.331  -0.003  0.00  0.00    +0.072 S 
ATOM     14  O   UNL     1      -1.430   3.652  -0.493  0.00  0.00    -0.150 OA
ATOM     15  O   UNL     1      -2.563   1.435  -0.559  0.00  0.00    -0.150 OA
BRANCH  13  16
ATOM     16  C   UNL     1      -0.043   1.534  -0.116  0.00  0.00    +0.109 A 
ATOM     17  C   UNL     1       1.116   2.287  -0.135  0.00  0.00    +0.030 A 
ATOM     18  C   UNL     1       2.345   1.663  -0.229  0.00  0.00    +0.017 A 
ATOM     19  C   UNL     1       2.416   0.283  -0.306  0.00  0.00    +0.021 A 
ATOM     20  C   UNL     1       1.256  -0.470  -0.287  0.00  0.00    -0.035 A 
ATOM     21  C   UNL     1       0.027   0.155  -0.193  0.00  0.00    +0.033 A 
ATOM     22  C   UNL     1       1.333  -1.973  -0.370  0.00  0.00    +0.045 C 
ATOM     23 BR   UNL     1       4.098  -0.572  -0.435  0.00  0.00    -0.050 Br
ENDBRANCH  13  16
ENDBRANCH   1  13
TORSDOF 4
