REMARK  Name = ZINC01181424
REMARK  5 active torsions:
REMARK  status: ('A' for Active; 'I' for Inactive)
REMARK    1  A    between atoms: C_1  and  C_2
REMARK    2  A    between atoms: C_2  and  C_3
REMARK    3  A    between atoms: C_3  and  N_4
REMARK    4  A    between atoms: C_8  and  C_9
REMARK    5  A    between atoms: C_12  and  C_14
REMARK                            x       y       z     vdW  Elec       q    Type
REMARK                         _______ _______ _______ _____ _____    ______ ____
ROOT
ATOM      1  C   UNL     1       3.148   1.194   5.984  0.00  0.00    +0.130 A 
ATOM      2  C   UNL     1       4.172   1.638   6.801  0.00  0.00    +0.050 A 
ATOM      3  C   UNL     1       4.359   0.661   7.782  0.00  0.00    +0.050 A 
ATOM      4  C   UNL     1       3.448  -0.340   7.532  0.00  0.00    +0.136 A 
ATOM      5  O   UNL     1       2.725   0.000   6.449  0.00  0.00    -0.455 OA
ENDROOT
BRANCH   1  10
ATOM      6  N   UNL     1      -0.020   1.094   2.454  0.00  0.00    -0.228 N 
ATOM      7  C   UNL     1       0.946   1.826   2.980  0.00  0.00    +0.260 C 
ATOM      8  O   UNL     1       1.256   2.899   2.493  0.00  0.00    -0.269 OA
ATOM      9  C   UNL     1       1.615   1.323   4.137  0.00  0.00    +0.083 C 
ATOM     10  C   UNL     1       2.631   1.875   4.861  0.00  0.00    +0.066 C 
ATOM     11  S   UNL     1       0.759  -0.228   4.377  0.00  0.00    -0.026 S 
ATOM     12  C   UNL     1      -0.368  -0.093   2.998  0.00  0.00    +0.286 C 
ATOM     13  O   UNL     1      -1.229  -0.874   2.638  0.00  0.00    -0.262 OA
BRANCH   6  14
ATOM     14  C   UNL     1      -0.729   1.579   1.267  0.00  0.00    +0.117 C 
BRANCH  14  16
ATOM     15  C   UNL     1      -0.753   1.593  -1.232  0.00  0.00    +0.005 C 
ATOM     16  C   UNL     1      -0.013   1.086   0.008  0.00  0.00    +0.016 C 
ENDBRANCH  14  16
ENDBRANCH   6  14
ENDBRANCH   1  10
BRANCH   4  17
ATOM     17  C   UNL     1       3.288  -1.576   8.321  0.00  0.00    +0.017 A 
ATOM     18  C   UNL     1       4.106  -1.812   9.429  0.00  0.00    +0.013 A 
ATOM     19  C   UNL     1       3.948  -2.967  10.166  0.00  0.00    +0.021 A 
ATOM     20  C   UNL     1       2.988  -3.897   9.803  0.00  0.00    +0.041 A 
ATOM     21  C   UNL     1       2.177  -3.672   8.703  0.00  0.00    +0.021 A 
ATOM     22  C   UNL     1       2.321  -2.518   7.961  0.00  0.00    +0.013 A 
ATOM     23 CL   UNL     1       2.800  -5.352  10.732  0.00  0.00    -0.084 Cl
ENDBRANCH   4  17
TORSDOF 4
