REMARK  Name = ZINC11371252
REMARK  7 active torsions:
REMARK  status: ('A' for Active; 'I' for Inactive)
REMARK    1  A    between atoms: C_1  and  C_2
REMARK    2  A    between atoms: C_3  and  C_29
REMARK    3  A    between atoms: C_5  and  N_9
REMARK    4  A    between atoms: C_6  and  C_7
REMARK    5  A    between atoms: C_10  and  C_12
REMARK    6  A    between atoms: C_12  and  S_13
REMARK    7  A    between atoms: S_13  and  C_14
REMARK                            x       y       z     vdW  Elec       q    Type
REMARK                         _______ _______ _______ _____ _____    ______ ____
ROOT
ATOM      1  S   UNL     1       4.766   4.481  -0.020  0.00  0.00    -0.078 S 
ENDROOT
BRANCH   1   2
ATOM      2  C   UNL     1       3.766   3.030  -0.018  0.00  0.00    +0.170 A 
ATOM      3  N   UNL     1       4.378   1.814  -0.031  0.00  0.00    -0.301 N 
ATOM      4  H   UNL     1       5.348   1.784  -0.041  0.00  0.00    +0.171 HD
ATOM      5  C   UNL     1       3.696   0.645  -0.030  0.00  0.00    +0.261 A 
ATOM      6  O   UNL     1       4.262  -0.435  -0.041  0.00  0.00    -0.267 OA
ATOM      7  C   UNL     1       2.267   0.755  -0.015  0.00  0.00    +0.075 A 
ATOM      8  C   UNL     1       1.312  -0.341  -0.012  0.00  0.00    -0.023 A 
ATOM      9  C   UNL     1       0.002  -0.004   0.002  0.00  0.00    -0.004 A 
ATOM     10  S   UNL     1      -0.022   1.771   0.012  0.00  0.00    -0.073 S 
ATOM     11  C   UNL     1       1.719   2.058  -0.003  0.00  0.00    +0.117 A 
ATOM     12  N   UNL     1       2.447   3.168  -0.005  0.00  0.00    -0.216 NA
ATOM     13  C   UNL     1      -1.173  -0.932   0.007  0.00  0.00    +0.043 C 
ATOM     14  C   UNL     1      -0.687  -2.336  -0.379  0.00  0.00    +0.005 C 
ATOM     15  C   UNL     1       0.560  -2.666   0.446  0.00  0.00    +0.005 C 
ATOM     16  C   UNL     1       1.735  -1.808  -0.023  0.00  0.00    +0.037 C 
ENDBRANCH   1   2
BRANCH   1  17
ATOM     17  C   UNL     1       3.478   5.752  -0.000  0.00  0.00    +0.173 C 
BRANCH  17  19
ATOM     18  N   UNL     1       3.348   8.222   0.015  0.00  0.00    -0.255 N 
ATOM     19  C   UNL     1       4.118   7.116   0.001  0.00  0.00    +0.230 C 
ATOM     20  O   UNL     1       5.326   7.219  -0.011  0.00  0.00    -0.274 OA
ATOM     21  H   UNL     1       2.381   8.139   0.024  0.00  0.00    +0.158 HD
BRANCH  18  26
ATOM     22  C   UNL     1       4.131  13.209   0.036  0.00  0.00    +0.049 C 
ATOM     23  C   UNL     1       4.322  11.714   0.026  0.00  0.00    +0.010 A 
ATOM     24  C   UNL     1       5.487  11.051   0.011  0.00  0.00    +0.109 A 
ATOM     25  O   UNL     1       5.252   9.728   0.010  0.00  0.00    -0.445 OA
ATOM     26  C   UNL     1       3.936   9.475   0.016  0.00  0.00    +0.210 A 
ATOM     27  C   UNL     1       3.267  10.688   0.030  0.00  0.00    +0.115 A 
ATOM     28  C   UNL     1       6.851  11.691   0.001  0.00  0.00    +0.086 C 
BRANCH  27  29
ATOM     29  C   UNL     1       1.851  10.899   0.044  0.00  0.00    +0.105 C 
ATOM     30  N   UNL     1       0.727  11.066   0.056  0.00  0.00    -0.191 NA
ENDBRANCH  27  29
ENDBRANCH  18  26
ENDBRANCH  17  19
ENDBRANCH   1  17
TORSDOF 5
