REMARK  Name = ZINC55303104
REMARK  8 active torsions:
REMARK  status: ('A' for Active; 'I' for Inactive)
REMARK    1  A    between atoms: C_1  and  C_2
REMARK    2  A    between atoms: C_3  and  C_21
REMARK    3  A    between atoms: C_4  and  C_20
REMARK    4  A    between atoms: C_5  and  C_10
REMARK    5  A    between atoms: C_6  and  C_9
REMARK    6  A    between atoms: C_7  and  C_8
REMARK    7  A    between atoms: C_10  and  C_12
REMARK    8  A    between atoms: C_10  and  O_19
REMARK                            x       y       z     vdW  Elec       q    Type
REMARK                         _______ _______ _______ _____ _____    ______ ____
ROOT
ATOM      1  C   UNL     1       1.186   1.737  -1.106  0.00  0.00    +0.044 C 
ATOM      2  C   UNL     1       1.074   0.254  -0.861  0.00  0.00    -0.044 A 
ATOM      3  C   UNL     1       0.960  -0.616  -1.929  0.00  0.00    -0.044 A 
ATOM      4  C   UNL     1       0.857  -1.976  -1.704  0.00  0.00    -0.041 A 
ATOM      5  C   UNL     1       0.869  -2.466  -0.411  0.00  0.00    -0.010 A 
ATOM      6  C   UNL     1       0.984  -1.596   0.657  0.00  0.00    -0.041 A 
ATOM      7  C   UNL     1       1.091  -0.236   0.432  0.00  0.00    -0.044 A 
ATOM      8  C   UNL     1       1.222   0.712   1.596  0.00  0.00    +0.044 C 
ATOM      9  C   UNL     1       0.996  -2.130   2.066  0.00  0.00    +0.044 C 
ATOM     10  C   UNL     1       0.732  -2.925  -2.868  0.00  0.00    +0.044 C 
ATOM     11  C   UNL     1       0.947  -0.082  -3.338  0.00  0.00    +0.044 C 
ENDROOT
BRANCH   5  12
ATOM     12  C   UNL     1       0.756  -3.949  -0.166  0.00  0.00    +0.176 C 
BRANCH  12  13
ATOM     13  C   UNL     1      -0.691  -4.298   0.187  0.00  0.00    +0.177 C 
ATOM     14  C   UNL     1      -0.765  -5.752   0.664  0.00  0.00    +0.194 C 
ATOM     15  O   UNL     1      -2.098  -6.037   1.097  0.00  0.00    -0.375 OA
ATOM     16  C   UNL     1      -2.557  -5.176   2.143  0.00  0.00    +0.188 C 
ATOM     17  C   UNL     1      -2.483  -3.722   1.666  0.00  0.00    +0.188 C 
ATOM     18  O   UNL     1      -1.150  -3.436   1.232  0.00  0.00    -0.369 OA
ENDBRANCH  12  13
BRANCH  12  19
ATOM     19  O   UNL     1       1.613  -4.319   0.916  0.00  0.00    -0.385 OA
ATOM     20  H   UNL     1       1.270  -4.083   1.788  0.00  0.00    +0.210 HD
ENDBRANCH  12  19
ENDBRANCH   5  12
TORSDOF 3
