REMARK  Name = ZINC49550315
REMARK  9 active torsions:
REMARK  status: ('A' for Active; 'I' for Inactive)
REMARK    1  A    between atoms: C_1  and  O_2
REMARK    2  A    between atoms: O_2  and  C_3
REMARK    3  A    between atoms: C_5  and  C_12
REMARK    4  A    between atoms: C_7  and  O_10
REMARK    5  A    between atoms: C_8  and  O_9
REMARK    6  A    between atoms: O_10  and  C_11
REMARK    7  A    between atoms: C_15  and  O_30
REMARK    8  A    between atoms: N_21  and  C_22
REMARK    9  A    between atoms: C_22  and  C_23
REMARK                            x       y       z     vdW  Elec       q    Type
REMARK                         _______ _______ _______ _____ _____    ______ ____
ROOT
ATOM      1  C   UNL     1       2.462   0.340   4.203  0.00  0.00    +0.063 C 
ATOM      2  C   UNL     1       3.960   0.030   4.298  0.00  0.00    +0.108 C 
ATOM      3  C   UNL     1       4.213  -1.269   5.005  0.00  0.00    +0.190 C 
ATOM      4  N   UNL     1       3.464  -1.724   5.965  0.00  0.00    -0.198 NA
ATOM      5  C   UNL     1       2.362  -1.010   6.338  0.00  0.00    +0.159 A 
ATOM      6  C   UNL     1       1.836  -0.010   5.529  0.00  0.00    +0.024 A 
ATOM      7  C   UNL     1       0.731   0.518   6.169  0.00  0.00    +0.140 A 
ATOM      8  N   UNL     1       0.574  -0.109   7.312  0.00  0.00    -0.177 NA
ATOM      9  N   UNL     1       1.589  -1.076   7.443  0.00  0.00    -0.242 N 
ENDROOT
BRANCH   1  12
ATOM     10  C   UNL     1       0.626  -0.619   1.042  0.00  0.00    +0.165 A 
ATOM     11  C   UNL     1       1.202   0.138   2.051  0.00  0.00    +0.054 A 
ATOM     12  C   UNL     1       1.837  -0.486   3.109  0.00  0.00    -0.032 A 
ATOM     13  C   UNL     1       1.900  -1.866   3.166  0.00  0.00    +0.054 A 
ATOM     14  C   UNL     1       1.327  -2.630   2.160  0.00  0.00    +0.165 A 
ATOM     15  C   UNL     1       0.683  -2.006   1.098  0.00  0.00    +0.201 A 
BRANCH  10  17
ATOM     16  C   UNL     1      -0.017   1.425   0.010  0.00  0.00    +0.277 C 
ATOM     17  O   UNL     1       0.002  -0.004   0.002  0.00  0.00    -0.491 OA
ENDBRANCH  10  17
BRANCH  15  18
ATOM     18  O   UNL     1       0.114  -2.753   0.113  0.00  0.00    -0.501 OA
ATOM     19  H   UNL     1       0.710  -2.955  -0.621  0.00  0.00    +0.292 HD
ENDBRANCH  15  18
BRANCH  14  20
ATOM     20  O   UNL     1       1.390  -3.987   2.217  0.00  0.00    -0.491 OA
ATOM     21  C   UNL     1       2.062  -4.559   3.340  0.00  0.00    +0.277 C 
ENDBRANCH  14  20
ENDBRANCH   1  12
BRANCH   3  22
ATOM     22  O   UNL     1       5.277  -2.005   4.623  0.00  0.00    -0.495 OA
ATOM     23  H   UNL     1       5.383  -2.829   5.118  0.00  0.00    +0.293 HD
ENDBRANCH   3  22
BRANCH   9  24
ATOM     24  C   UNL     1       1.775  -1.987   8.575  0.00  0.00    +0.181 C 
BRANCH  24  25
ATOM     25  C   UNL     1       2.669  -1.339   9.601  0.00  0.00    -0.026 A 
ATOM     26  C   UNL     1       4.039  -1.510   9.530  0.00  0.00    +0.007 A 
ATOM     27  C   UNL     1       4.860  -0.915  10.470  0.00  0.00    +0.020 A 
ATOM     28  C   UNL     1       4.309  -0.150  11.482  0.00  0.00    +0.041 A 
ATOM     29  C   UNL     1       2.938   0.021  11.553  0.00  0.00    +0.020 A 
ATOM     30  C   UNL     1       2.119  -0.569  10.609  0.00  0.00    +0.007 A 
ATOM     31 CL   UNL     1       5.339   0.597  12.664  0.00  0.00    -0.084 Cl
ENDBRANCH  24  25
ENDBRANCH   9  24
TORSDOF 7
