REMARK  Name = ZINC64742463
REMARK  6 active torsions:
REMARK  status: ('A' for Active; 'I' for Inactive)
REMARK    1  A    between atoms: C_1  and  C_2
REMARK    2  A    between atoms: C_5  and  N_8
REMARK    3  A    between atoms: C_9  and  C_11
REMARK    4  A    between atoms: C_19  and  S_25
REMARK    5  A    between atoms: S_25  and  C_26
REMARK    6  A    between atoms: C_26  and  C_27
REMARK                            x       y       z     vdW  Elec       q    Type
REMARK                         _______ _______ _______ _____ _____    ______ ____
ROOT
ATOM      1  C   UNL     1       0.285  -6.350   1.232  0.00  0.00    +0.103 C 
ATOM      2  C   UNL     1      -0.895  -6.985   0.491  0.00  0.00    +0.110 C 
ATOM      3  C   UNL     1      -0.975  -8.457   0.769  0.00  0.00    +0.219 C 
ATOM      4  O   UNL     1      -1.602  -9.152  -0.001  0.00  0.00    -0.275 OA
ATOM      5  N   UNL     1      -0.391  -9.047   1.822  0.00  0.00    -0.273 N 
ATOM      6  C   UNL     1       0.395  -8.331   2.681  0.00  0.00    +0.117 C 
ATOM      7  N   UNL     1       1.243  -8.931   3.465  0.00  0.00    -0.212 NA
ATOM      8  C   UNL     1       2.106  -8.256   4.234  0.00  0.00    +0.182 C 
ATOM      9  N   UNL     1       2.181  -6.933   4.215  0.00  0.00    -0.154 NA
ATOM     10  C   UNL     1       1.352  -6.199   3.488  0.00  0.00    +0.249 C 
ATOM     11  O   UNL     1       1.484  -4.990   3.470  0.00  0.00    -0.273 OA
ATOM     12  C   UNL     1       0.256  -6.830   2.687  0.00  0.00    +0.153 C 
ATOM     13  H   UNL     1      -0.527  -9.995   1.975  0.00  0.00    +0.156 HD
ENDROOT
BRANCH   1  15
ATOM     14  N   UNL     1       0.899  -4.138   0.312  0.00  0.00    -0.285 N 
ATOM     15  C   UNL     1       0.164  -4.849   1.190  0.00  0.00    +0.222 C 
ATOM     16  O   UNL     1      -0.596  -4.280   1.946  0.00  0.00    -0.275 OA
ATOM     17  H   UNL     1       1.455  -4.596  -0.337  0.00  0.00    +0.155 HD
BRANCH  14  22
ATOM     18  C   UNL     1       0.741   1.532   0.419  0.00  0.00    +0.044 C 
ATOM     19  C   UNL     1       0.783   0.026   0.391  0.00  0.00    -0.050 A 
ATOM     20  C   UNL     1      -0.359  -0.702   0.671  0.00  0.00    +0.005 A 
ATOM     21  C   UNL     1      -0.324  -2.082   0.646  0.00  0.00    +0.023 A 
ATOM     22  C   UNL     1       0.860  -2.739   0.338  0.00  0.00    +0.033 A 
ATOM     23  C   UNL     1       2.005  -2.006   0.057  0.00  0.00    +0.023 A 
ATOM     24  C   UNL     1       1.962  -0.626   0.079  0.00  0.00    +0.005 A 
ENDBRANCH  14  22
ENDBRANCH   1  15
BRANCH   8  25
ATOM     25  S   UNL     1       3.176  -9.156   5.307  0.00  0.00    -0.084 S 
BRANCH  25  26
ATOM     26  C   UNL     1       4.148  -7.869   6.137  0.00  0.00    +0.112 C 
BRANCH  26  27
ATOM     27  C   UNL     1       5.117  -8.511   7.096  0.00  0.00    -0.037 A 
ATOM     28  C   UNL     1       4.737  -8.752   8.404  0.00  0.00    +0.007 A 
ATOM     29  C   UNL     1       5.625  -9.341   9.284  0.00  0.00    +0.038 A 
ATOM     30  C   UNL     1       6.894  -9.691   8.856  0.00  0.00    +0.123 A 
ATOM     31  C   UNL     1       7.273  -9.450   7.546  0.00  0.00    +0.038 A 
ATOM     32  C   UNL     1       6.382  -8.866   6.666  0.00  0.00    +0.007 A 
ATOM     33  F   UNL     1       7.763 -10.268   9.716  0.00  0.00    -0.205 F 
ENDBRANCH  26  27
ENDBRANCH  25  26
ENDBRANCH   8  25
TORSDOF 5
