REMARK  Name = ZINC58249824
REMARK  8 active torsions:
REMARK  status: ('A' for Active; 'I' for Inactive)
REMARK    1  A    between atoms: C_1  and  C_2
REMARK    2  A    between atoms: C_7  and  C_9
REMARK    3  A    between atoms: C_7  and  N_25
REMARK    4  A    between atoms: C_9  and  N_10
REMARK    5  A    between atoms: N_10  and  S_11
REMARK    6  A    between atoms: S_11  and  C_14
REMARK    7  A    between atoms: N_25  and  C_26
REMARK    8  A    between atoms: N_25  and  C_27
REMARK                            x       y       z     vdW  Elec       q    Type
REMARK                         _______ _______ _______ _____ _____    ______ ____
ROOT
ATOM      1  S   UNL     1       3.644  -2.004  -1.530  0.00  0.00    +0.058 S 
ATOM      2  O   UNL     1       4.899  -1.375  -1.310  0.00  0.00    -0.153 OA
ATOM      3  O   UNL     1       3.519  -3.405  -1.727  0.00  0.00    -0.153 OA
ENDROOT
BRANCH   1   4
ATOM      4  C   UNL     1       2.935  -1.231  -2.946  0.00  0.00    +0.106 A 
ATOM      5  C   UNL     1       1.989  -1.904  -3.698  0.00  0.00    +0.030 A 
ATOM      6  C   UNL     1       1.431  -1.301  -4.808  0.00  0.00    +0.025 A 
ATOM      7  C   UNL     1       1.821  -0.018  -5.169  0.00  0.00    +0.037 A 
ATOM      8  C   UNL     1       2.770   0.654  -4.412  0.00  0.00    -0.024 A 
ATOM      9  C   UNL     1       3.321   0.049  -3.300  0.00  0.00    +0.034 A 
ATOM     10  C   UNL     1       3.192   2.047  -4.803  0.00  0.00    +0.046 C 
ATOM     11  C   UNL     1       3.169   2.179  -6.326  0.00  0.00    +0.101 C 
ATOM     12  C   UNL     1       1.867   1.652  -6.866  0.00  0.00    +0.218 C 
ATOM     13  O   UNL     1       1.359   2.184  -7.831  0.00  0.00    -0.275 OA
ATOM     14  N   UNL     1       1.259   0.598  -6.292  0.00  0.00    -0.285 N 
ATOM     15  H   UNL     1       0.426   0.263  -6.659  0.00  0.00    +0.155 HD
ENDBRANCH   1   4
BRANCH   1  16
ATOM     16  N   UNL     1       2.688  -1.621  -0.233  0.00  0.00    -0.191 NA
ATOM     17  H   UNL     1       3.043  -1.076   0.487  0.00  0.00    +0.148 HD
BRANCH  16  18
ATOM     18  C   UNL     1       1.307  -2.104  -0.173  0.00  0.00    +0.094 C 
BRANCH  18  24
ATOM     19  C   UNL     1      -0.302   1.721   1.056  0.00  0.00    +0.007 C 
ATOM     20  C   UNL     1      -0.231   0.240   0.676  0.00  0.00    -0.015 C 
ATOM     21  C   UNL     1      -1.629  -0.376   0.766  0.00  0.00    +0.003 C 
ATOM     22  C   UNL     1      -1.558  -1.857   0.387  0.00  0.00    -0.001 C 
ATOM     23  C   UNL     1      -0.617  -2.586   1.347  0.00  0.00    -0.011 C 
ATOM     24  C   UNL     1       0.781  -1.969   1.257  0.00  0.00    -0.052 C 
ATOM     25  C   UNL     1       0.711  -0.488   1.637  0.00  0.00    -0.008 C 
BRANCH  24  26
ATOM     26  N   UNL     1       1.685  -2.669   2.180  0.00  0.00    +0.381 N 
ATOM     27  C   UNL     1       1.172  -2.551   3.551  0.00  0.00    -0.096 C 
ATOM     28  C   UNL     1       1.764  -4.087   1.806  0.00  0.00    -0.096 C 
ATOM     29  H   UNL     1       2.604  -2.256   2.128  0.00  0.00    -0.082 HD
ENDBRANCH  24  26
ENDBRANCH  18  24
ENDBRANCH  16  18
ENDBRANCH   1  16
TORSDOF 5
