REMARK  Name = ZINC40010779
REMARK  9 active torsions:
REMARK  status: ('A' for Active; 'I' for Inactive)
REMARK    1  A    between atoms: C_1  and  C_2
REMARK    2  A    between atoms: C_2  and  C_3
REMARK    3  A    between atoms: C_10  and  C_15
REMARK    4  A    between atoms: C_19  and  O_32
REMARK    5  A    between atoms: C_20  and  O_30
REMARK    6  A    between atoms: N_25  and  S_26
REMARK    7  A    between atoms: S_26  and  C_29
REMARK    8  A    between atoms: O_30  and  C_31
REMARK    9  A    between atoms: O_32  and  C_33
REMARK                            x       y       z     vdW  Elec       q    Type
REMARK                         _______ _______ _______ _____ _____    ______ ____
ROOT
ATOM      1  C   UNL     1       0.720  -1.006   7.037  0.00  0.00    +0.125 C 
ATOM      2  C   UNL     1       1.456   0.277   6.739  0.00  0.00    -0.021 A 
ATOM      3  C   UNL     1       0.938   1.103   5.750  0.00  0.00    +0.055 A 
ATOM      4  C   UNL     1       1.571   2.288   5.423  0.00  0.00    +0.162 A 
ATOM      5  C   UNL     1       2.737   2.651   6.091  0.00  0.00    +0.162 A 
ATOM      6  C   UNL     1       3.246   1.827   7.076  0.00  0.00    +0.053 A 
ATOM      7  C   UNL     1       2.604   0.639   7.407  0.00  0.00    -0.038 A 
ATOM      8  C   UNL     1       3.204  -0.192   8.511  0.00  0.00    +0.052 C 
ATOM      9  C   UNL     1       2.707  -1.635   8.437  0.00  0.00    +0.114 C 
ATOM     10  N   UNL     1       1.245  -1.601   8.270  0.00  0.00    -0.173 NA
ENDROOT
BRANCH   1  18
ATOM     11  C   UNL     1       4.667  -5.115   5.772  0.00  0.00    -0.047 A 
ATOM     12  C   UNL     1       3.751  -6.138   6.017  0.00  0.00    +0.005 A 
ATOM     13  C   UNL     1       2.419  -5.911   6.163  0.00  0.00    +0.024 A 
ATOM     14  C   UNL     1       1.903  -4.605   6.070  0.00  0.00    +0.040 A 
ATOM     15  N   UNL     1       0.595  -4.394   6.216  0.00  0.00    -0.284 N 
ATOM     16  C   UNL     1       0.045  -3.194   6.139  0.00  0.00    +0.226 C 
ATOM     17  O   UNL     1      -1.156  -3.063   6.281  0.00  0.00    -0.275 OA
ATOM     18  C   UNL     1       0.914  -1.985   5.877  0.00  0.00    +0.122 C 
ATOM     19  C   UNL     1       2.403  -2.220   5.711  0.00  0.00    -0.003 C 
ATOM     20  C   UNL     1       2.848  -3.505   5.811  0.00  0.00    -0.007 A 
ATOM     21  C   UNL     1       4.270  -3.820   5.670  0.00  0.00    +0.013 A 
ATOM     22  H   UNL     1       0.020  -5.156   6.385  0.00  0.00    +0.155 HD
BRANCH  11  24
ATOM     23  C   UNL     1       6.806  -5.399   6.993  0.00  0.00    +0.009 C 
ATOM     24  C   UNL     1       6.128  -5.453   5.623  0.00  0.00    +0.032 C 
ENDBRANCH  11  24
ENDBRANCH   1  18
BRANCH  10  25
ATOM     25  S   UNL     1       0.234  -2.212   9.430  0.00  0.00    +0.030 S 
ATOM     26  O   UNL     1       0.970  -2.115  10.641  0.00  0.00    -0.158 OA
ATOM     27  O   UNL     1      -0.983  -1.497   9.263  0.00  0.00    -0.158 OA
ATOM     28  C   UNL     1       0.002  -3.953   8.977  0.00  0.00    +0.215 C 
ENDBRANCH  10  25
BRANCH   5  29
ATOM     29  O   UNL     1       3.372   3.811   5.775  0.00  0.00    -0.491 OA
ATOM     30  C   UNL     1       4.564   4.118   6.502  0.00  0.00    +0.277 C 
ENDBRANCH   5  29
BRANCH   4  31
ATOM     31  O   UNL     1       1.058   3.093   4.455  0.00  0.00    -0.491 OA
ATOM     32  C   UNL     1      -0.141   2.654   3.813  0.00  0.00    +0.277 C 
ENDBRANCH   4  31
TORSDOF 5
