REMARK  Name = ZINC09488493
REMARK  7 active torsions:
REMARK  status: ('A' for Active; 'I' for Inactive)
REMARK    1  A    between atoms: C_1  and  C_2
REMARK    2  A    between atoms: C_2  and  O_3
REMARK    3  A    between atoms: O_3  and  C_4
REMARK    4  A    between atoms: C_7  and  C_12
REMARK    5  A    between atoms: C_9  and  O_10
REMARK    6  A    between atoms: O_10  and  C_11
REMARK    7  A    between atoms: C_30  and  C_33
REMARK                            x       y       z     vdW  Elec       q    Type
REMARK                         _______ _______ _______ _____ _____    ______ ____
ROOT
ATOM      1  C   UNL     1       1.755  -2.086  -0.026  0.00  0.00    +0.151 C 
ATOM      2  C   UNL     1       1.320  -0.644  -0.014  0.00  0.00    +0.072 A 
ATOM      3  C   UNL     1       0.002  -0.004   0.002  0.00  0.00    +0.199 A 
ATOM      4  O   UNL     1      -1.026  -0.658   0.008  0.00  0.00    -0.287 OA
ATOM      5  C   UNL     1      -0.018   1.472   0.010  0.00  0.00    +0.067 A 
ATOM      6  C   UNL     1      -1.217   2.183   0.020  0.00  0.00    +0.053 A 
ATOM      7  C   UNL     1      -1.189   3.562   0.033  0.00  0.00    +0.124 A 
ATOM      8  C   UNL     1       0.026   4.236   0.025  0.00  0.00    +0.042 A 
ATOM      9  C   UNL     1       1.216   3.543   0.009  0.00  0.00    +0.050 A 
ATOM     10  C   UNL     1       1.212   2.151   0.002  0.00  0.00    +0.140 A 
ATOM     11  O   UNL     1       2.370   1.465  -0.013  0.00  0.00    -0.450 OA
ATOM     12  C   UNL     1       2.441   0.119  -0.021  0.00  0.00    +0.199 A 
ATOM     13  C   UNL     1       3.619  -0.782  -0.037  0.00  0.00    +0.289 C 
ATOM     14  O   UNL     1       4.777  -0.412  -0.046  0.00  0.00    -0.266 OA
ATOM     15  N   UNL     1       3.223  -2.066  -0.041  0.00  0.00    -0.235 N 
ATOM     16  C   UNL     1       4.058  -3.182  -0.055  0.00  0.00    +0.172 A 
ATOM     17  C   UNL     1       5.476  -3.187   0.030  0.00  0.00    +0.091 A 
ATOM     18  C   UNL     1       5.801  -4.499  -0.025  0.00  0.00    +0.136 A 
ATOM     19  O   UNL     1       4.648  -5.176  -0.133  0.00  0.00    -0.358 OA
ATOM     20  N   UNL     1       3.693  -4.434  -0.143  0.00  0.00    -0.063 NA
ATOM     21  C   UNL     1       7.188  -5.085   0.025  0.00  0.00    +0.089 C 
ATOM     22  F   UNL     1      -2.346   4.259   0.048  0.00  0.00    -0.205 F 
ENDROOT
BRANCH   1  26
ATOM     23  C   UNL     1       0.348  -4.078   3.486  0.00  0.00    +0.162 A 
ATOM     24  C   UNL     1       1.480  -3.283   3.545  0.00  0.00    +0.050 A 
ATOM     25  C   UNL     1       1.936  -2.644   2.406  0.00  0.00    +0.009 A 
ATOM     26  C   UNL     1       1.257  -2.789   1.210  0.00  0.00    -0.018 A 
ATOM     27  C   UNL     1       0.126  -3.582   1.145  0.00  0.00    +0.055 A 
ATOM     28  C   UNL     1      -0.332  -4.228   2.282  0.00  0.00    +0.162 A 
BRANCH  28  29
ATOM     29  O   UNL     1      -1.445  -5.008   2.220  0.00  0.00    -0.491 OA
ATOM     30  C   UNL     1      -2.092  -5.116   0.950  0.00  0.00    +0.277 C 
ENDBRANCH  28  29
BRANCH  23  31
ATOM     31  O   UNL     1      -0.099  -4.712   4.604  0.00  0.00    -0.489 OA
BRANCH  31  33
ATOM     32  C   UNL     1       0.001  -5.297   6.947  0.00  0.00    +0.048 C 
ATOM     33  C   UNL     1       0.649  -4.511   5.805  0.00  0.00    +0.226 C 
ENDBRANCH  31  33
ENDBRANCH  23  31
ENDBRANCH   1  26
TORSDOF 4
