REMARK  Name = ZINC44004030
REMARK  7 active torsions:
REMARK  status: ('A' for Active; 'I' for Inactive)
REMARK    1  A    between atoms: C_1  and  O_2
REMARK    2  A    between atoms: O_2  and  C_3
REMARK    3  A    between atoms: C_8  and  N_9
REMARK    4  A    between atoms: N_12  and  C_13
REMARK    5  A    between atoms: C_13  and  C_14
REMARK    6  A    between atoms: N_17  and  S_20
REMARK    7  A    between atoms: S_20  and  C_23
REMARK                            x       y       z     vdW  Elec       q    Type
REMARK                         _______ _______ _______ _____ _____    ______ ____
ROOT
ATOM      1  N   UNL     1      -0.073  -2.780  -0.013  0.00  0.00    -0.266 N 
ATOM      2  C   UNL     1      -0.126  -4.123   0.082  0.00  0.00    +0.304 C 
ATOM      3  O   UNL     1      -1.201  -4.691   0.090  0.00  0.00    -0.253 OA
ATOM      4  N   UNL     1       1.014  -4.838   0.169  0.00  0.00    -0.299 N 
ATOM      5  H   UNL     1       0.783  -2.333  -0.101  0.00  0.00    +0.156 HD
ATOM      6  H   UNL     1       1.872  -4.385   0.162  0.00  0.00    +0.150 HD
ENDROOT
BRANCH   1  12
ATOM      7  C   UNL     1      -1.295  -0.765  -0.569  0.00  0.00    +0.141 A 
ATOM      8  C   UNL     1      -2.469  -0.029  -0.543  0.00  0.00    +0.049 A 
ATOM      9  C   UNL     1      -3.596  -0.546   0.069  0.00  0.00    +0.024 A 
ATOM     10  C   UNL     1      -3.556  -1.798   0.656  0.00  0.00    +0.043 A 
ATOM     11  C   UNL     1      -2.389  -2.539   0.634  0.00  0.00    +0.047 A 
ATOM     12  C   UNL     1      -1.256  -2.029   0.017  0.00  0.00    +0.078 A 
ATOM     13 CL   UNL     1      -4.975  -2.441   1.422  0.00  0.00    -0.083 Cl
BRANCH   7  15
ATOM     14  C   UNL     1      -0.300   1.043  -1.749  0.00  0.00    +0.277 C 
ATOM     15  O   UNL     1      -0.186  -0.258  -1.170  0.00  0.00    -0.493 OA
ENDBRANCH   7  15
ENDBRANCH   1  12
BRANCH   4  16
ATOM     16  C   UNL     1       0.957  -6.298   0.272  0.00  0.00    +0.109 C 
BRANCH  16  17
ATOM     17  C   UNL     1       2.378  -6.859   0.356  0.00  0.00    +0.009 C 
ATOM     18  C   UNL     1       3.118  -6.573  -0.953  0.00  0.00    +0.022 C 
ATOM     19  C   UNL     1       4.550  -7.105  -0.853  0.00  0.00    +0.109 C 
ATOM     20  N   UNL     1       4.502  -8.527  -0.486  0.00  0.00    -0.181 NA
ATOM     21  C   UNL     1       3.740  -8.923   0.707  0.00  0.00    +0.109 C 
ATOM     22  C   UNL     1       2.317  -8.370   0.589  0.00  0.00    +0.022 C 
BRANCH  20  23
ATOM     23  S   UNL     1       5.290  -9.662  -1.399  0.00  0.00    +0.035 S 
ATOM     24  O   UNL     1       4.573 -10.868  -1.176  0.00  0.00    -0.158 OA
ATOM     25  O   UNL     1       5.364  -9.093  -2.699  0.00  0.00    -0.158 OA
BRANCH  23  26
ATOM     26  C   UNL     1       6.948  -9.776  -0.671  0.00  0.00    +0.148 C 
ATOM     27  C   UNL     1       8.106  -9.149  -1.451  0.00  0.00    +0.029 C 
ATOM     28  C   UNL     1       7.968 -10.671  -1.377  0.00  0.00    +0.029 C 
ENDBRANCH  23  26
ENDBRANCH  20  23
ENDBRANCH  16  17
ENDBRANCH   4  16
TORSDOF 6
