REMARK  Name = ZINC00616758
REMARK  2 active torsions:
REMARK  status: ('A' for Active; 'I' for Inactive)
REMARK    1  A    between atoms: C_4  and  C_7
REMARK    2  A    between atoms: N_15  and  C_16
REMARK                            x       y       z     vdW  Elec       q    Type
REMARK                         _______ _______ _______ _____ _____    ______ ____
ROOT
ATOM      1  C   UNL     1       3.506  -0.735   0.333  0.00  0.00    -0.041 C 
ATOM      2  C   UNL     1       4.480  -0.540   1.189  0.00  0.00    -0.004 C 
ATOM      3  C   UNL     1       5.812  -1.231   1.099  0.00  0.00    +0.137 C 
ATOM      4  N   UNL     1       5.731  -2.308   0.102  0.00  0.00    -0.281 N 
ATOM      5  C   UNL     1       5.035  -2.009  -1.161  0.00  0.00    +0.114 C 
ATOM      6  C   UNL     1       3.575  -1.682  -0.828  0.00  0.00    +0.054 C 
ATOM      7  C   UNL     1       6.271  -3.521   0.335  0.00  0.00    +0.307 C 
ATOM      8  O   UNL     1       6.109  -4.422  -0.465  0.00  0.00    -0.252 OA
ATOM      9  N   UNL     1       6.990  -3.735   1.455  0.00  0.00    -0.269 N 
ATOM     10  H   UNL     1       7.064  -3.036   2.124  0.00  0.00    +0.156 HD
ENDROOT
BRANCH   9  11
ATOM     11  C   UNL     1       7.627  -4.961   1.651  0.00  0.00    +0.042 A 
ATOM     12  C   UNL     1       7.854  -5.806   0.586  0.00  0.00    +0.024 A 
ATOM     13  C   UNL     1       8.488  -7.030   0.771  0.00  0.00    +0.002 A 
ATOM     14  C   UNL     1       8.901  -7.428   2.006  0.00  0.00    +0.008 A 
ATOM     15  C   UNL     1       8.690  -6.597   3.118  0.00  0.00    -0.016 A 
ATOM     16  C   UNL     1       8.050  -5.345   2.942  0.00  0.00    +0.003 A 
ATOM     17  C   UNL     1       7.844  -4.513   4.053  0.00  0.00    +0.010 A 
ATOM     18  C   UNL     1       8.266  -4.915   5.284  0.00  0.00    +0.001 A 
ATOM     19  C   UNL     1       8.900  -6.143   5.458  0.00  0.00    +0.001 A 
ATOM     20  C   UNL     1       9.105  -6.981   4.405  0.00  0.00    +0.008 A 
ENDBRANCH   9  11
BRANCH   1  24
ATOM     21  C   UNL     1      -0.094   1.448   0.896  0.00  0.00    +0.000 A 
ATOM     22  C   UNL     1       1.076   2.117   0.585  0.00  0.00    +0.001 A 
ATOM     23  C   UNL     1       2.249   1.414   0.401  0.00  0.00    +0.008 A 
ATOM     24  C   UNL     1       2.253   0.025   0.529  0.00  0.00    -0.022 A 
ATOM     25  C   UNL     1       1.070  -0.644   0.844  0.00  0.00    +0.008 A 
ATOM     26  C   UNL     1      -0.096   0.070   1.025  0.00  0.00    +0.001 A 
ENDBRANCH   1  24
TORSDOF 2
