REMARK  Name = ZINC52063180
REMARK  1 active torsions:
REMARK  status: ('A' for Active; 'I' for Inactive)
REMARK    1  A    between atoms: C_4  and  N_6
REMARK                            x       y       z     vdW  Elec       q    Type
REMARK                         _______ _______ _______ _____ _____    ______ ____
ROOT
ATOM      1  N   UNL     1       1.136  -1.209  -1.825  0.00  0.00    +0.384 N 
ATOM      2  C   UNL     1       2.432  -1.533  -2.434  0.00  0.00    -0.059 C 
ATOM      3  C   UNL     1       2.203  -2.255  -3.766  0.00  0.00    +0.088 C 
ATOM      4  N   UNL     1       1.338  -3.419  -3.523  0.00  0.00    -0.312 N 
ATOM      5  C   UNL     1       0.090  -3.211  -2.772  0.00  0.00    +0.088 C 
ATOM      6  C   UNL     1       0.418  -2.445  -1.487  0.00  0.00    -0.059 C 
ATOM      7  C   UNL     1       1.689  -4.680  -3.991  0.00  0.00    +0.185 A 
ATOM      8  N   UNL     1       2.757  -5.053  -4.668  0.00  0.00    -0.125 NA
ATOM      9  N   UNL     1       2.910  -6.370  -5.036  0.00  0.00    -0.132 NA
ATOM     10  C   UNL     1       1.987  -7.254  -4.709  0.00  0.00    +0.171 A 
ATOM     11  S   UNL     1       0.818  -6.231  -3.827  0.00  0.00    -0.024 S 
ATOM     12  S   UNL     1       1.927  -8.982  -5.046  0.00  0.00    -0.021 SA
ATOM     13  H   UNL     1       0.586  -0.670  -2.477  0.00  0.00    -0.081 HD
ENDROOT
BRANCH   1  17
ATOM     14  C   UNL     1      -0.019   1.538   0.011  0.00  0.00    -0.002 C 
ATOM     15  C   UNL     1       1.477   1.939  -0.002  0.00  0.00    -0.002 C 
ATOM     16  C   UNL     1       2.107   0.881  -0.942  0.00  0.00    -0.015 C 
ATOM     17  C   UNL     1       1.353  -0.422  -0.604  0.00  0.00    -0.068 C 
ATOM     18  C   UNL     1       0.002  -0.004   0.002  0.00  0.00    -0.015 C 
ENDBRANCH   1  17
TORSDOF 1
