REMARK  Name = ZINC28444073
REMARK  4 active torsions:
REMARK  status: ('A' for Active; 'I' for Inactive)
REMARK    1  A    between atoms: C_1  and  C_2
REMARK    2  A    between atoms: C_10  and  C_14
REMARK    3  A    between atoms: N_20  and  C_21
REMARK    4  A    between atoms: C_21  and  C_22
REMARK                            x       y       z     vdW  Elec       q    Type
REMARK                         _______ _______ _______ _____ _____    ______ ____
ROOT
ATOM      1  C   UNL     1       0.155   7.127  -0.397  0.00  0.00    +0.088 C 
ATOM      2  C   UNL     1      -0.569   6.816   0.888  0.00  0.00    +0.131 A 
ATOM      3  N   UNL     1      -1.000   7.800   1.629  0.00  0.00    -0.225 NA
ATOM      4  C   UNL     1      -1.644   7.592   2.772  0.00  0.00    +0.114 A 
ATOM      5  C   UNL     1      -1.902   6.299   3.257  0.00  0.00    +0.055 A 
ATOM      6  C   UNL     1      -2.617   6.223   4.528  0.00  0.00    -0.024 A 
ATOM      7  C   UNL     1      -2.960   7.393   5.109  0.00  0.00    -0.004 A 
ATOM      8  S   UNL     1      -2.355   8.646   4.010  0.00  0.00    -0.073 S 
ATOM      9  C   UNL     1      -3.691   7.584   6.403  0.00  0.00    +0.046 C 
ATOM     10  C   UNL     1      -3.674   6.253   7.169  0.00  0.00    -0.009 C 
ATOM     11  C   UNL     1      -4.082   5.130   6.212  0.00  0.00    +0.008 C 
ATOM     12  C   UNL     1      -2.972   4.893   5.186  0.00  0.00    +0.037 C 
ATOM     13  C   UNL     1      -4.664   6.319   8.334  0.00  0.00    +0.008 C 
ATOM     14  C   UNL     1      -1.409   5.202   2.403  0.00  0.00    +0.170 A 
ATOM     15  N   UNL     1      -0.758   5.519   1.245  0.00  0.00    -0.197 N 
ATOM     16  N   UNL     1      -0.405   4.297   0.654  0.00  0.00    -0.127 NA
ATOM     17  C   UNL     1      -0.848   3.342   1.445  0.00  0.00    +0.236 A 
ATOM     18  N   UNL     1      -1.451   3.887   2.502  0.00  0.00    -0.193 NA
ATOM     19  N   UNL     1      -0.704   1.975   1.216  0.00  0.00    -0.309 N 
ATOM     20  H   UNL     1      -1.105   1.251   1.940  0.00  0.00    +0.149 HD
ENDROOT
BRANCH  19  21
ATOM     21  C   UNL     1      -0.018   1.503   0.010  0.00  0.00    +0.131 C 
BRANCH  21  22
ATOM     22  C   UNL     1       0.002  -0.004   0.002  0.00  0.00    -0.016 C 
ATOM     23  C   UNL     1      -0.478  -0.660  -1.025  0.00  0.00    +0.005 C 
ENDBRANCH  21  22
ENDBRANCH  19  21
TORSDOF 2
