REMARK  Name = ZINC03157198
REMARK  5 active torsions:
REMARK  status: ('A' for Active; 'I' for Inactive)
REMARK    1  A    between atoms: C_1  and  C_2
REMARK    2  A    between atoms: C_5  and  N_9
REMARK    3  A    between atoms: C_7  and  C_8
REMARK    4  A    between atoms: C_13  and  C_16
REMARK    5  A    between atoms: N_19  and  C_20
REMARK                            x       y       z     vdW  Elec       q    Type
REMARK                         _______ _______ _______ _____ _____    ______ ____
ROOT
ATOM      1  N   UNL     1      -1.159   2.174   0.021  0.00  0.00    -0.203 N 
ATOM      2  C   UNL     1      -0.087   1.340   0.281  0.00  0.00    +0.164 C 
ATOM      3  N   UNL     1      -0.132   0.078   0.563  0.00  0.00    -0.262 NA
ATOM      4  C   UNL     1       1.062  -0.697   0.812  0.00  0.00    +0.158 C 
ATOM      5  C   UNL     1       2.353   0.145   0.703  0.00  0.00    +0.072 C 
ATOM      6  S   UNL     1       1.639   1.783   0.290  0.00  0.00    -0.085 S 
ATOM      7  C   UNL     1       3.257  -0.367  -0.420  0.00  0.00    +0.021 C 
ATOM      8  C   UNL     1      -0.959   3.496  -0.151  0.00  0.00    +0.312 C 
ATOM      9  O   UNL     1       0.172   3.941  -0.174  0.00  0.00    -0.252 OA
ATOM     10  N   UNL     1      -2.013   4.324  -0.297  0.00  0.00    -0.302 N 
ATOM     11  C   UNL     1      -1.800   5.771  -0.386  0.00  0.00    +0.129 C 
ATOM     12  H   UNL     1      -2.911   3.962  -0.342  0.00  0.00    +0.150 HD
ENDROOT
BRANCH   1  17
ATOM     13  C   UNL     1      -6.403   0.030  -0.322  0.00  0.00    +0.044 C 
ATOM     14  C   UNL     1      -5.010   0.600  -0.231  0.00  0.00    -0.047 A 
ATOM     15  C   UNL     1      -4.076   0.298  -1.205  0.00  0.00    +0.005 A 
ATOM     16  C   UNL     1      -2.800   0.818  -1.125  0.00  0.00    +0.024 A 
ATOM     17  C   UNL     1      -2.454   1.645  -0.064  0.00  0.00    +0.045 A 
ATOM     18  C   UNL     1      -3.392   1.941   0.916  0.00  0.00    +0.027 A 
ATOM     19  C   UNL     1      -4.669   1.422   0.827  0.00  0.00    -0.046 A 
ATOM     20  C   UNL     1      -5.690   1.748   1.887  0.00  0.00    +0.044 C 
ENDBRANCH   1  17
TORSDOF 1
