REMARK  Name = ZINC12698335
REMARK  6 active torsions:
REMARK  status: ('A' for Active; 'I' for Inactive)
REMARK    1  A    between atoms: C_1  and  C_2
REMARK    2  A    between atoms: C_3  and  C_14
REMARK    3  A    between atoms: C_4  and  C_12
REMARK    4  A    between atoms: C_5  and  N_7
REMARK    5  A    between atoms: N_16  and  N_17
REMARK    6  A    between atoms: C_18  and  C_20
REMARK                            x       y       z     vdW  Elec       q    Type
REMARK                         _______ _______ _______ _____ _____    ______ ____
ROOT
ATOM      1  C   UNL     1       2.369   1.025  -0.015  0.00  0.00    +0.265 C 
ATOM      2  O   UNL     1       2.385  -0.191  -0.022  0.00  0.00    -0.268 OA
ATOM      3  N   UNL     1       1.193   1.683  -0.000  0.00  0.00    -0.230 N 
ATOM      4  H   UNL     1       1.179   2.653   0.005  0.00  0.00    +0.173 HD
ENDROOT
BRANCH   1   7
ATOM      5  C   UNL     1       3.927   1.980  -2.546  0.00  0.00    +0.087 C 
ATOM      6  C   UNL     1       4.329   2.204  -1.111  0.00  0.00    +0.118 A 
ATOM      7  C   UNL     1       3.634   1.778  -0.023  0.00  0.00    +0.098 A 
ATOM      8  C   UNL     1       4.410   2.235   1.152  0.00  0.00    +0.127 A 
ATOM      9  C   UNL     1       5.508   2.889   0.631  0.00  0.00    +0.223 A 
ATOM     10  O   UNL     1       5.427   2.855  -0.707  0.00  0.00    -0.442 OA
BRANCH   9  11
ATOM     11  N   UNL     1       6.523   3.486   1.367  0.00  0.00    -0.293 N 
ATOM     12  C   UNL     1       6.601   3.524   2.732  0.00  0.00    +0.094 A 
ATOM     13  C   UNL     1       7.726   4.185   3.070  0.00  0.00    +0.020 A 
ATOM     14  C   UNL     1       8.363   4.578   1.875  0.00  0.00    +0.020 A 
ATOM     15  C   UNL     1       7.607   4.138   0.849  0.00  0.00    +0.094 A 
ENDBRANCH   9  11
BRANCH   8  16
ATOM     16  C   UNL     1       4.090   2.039   2.534  0.00  0.00    +0.105 C 
ATOM     17  N   UNL     1       3.837   1.883   3.630  0.00  0.00    -0.191 NA
ENDBRANCH   8  16
ENDBRANCH   1   7
BRANCH   3  18
ATOM     18  N   UNL     1      -0.011   0.966   0.007  0.00  0.00    -0.230 N 
ATOM     19  C   UNL     1      -1.187   1.624   0.017  0.00  0.00    +0.267 C 
ATOM     20  O   UNL     1      -1.204   2.841   0.023  0.00  0.00    -0.268 OA
ATOM     21  H   UNL     1       0.002  -0.004   0.002  0.00  0.00    +0.173 HD
BRANCH  19  22
ATOM     22  C   UNL     1      -2.447   0.874   0.018  0.00  0.00    +0.076 A 
ATOM     23  C   UNL     1      -3.741   1.345   0.033  0.00  0.00    +0.024 A 
ATOM     24  C   UNL     1      -4.785   0.416   0.013  0.00  0.00    -0.036 A 
ATOM     25  C   UNL     1      -4.445  -0.888   0.051  0.00  0.00    -0.006 A 
ATOM     26  S   UNL     1      -2.708  -0.889   0.011  0.00  0.00    -0.088 S 
ATOM     27  C   UNL     1      -5.253  -2.152   0.182  0.00  0.00    +0.043 C 
ATOM     28  C   UNL     1      -6.751  -1.873   0.310  0.00  0.00    +0.005 C 
ATOM     29  C   UNL     1      -7.364  -1.585  -1.051  0.00  0.00    +0.000 C 
ATOM     30  C   UNL     1      -6.448  -0.777  -1.948  0.00  0.00    +0.000 C 
ATOM     31  C   UNL     1      -6.656   0.698  -1.589  0.00  0.00    +0.005 C 
ATOM     32  C   UNL     1      -6.212   0.922  -0.143  0.00  0.00    +0.036 C 
ENDBRANCH  19  22
ENDBRANCH   3  18
TORSDOF 5
