REMARK  Name = ZINC06523001
REMARK  5 active torsions:
REMARK  status: ('A' for Active; 'I' for Inactive)
REMARK    1  A    between atoms: C_1  and  C_2
REMARK    2  A    between atoms: C_7  and  N_12
REMARK    3  A    between atoms: C_9  and  C_11
REMARK    4  A    between atoms: C_13  and  C_15
REMARK    5  A    between atoms: N_19  and  C_20
REMARK                            x       y       z     vdW  Elec       q    Type
REMARK                         _______ _______ _______ _____ _____    ______ ____
ROOT
ATOM      1  N   UNL     1      -3.521   3.091  -0.040  0.00  0.00    -0.307 N 
ATOM      2  C   UNL     1      -2.550   2.160   0.046  0.00  0.00    +0.264 C 
ATOM      3  O   UNL     1      -2.844   0.982   0.134  0.00  0.00    -0.268 OA
ATOM      4  H   UNL     1      -3.288   4.022  -0.185  0.00  0.00    +0.149 HD
ENDROOT
BRANCH   1  10
ATOM      5  C   UNL     1      -7.338   2.339   1.711  0.00  0.00    +0.008 C 
ATOM      6  C   UNL     1      -7.216   3.484   0.704  0.00  0.00    -0.009 C 
ATOM      7  C   UNL     1      -7.741   3.023  -0.658  0.00  0.00    +0.003 C 
ATOM      8  C   UNL     1      -6.919   1.828  -1.143  0.00  0.00    +0.002 C 
ATOM      9  C   UNL     1      -5.451   2.238  -1.275  0.00  0.00    +0.022 C 
ATOM     10  C   UNL     1      -4.926   2.699   0.086  0.00  0.00    +0.076 C 
ATOM     11  C   UNL     1      -5.748   3.894   0.572  0.00  0.00    +0.009 C 
ATOM     12  C   UNL     1      -5.223   4.355   1.933  0.00  0.00    +0.009 C 
ENDBRANCH   1  10
BRANCH   2  13
ATOM     13  C   UNL     1      -1.138   2.566   0.035  0.00  0.00    +0.141 A 
ATOM     14  C   UNL     1      -0.302   2.642  -1.068  0.00  0.00    +0.091 A 
ATOM     15  C   UNL     1       0.929   3.079  -0.570  0.00  0.00    +0.155 A 
ATOM     16  N   UNL     1       0.806   3.236   0.723  0.00  0.00    -0.178 NA
ATOM     17  N   UNL     1      -0.383   2.944   1.111  0.00  0.00    -0.261 N 
ATOM     18  C   UNL     1      -0.860   3.011   2.495  0.00  0.00    +0.173 C 
ATOM     19 CL   UNL     1      -0.702   2.278  -2.718  0.00  0.00    -0.080 Cl
ENDBRANCH   2  13
TORSDOF 2
