REMARK  Name = ZINC28289817
REMARK  10 active torsions:
REMARK  status: ('A' for Active; 'I' for Inactive)
REMARK    1  A    between atoms: C_1  and  C_2
REMARK    2  A    between atoms: C_2  and  C_3
REMARK    3  A    between atoms: C_12  and  C_14
REMARK    4  A    between atoms: N_16  and  C_17
REMARK    5  A    between atoms: C_17  and  C_18
REMARK    6  A    between atoms: C_18  and  C_20
REMARK    7  A    between atoms: C_18  and  N_27
REMARK    8  A    between atoms: C_23  and  C_26
REMARK    9  A    between atoms: N_27  and  C_28
REMARK   10  A    between atoms: N_27  and  C_29
REMARK                            x       y       z     vdW  Elec       q    Type
REMARK                         _______ _______ _______ _____ _____    ______ ____
ROOT
ATOM      1  C   UNL     1      -0.546  -1.587   3.178  0.00  0.00    +0.279 C 
ATOM      2  O   UNL     1      -0.693  -0.672   3.963  0.00  0.00    -0.267 OA
ATOM      3  N   UNL     1      -0.297  -1.328   1.879  0.00  0.00    -0.310 N 
ATOM      4  H   UNL     1      -0.164  -2.157   1.169  0.00  0.00    +0.149 HD
ENDROOT
BRANCH   1  14
ATOM      5  C   UNL     1      -0.680  -7.970   3.794  0.00  0.00    -0.047 A 
ATOM      6  C   UNL     1      -0.429  -7.600   2.481  0.00  0.00    +0.007 A 
ATOM      7  C   UNL     1      -0.357  -6.270   2.125  0.00  0.00    +0.047 A 
ATOM      8  C   UNL     1      -0.539  -5.285   3.090  0.00  0.00    +0.139 A 
ATOM      9  C   UNL     1      -0.793  -5.668   4.418  0.00  0.00    +0.064 A 
ATOM     10  C   UNL     1      -0.862  -7.019   4.759  0.00  0.00    +0.019 A 
ATOM     11  C   UNL     1      -0.983  -4.611   5.429  0.00  0.00    +0.193 A 
ATOM     12  O   UNL     1      -1.206  -4.877   6.597  0.00  0.00    -0.287 OA
ATOM     13  C   UNL     1      -0.890  -3.220   4.960  0.00  0.00    +0.103 A 
ATOM     14  C   UNL     1      -0.639  -2.990   3.649  0.00  0.00    +0.193 A 
ATOM     15  O   UNL     1      -0.478  -3.980   2.760  0.00  0.00    -0.450 OA
BRANCH   5  17
ATOM     16  C   UNL     1       0.638  -9.929   4.553  0.00  0.00    +0.009 C 
ATOM     17  C   UNL     1      -0.754  -9.431   4.159  0.00  0.00    +0.032 C 
ENDBRANCH   5  17
ENDBRANCH   1  14
BRANCH   3  18
ATOM     18  C   UNL     1      -0.205   0.058   1.413  0.00  0.00    +0.094 C 
BRANCH  18  19
ATOM     19  C   UNL     1      -0.040   0.074  -0.108  0.00  0.00    -0.021 C 
BRANCH  19  20
ATOM     20  C   UNL     1      -0.022   1.500  -0.595  0.00  0.00    -0.059 A 
ATOM     21  C   UNL     1      -1.192   2.236  -0.624  0.00  0.00    +0.002 A 
ATOM     22  C   UNL     1      -1.175   3.545  -1.067  0.00  0.00    +0.003 A 
ATOM     23  C   UNL     1       0.011   4.116  -1.490  0.00  0.00    -0.050 A 
ATOM     24  C   UNL     1       1.180   3.379  -1.467  0.00  0.00    +0.003 A 
ATOM     25  C   UNL     1       1.163   2.071  -1.019  0.00  0.00    +0.002 A 
ATOM     26  C   UNL     1       0.028   5.542  -1.978  0.00  0.00    +0.044 C 
ENDBRANCH  19  20
BRANCH  19  27
ATOM     27  N   UNL     1      -1.162  -0.642  -0.730  0.00  0.00    +0.382 N 
ATOM     28  C   UNL     1      -2.376  -0.531   0.090  0.00  0.00    -0.096 C 
ATOM     29  C   UNL     1      -1.403  -0.158  -2.096  0.00  0.00    -0.096 C 
ATOM     30  H   UNL     1      -0.891  -1.706  -0.791  0.00  0.00    -0.082 HD
ENDBRANCH  19  27
ENDBRANCH  18  19
ENDBRANCH   3  18
TORSDOF 6
