REMARK  Name = ZINC51675977
REMARK  5 active torsions:
REMARK  status: ('A' for Active; 'I' for Inactive)
REMARK    1  A    between atoms: C_4  and  C_7
REMARK    2  A    between atoms: C_4  and  N_24
REMARK    3  A    between atoms: C_7  and  N_8
REMARK    4  A    between atoms: C_15  and  C_18
REMARK    5  A    between atoms: N_20  and  C_21
REMARK                            x       y       z     vdW  Elec       q    Type
REMARK                         _______ _______ _______ _____ _____    ______ ____
ROOT
ATOM      1  N   UNL     1       3.451  -1.820   0.189  0.00  0.00    -0.301 N 
ATOM      2  C   UNL     1       4.377  -2.372  -0.620  0.00  0.00    +0.302 C 
ATOM      3  O   UNL     1       4.929  -1.693  -1.464  0.00  0.00    -0.253 OA
ATOM      4  N   UNL     1       4.691  -3.676  -0.494  0.00  0.00    -0.285 N 
ATOM      5  C   UNL     1       5.780  -4.264  -1.286  0.00  0.00    +0.109 C 
ATOM      6  C   UNL     1       6.760  -4.961  -0.337  0.00  0.00    +0.020 C 
ATOM      7  C   UNL     1       5.998  -5.967   0.528  0.00  0.00    +0.016 C 
ATOM      8  C   UNL     1       4.952  -5.231   1.369  0.00  0.00    +0.092 C 
ATOM      9  C   UNL     1       3.956  -4.536   0.443  0.00  0.00    +0.122 C 
ATOM     10  H   UNL     1       2.959  -2.376   0.812  0.00  0.00    +0.150 HD
ENDROOT
BRANCH   8  11
ATOM     11  C   UNL     1       4.225  -6.218   2.245  0.00  0.00    +0.218 C 
ATOM     12  O   UNL     1       4.514  -7.395   2.201  0.00  0.00    -0.275 OA
ATOM     13  N   UNL     1       3.253  -5.793   3.076  0.00  0.00    -0.312 N 
ATOM     14  H   UNL     1       3.022  -4.852   3.111  0.00  0.00    +0.149 HD
BRANCH  13  15
ATOM     15  C   UNL     1       2.546  -6.753   3.928  0.00  0.00    +0.073 C 
ATOM     16  C   UNL     1       1.026  -6.617   4.034  0.00  0.00    +0.024 C 
ATOM     17  C   UNL     1       1.913  -6.222   5.216  0.00  0.00    +0.024 C 
ENDBRANCH  13  15
ENDBRANCH   8  11
BRANCH   1  18
ATOM     18  C   UNL     1       3.188  -0.380   0.126  0.00  0.00    +0.094 C 
BRANCH  18  22
ATOM     19  C   UNL     1       3.726   2.096   2.589  0.00  0.00    -0.000 C 
ATOM     20  C   UNL     1       4.092   0.617   2.728  0.00  0.00    -0.001 C 
ATOM     21  C   UNL     1       2.829  -0.236   2.595  0.00  0.00    -0.010 C 
ATOM     22  C   UNL     1       2.194   0.005   1.224  0.00  0.00    -0.050 C 
ATOM     23  C   UNL     1       1.828   1.484   1.084  0.00  0.00    -0.010 C 
ATOM     24  C   UNL     1       3.091   2.337   1.218  0.00  0.00    -0.001 C 
BRANCH  22  25
ATOM     25  N   UNL     1       0.981  -0.814   1.095  0.00  0.00    +0.384 N 
ATOM     26  C   UNL     1       0.401  -0.620  -0.239  0.00  0.00    -0.078 C 
ATOM     27  C   UNL     1      -0.816  -1.532  -0.407  0.00  0.00    -0.019 C 
ATOM     28  C   UNL     1      -1.859  -1.185   0.660  0.00  0.00    -0.004 C 
ATOM     29  C   UNL     1      -1.220  -1.319   2.045  0.00  0.00    -0.019 C 
ATOM     30  C   UNL     1       0.012  -0.415   2.123  0.00  0.00    -0.078 C 
ATOM     31  H   UNL     1       1.219  -1.787   1.218  0.00  0.00    -0.081 HD
ENDBRANCH  22  25
ENDBRANCH  18  22
ENDBRANCH   1  18
TORSDOF 5
