REMARK  Name = ZINC36358084
REMARK  7 active torsions:
REMARK  status: ('A' for Active; 'I' for Inactive)
REMARK    1  A    between atoms: C_1  and  C_2
REMARK    2  A    between atoms: C_2  and  O_3
REMARK    3  A    between atoms: O_3  and  C_4
REMARK    4  A    between atoms: C_4  and  C_6
REMARK    5  A    between atoms: C_7  and  C_24
REMARK    6  A    between atoms: C_12  and  C_14
REMARK    7  A    between atoms: N_22  and  C_23
REMARK                            x       y       z     vdW  Elec       q    Type
REMARK                         _______ _______ _______ _____ _____    ______ ____
ROOT
ATOM      1  C   UNL     1       1.448  -2.343  -2.514  0.00  0.00    +0.120 A 
ATOM      2  C   UNL     1       1.663  -3.665  -2.882  0.00  0.00    +0.062 A 
ATOM      3  N   UNL     1       2.302  -3.858  -4.008  0.00  0.00    -0.229 NA
ATOM      4  C   UNL     1       2.717  -2.845  -4.748  0.00  0.00    +0.166 A 
ATOM      5  S   UNL     1       2.212  -1.492  -3.885  0.00  0.00    -0.045 S 
ATOM      6  N   UNL     1       3.400  -2.888  -5.949  0.00  0.00    -0.261 N 
ATOM      7  C   UNL     1       3.746  -1.742  -6.569  0.00  0.00    +0.250 C 
ATOM      8  O   UNL     1       3.458  -0.671  -6.071  0.00  0.00    -0.270 OA
ATOM      9  C   UNL     1       1.187  -4.815  -2.032  0.00  0.00    +0.067 C 
ATOM     10  H   UNL     1       3.630  -3.742  -6.346  0.00  0.00    +0.157 HD
ENDROOT
BRANCH   7  11
ATOM     11  C   UNL     1       4.474  -1.787  -7.851  0.00  0.00    +0.038 A 
ATOM     12  C   UNL     1       4.801  -3.023  -8.428  0.00  0.00    +0.015 A 
ATOM     13  C   UNL     1       5.474  -3.081  -9.613  0.00  0.00    +0.027 A 
ATOM     14  C   UNL     1       5.846  -1.908 -10.267  0.00  0.00    +0.049 A 
ATOM     15  C   UNL     1       5.523  -0.660  -9.698  0.00  0.00    +0.001 A 
ATOM     16  C   UNL     1       4.831  -0.604  -8.491  0.00  0.00    +0.023 A 
ATOM     17  C   UNL     1       6.047   0.352 -10.619  0.00  0.00    +0.027 A 
ATOM     18  C   UNL     1       6.624  -0.306 -11.636  0.00  0.00    +0.086 A 
ATOM     19  N   UNL     1       6.513  -1.657 -11.442  0.00  0.00    -0.350 N 
ATOM     20  C   UNL     1       7.029  -2.682 -12.351  0.00  0.00    +0.149 C 
ENDBRANCH   7  11
BRANCH   1  21
ATOM     21  C   UNL     1       0.776  -1.800  -1.335  0.00  0.00    +0.348 C 
ATOM     22  O   UNL     1       0.312  -2.553  -0.499  0.00  0.00    -0.244 OA
BRANCH  21  23
ATOM     23  O   UNL     1       0.671  -0.465  -1.174  0.00  0.00    -0.461 OA
BRANCH  23  25
ATOM     24  C   UNL     1      -0.019   1.526   0.010  0.00  0.00    +0.048 C 
ATOM     25  C   UNL     1       0.002  -0.004   0.002  0.00  0.00    +0.229 C 
ENDBRANCH  23  25
ENDBRANCH  21  23
ENDBRANCH   1  21
TORSDOF 4
