REMARK  Name = ZINC62755674
REMARK  3 active torsions:
REMARK  status: ('A' for Active; 'I' for Inactive)
REMARK    1  A    between atoms: C_1  and  C_2
REMARK    2  A    between atoms: C_6  and  C_23
REMARK    3  A    between atoms: C_8  and  N_11
REMARK                            x       y       z     vdW  Elec       q    Type
REMARK                         _______ _______ _______ _____ _____    ______ ____
ROOT
ATOM      1  N   UNL     1       3.571  -2.646   0.874  0.00  0.00    +0.387 N 
ATOM      2  C   UNL     1       3.411  -4.105   0.794  0.00  0.00    -0.049 C 
ATOM      3  C   UNL     1       4.776  -4.758   0.567  0.00  0.00    +0.141 C 
ATOM      4  O   UNL     1       5.368  -4.224  -0.622  0.00  0.00    -0.380 OA
ATOM      5  C   UNL     1       5.524  -2.804  -0.591  0.00  0.00    +0.105 C 
ATOM      6  C   UNL     1       4.154  -2.153  -0.381  0.00  0.00    -0.039 C 
ATOM      7  C   UNL     1       4.320  -0.634  -0.319  0.00  0.00    -0.013 C 
ATOM      8  C   UNL     1       4.920  -0.138  -1.637  0.00  0.00    -0.001 C 
ATOM      9  C   UNL     1       6.282  -0.795  -1.862  0.00  0.00    +0.002 C 
ATOM     10  C   UNL     1       6.118  -2.316  -1.913  0.00  0.00    +0.030 C 
ATOM     11  H   UNL     1       4.182  -2.414   1.643  0.00  0.00    -0.081 HD
ENDROOT
BRANCH   1  17
ATOM     12  C   UNL     1      -0.663  -2.942   3.415  0.00  0.00    +0.007 C 
ATOM     13  C   UNL     1       0.114  -2.154   2.359  0.00  0.00    -0.016 C 
ATOM     14  C   UNL     1      -0.667  -2.155   1.044  0.00  0.00    +0.004 C 
ATOM     15  C   UNL     1       0.110  -1.367  -0.012  0.00  0.00    +0.013 C 
ATOM     16  C   UNL     1       1.477  -2.019  -0.231  0.00  0.00    +0.089 C 
ATOM     17  C   UNL     1       2.259  -2.019   1.084  0.00  0.00    -0.054 C 
ATOM     18  C   UNL     1       1.481  -2.807   2.140  0.00  0.00    -0.011 C 
BRANCH  16  19
ATOM     19  C   UNL     1       1.286  -3.438  -0.702  0.00  0.00    +0.357 C 
ATOM     20  O   UNL     1       1.733  -3.787  -1.782  0.00  0.00    -0.246 OA
ATOM     21  O   UNL     1       0.686  -4.237  -0.003  0.00  0.00    -0.246 OA
ENDBRANCH  16  19
ENDBRANCH   1  17
TORSDOF 2
