REMARK  Name = ZINC66323454
REMARK  10 active torsions:
REMARK  status: ('A' for Active; 'I' for Inactive)
REMARK    1  A    between atoms: C_1  and  C_2
REMARK    2  A    between atoms: C_2  and  C_3
REMARK    3  A    between atoms: C_2  and  C_4
REMARK    4  A    between atoms: C_2  and  O_5
REMARK    5  A    between atoms: O_5  and  C_6
REMARK    6  A    between atoms: C_19  and  O_21
REMARK    7  A    between atoms: O_21  and  C_22
REMARK    8  A    between atoms: C_22  and  C_23
REMARK    9  A    between atoms: C_22  and  C_24
REMARK   10  A    between atoms: C_22  and  C_25
REMARK                            x       y       z     vdW  Elec       q    Type
REMARK                         _______ _______ _______ _____ _____    ______ ____
ROOT
ATOM      1  C   UNL     1       2.223   0.037  -1.210  0.00  0.00    +0.403 C 
ATOM      2  O   UNL     1       2.813   0.490  -0.249  0.00  0.00    -0.226 OA
ATOM      3  N   UNL     1       2.912  -0.363  -2.297  0.00  0.00    -0.264 N 
ATOM      4  C   UNL     1       2.212  -0.906  -3.469  0.00  0.00    +0.130 C 
ATOM      5  C   UNL     1       2.789  -2.291  -3.788  0.00  0.00    +0.130 C 
ATOM      6  N   UNL     1       4.255  -2.191  -3.824  0.00  0.00    -0.260 N 
ATOM      7  C   UNL     1       4.955  -1.644  -2.655  0.00  0.00    +0.041 C 
ATOM      8  C   UNL     1       4.378  -0.258  -2.334  0.00  0.00    +0.135 C 
ATOM      9  C   UNL     1       4.755  -2.576  -1.459  0.00  0.00    +0.024 C 
ATOM     10  C   UNL     1       5.401  -3.931  -1.766  0.00  0.00    -0.017 C 
ATOM     11  C   UNL     1       6.879  -3.721  -2.102  0.00  0.00    -0.082 C 
ATOM     12  N   UNL     1       6.999  -2.845  -3.273  0.00  0.00    +0.380 N 
ATOM     13  C   UNL     1       6.447  -1.520  -2.963  0.00  0.00    -0.055 C 
ATOM     14  C   UNL     1       4.944  -2.595  -4.910  0.00  0.00    +0.404 C 
ATOM     15  O   UNL     1       6.071  -2.183  -5.103  0.00  0.00    -0.226 OA
ATOM     16  H   UNL     1       7.972  -2.752  -3.524  0.00  0.00    -0.086 HD
ATOM     17  H   UNL     1       6.491  -3.247  -4.046  0.00  0.00    -0.086 HD
ENDROOT
BRANCH   1  18
ATOM     18  O   UNL     1       0.881  -0.065  -1.189  0.00  0.00    -0.445 OA
BRANCH  18  20
ATOM     19  C   UNL     1       0.518   1.860   0.227  0.00  0.00    +0.055 C 
ATOM     20  C   UNL     1       0.215   0.378  -0.005  0.00  0.00    +0.107 C 
ATOM     21  C   UNL     1       0.708  -0.437   1.192  0.00  0.00    +0.055 C 
ATOM     22  C   UNL     1      -1.294   0.186  -0.166  0.00  0.00    +0.055 C 
ENDBRANCH  18  20
ENDBRANCH   1  18
BRANCH  14  23
ATOM     23  O   UNL     1       4.383  -3.454  -5.782  0.00  0.00    -0.445 OA
BRANCH  23  24
ATOM     24  C   UNL     1       5.171  -3.839  -6.911  0.00  0.00    +0.107 C 
ATOM     25  C   UNL     1       6.453  -4.520  -6.430  0.00  0.00    +0.055 C 
ATOM     26  C   UNL     1       4.373  -4.811  -7.782  0.00  0.00    +0.055 C 
ATOM     27  C   UNL     1       5.529  -2.597  -7.730  0.00  0.00    +0.055 C 
ENDBRANCH  23  24
ENDBRANCH  14  23
TORSDOF 4
