REMARK  Name = ZINC64727755
REMARK  8 active torsions:
REMARK  status: ('A' for Active; 'I' for Inactive)
REMARK    1  A    between atoms: C_1  and  O_2
REMARK    2  A    between atoms: O_2  and  C_3
REMARK    3  A    between atoms: C_3  and  C_5
REMARK    4  A    between atoms: C_5  and  C_7
REMARK    5  A    between atoms: C_5  and  N_17
REMARK    6  A    between atoms: C_7  and  C_8
REMARK    7  A    between atoms: C_18  and  C_20
REMARK    8  A    between atoms: C_20  and  C_21
REMARK                            x       y       z     vdW  Elec       q    Type
REMARK                         _______ _______ _______ _____ _____    ______ ____
ROOT
ATOM      1  N   UNL     1      -2.643  -2.570   0.013  0.00  0.00    -0.302 N 
ATOM      2  C   UNL     1      -3.328  -2.666  -1.143  0.00  0.00    +0.215 C 
ATOM      3  O   UNL     1      -2.786  -2.393  -2.193  0.00  0.00    -0.276 OA
ATOM      4  H   UNL     1      -3.076  -2.788   0.853  0.00  0.00    +0.150 HD
ENDROOT
BRANCH   1   5
ATOM      5  C   UNL     1      -1.244  -2.135   0.003  0.00  0.00    +0.186 C 
BRANCH   5   6
ATOM      6  C   UNL     1      -1.185  -0.630   0.010  0.00  0.00    +0.328 C 
ATOM      7  O   UNL     1      -2.208   0.015   0.023  0.00  0.00    -0.249 OA
BRANCH   6   9
ATOM      8  C   UNL     1      -0.017   1.425   0.010  0.00  0.00    +0.280 C 
ATOM      9  O   UNL     1       0.002  -0.004   0.002  0.00  0.00    -0.467 OA
ENDBRANCH   6   9
ENDBRANCH   5   6
BRANCH   5  10
ATOM     10  C   UNL     1      -0.531  -2.680   1.242  0.00  0.00    +0.067 C 
BRANCH  10  11
ATOM     11  C   UNL     1      -0.482  -4.184   1.173  0.00  0.00    -0.039 C 
ATOM     12  C   UNL     1       0.535  -4.944   0.706  0.00  0.00    -0.001 A 
ATOM     13  C   UNL     1       1.848  -4.610   0.142  0.00  0.00    +0.010 A 
ATOM     14  C   UNL     1       2.668  -5.612  -0.249  0.00  0.00    +0.001 A 
ATOM     15  C   UNL     1       2.297  -6.958  -0.129  0.00  0.00    +0.002 A 
ATOM     16  C   UNL     1       1.107  -7.343   0.379  0.00  0.00    +0.026 A 
ATOM     17  C   UNL     1       0.166  -6.373   0.822  0.00  0.00    +0.043 A 
ATOM     18  N   UNL     1      -1.032  -6.492   1.341  0.00  0.00    -0.380 N 
ATOM     19  C   UNL     1      -1.556  -5.151   1.619  0.00  0.00    +0.144 C 
ATOM     20  H   UNL     1      -1.492  -7.328   1.516  0.00  0.00    +0.160 HD
ENDBRANCH  10  11
ENDBRANCH   5  10
ENDBRANCH   1   5
BRANCH   2  21
ATOM     21  C   UNL     1      -4.767  -3.113  -1.132  0.00  0.00    +0.119 C 
BRANCH  21  22
ATOM     22  C   UNL     1      -5.305  -3.137  -2.564  0.00  0.00    +0.146 C 
ATOM     23  C   UNL     1      -6.707  -3.690  -2.570  0.00  0.00    +0.231 C 
ATOM     24  O   UNL     1      -6.865  -4.858  -2.854  0.00  0.00    -0.274 OA
ATOM     25  N   UNL     1      -7.778  -2.960  -2.277  0.00  0.00    -0.284 N 
ATOM     26  C   UNL     1      -7.810  -1.589  -2.041  0.00  0.00    +0.047 A 
ATOM     27  C   UNL     1      -8.922  -1.033  -1.417  0.00  0.00    +0.024 A 
ATOM     28  C   UNL     1      -8.973   0.324  -1.163  0.00  0.00    +0.002 A 
ATOM     29  C   UNL     1      -7.921   1.145  -1.526  0.00  0.00    +0.001 A 
ATOM     30  C   UNL     1      -6.811   0.607  -2.151  0.00  0.00    +0.016 A 
ATOM     31  C   UNL     1      -6.757  -0.752  -2.411  0.00  0.00    +0.030 A 
ATOM     32  S   UNL     1      -5.346  -1.444  -3.230  0.00  0.00    -0.110 S 
ATOM     33  H   UNL     1      -8.624  -3.431  -2.222  0.00  0.00    +0.155 HD
ENDBRANCH  21  22
ENDBRANCH   2  21
TORSDOF 7
