REMARK  Name = ZINC38137543
REMARK  4 active torsions:
REMARK  status: ('A' for Active; 'I' for Inactive)
REMARK    1  A    between atoms: C_4  and  S_7
REMARK    2  A    between atoms: S_7  and  N_10
REMARK    3  A    between atoms: N_10  and  C_11
REMARK    4  A    between atoms: C_12  and  C_20
REMARK                            x       y       z     vdW  Elec       q    Type
REMARK                         _______ _______ _______ _____ _____    ______ ____
ROOT
ATOM      1  C   UNL     1       3.383  -2.972  -3.737  0.00  0.00    +0.129 A 
ATOM      2  C   UNL     1       3.341  -4.352  -3.874  0.00  0.00    +0.087 A 
ATOM      3  C   UNL     1       3.994  -4.920  -5.037  0.00  0.00    -0.021 A 
ATOM      4  C   UNL     1       4.573  -4.008  -5.851  0.00  0.00    -0.021 A 
ATOM      5  S   UNL     1       4.240  -2.451  -5.085  0.00  0.00    -0.076 S 
ATOM      6  C   UNL     1       5.319  -4.300  -7.114  0.00  0.00    -0.039 C 
ATOM      7  N   UNL     1       5.652  -5.737  -7.134  0.00  0.00    +0.382 N 
ATOM      8  C   UNL     1       4.446  -6.527  -6.856  0.00  0.00    -0.077 C 
ATOM      9  C   UNL     1       4.061  -6.402  -5.378  0.00  0.00    +0.018 C 
ATOM     10  H   UNL     1       6.015  -5.985  -8.042  0.00  0.00    -0.085 HD
ATOM     11  H   UNL     1       6.350  -5.929  -6.430  0.00  0.00    -0.085 HD
ENDROOT
BRANCH   2  12
ATOM     12  C   UNL     1       2.680  -5.179  -2.909  0.00  0.00    +0.102 C 
ATOM     13  N   UNL     1       2.157  -5.835  -2.143  0.00  0.00    -0.191 NA
ENDBRANCH   2  12
BRANCH   1  14
ATOM     14  N   UNL     1       2.840  -2.200  -2.724  0.00  0.00    -0.094 NA
BRANCH  14  15
ATOM     15  S   UNL     1       3.003  -0.553  -2.760  0.00  0.00    +0.066 S 
ATOM     16  O   UNL     1       2.292  -0.143  -3.920  0.00  0.00    -0.153 OA
ATOM     17  O   UNL     1       4.401  -0.325  -2.649  0.00  0.00    -0.153 OA
BRANCH  15  21
ATOM     18  C   UNL     1      -0.019   1.526   0.010  0.00  0.00    +0.000 C 
ATOM     19  C   UNL     1       1.417   2.055  -0.000  0.00  0.00    +0.002 C 
ATOM     20  C   UNL     1       2.133   1.562  -1.259  0.00  0.00    +0.028 C 
ATOM     21  C   UNL     1       2.154   0.032  -1.268  0.00  0.00    +0.153 C 
ATOM     22  C   UNL     1       0.718  -0.497  -1.257  0.00  0.00    +0.028 C 
ATOM     23  C   UNL     1       0.002  -0.004   0.002  0.00  0.00    +0.002 C 
ENDBRANCH  15  21
ENDBRANCH  14  15
ENDBRANCH   1  14
TORSDOF 4
