REMARK  Name = ZINC38936134
REMARK  4 active torsions:
REMARK  status: ('A' for Active; 'I' for Inactive)
REMARK    1  A    between atoms: C_4  and  C_7
REMARK    2  A    between atoms: C_8  and  C_9
REMARK    3  A    between atoms: N_10  and  N_11
REMARK    4  A    between atoms: C_12  and  C_18
REMARK                            x       y       z     vdW  Elec       q    Type
REMARK                         _______ _______ _______ _____ _____    ______ ____
ROOT
ATOM      1  C   UNL     1       4.973  -2.739  -0.060  0.00  0.00    +0.150 C 
ATOM      2  N   UNL     1       4.982  -4.007   0.239  0.00  0.00    -0.182 NA
ENDROOT
BRANCH   2   3
ATOM      3  N   UNL     1       6.199  -4.673   0.434  0.00  0.00    -0.168 N 
ATOM      4  C   UNL     1       7.555  -4.090   0.466  0.00  0.00    +0.301 C 
ATOM      5  N   UNL     1       8.423  -5.255   0.703  0.00  0.00    -0.163 NA
ATOM      6  N   UNL     1       7.704  -6.254   0.783  0.00  0.00    -0.096 NA
ATOM      7  C   UNL     1       6.398  -5.993   0.642  0.00  0.00    +0.199 C 
ATOM      8  S   UNL     1       5.155  -7.168   0.713  0.00  0.00    -0.013 S 
BRANCH   4   9
ATOM      9  C   UNL     1       7.678  -3.094   1.590  0.00  0.00    +0.151 A 
ATOM     10  C   UNL     1       8.806  -2.805   2.265  0.00  0.00    +0.049 A 
ATOM     11  C   UNL     1       8.468  -1.825   3.226  0.00  0.00    +0.041 A 
ATOM     12  C   UNL     1       7.155  -1.573   3.081  0.00  0.00    +0.195 A 
ATOM     13  O   UNL     1       6.683  -2.341   2.085  0.00  0.00    -0.464 OA
ENDBRANCH   4   9
ENDBRANCH   2   3
BRANCH   1  15
ATOM     14  C   UNL     1       3.734  -0.728  -0.470  0.00  0.00    +0.029 C 
ATOM     15  C   UNL     1       3.743  -2.042  -0.159  0.00  0.00    +0.061 C 
ATOM     16 CL   UNL     1       2.247  -2.878   0.119  0.00  0.00    -0.082 Cl
BRANCH  14  20
ATOM     17  C   UNL     1       0.099   1.456  -0.350  0.00  0.00    +0.000 A 
ATOM     18  C   UNL     1       0.303   0.410   0.533  0.00  0.00    +0.001 A 
ATOM     19  C   UNL     1       1.482  -0.305   0.501  0.00  0.00    +0.008 A 
ATOM     20  C   UNL     1       2.473   0.030  -0.428  0.00  0.00    -0.024 A 
ATOM     21  C   UNL     1       2.259   1.088  -1.317  0.00  0.00    +0.008 A 
ATOM     22  C   UNL     1       1.075   1.793  -1.272  0.00  0.00    +0.001 A 
ENDBRANCH  14  20
ENDBRANCH   1  15
TORSDOF 4
