REMARK  Name = ZINC21344503
REMARK  8 active torsions:
REMARK  status: ('A' for Active; 'I' for Inactive)
REMARK    1  A    between atoms: C_1  and  C_2
REMARK    2  A    between atoms: C_5  and  N_9
REMARK    3  A    between atoms: C_6  and  C_8
REMARK    4  A    between atoms: N_9  and  S_10
REMARK    5  A    between atoms: S_10  and  C_13
REMARK    6  A    between atoms: C_15  and  N_20
REMARK    7  A    between atoms: C_18  and  C_19
REMARK    8  A    between atoms: C_21  and  C_23
REMARK                            x       y       z     vdW  Elec       q    Type
REMARK                         _______ _______ _______ _____ _____    ______ ____
ROOT
ATOM      1  C   UNL     1       2.416   0.155  -2.442  0.00  0.00    +0.113 A 
ATOM      2  C   UNL     1       3.428  -0.111  -3.343  0.00  0.00    +0.052 A 
ATOM      3  C   UNL     1       3.294   0.277  -4.670  0.00  0.00    +0.036 A 
ATOM      4  C   UNL     1       2.146   0.940  -5.084  0.00  0.00    +0.024 A 
ATOM      5  C   UNL     1       1.140   1.207  -4.176  0.00  0.00    +0.007 A 
ATOM      6  C   UNL     1       1.274   0.815  -2.857  0.00  0.00    -0.024 A 
ATOM      7  C   UNL     1       0.174   1.109  -1.870  0.00  0.00    +0.046 C 
ENDROOT
BRANCH   3   8
ATOM      8  N   UNL     1       4.315   0.005  -5.585  0.00  0.00    -0.279 N 
ATOM      9  C   UNL     1       4.576   0.874  -6.582  0.00  0.00    +0.286 C 
ATOM     10  O   UNL     1       3.988   1.939  -6.630  0.00  0.00    -0.266 OA
ATOM     11  H   UNL     1       4.906  -0.919  -5.493  0.00  0.00    +0.155 HD
BRANCH   9  12
ATOM     12  C   UNL     1       5.566   0.538  -7.606  0.00  0.00    +0.217 C 
ATOM     13  C   UNL     1       6.204  -0.638  -7.538  0.00  0.00    +0.238 C 
ATOM     14  O   UNL     1       7.131  -0.995  -8.452  0.00  0.00    -0.492 OA
ATOM     15  C   UNL     1       7.139  -0.264  -9.683  0.00  0.00    +0.269 C 
ATOM     16  C   UNL     1       7.025   1.231  -9.350  0.00  0.00    +0.270 C 
ATOM     17  O   UNL     1       5.813   1.426  -8.609  0.00  0.00    -0.481 OA
ENDBRANCH   9  12
ENDBRANCH   3   8
BRANCH   1  18
ATOM     18  S   UNL     1       2.582  -0.343  -0.759  0.00  0.00    +0.073 S 
ATOM     19  O   UNL     1       2.265   0.794   0.033  0.00  0.00    -0.150 OA
ATOM     20  O   UNL     1       3.827  -1.020  -0.657  0.00  0.00    -0.150 OA
BRANCH  18  21
ATOM     21  N   UNL     1       1.405  -1.469  -0.463  0.00  0.00    -0.216 N 
ATOM     22  H   UNL     1       0.649  -1.284   0.315  0.00  0.00    +0.174 HD
BRANCH  21  27
ATOM     23  C   UNL     1       1.267  -6.282  -3.460  0.00  0.00    +0.044 C 
ATOM     24  C   UNL     1       1.303  -5.003  -2.663  0.00  0.00    -0.050 A 
ATOM     25  C   UNL     1       2.518  -4.425  -2.342  0.00  0.00    +0.005 A 
ATOM     26  C   UNL     1       2.555  -3.256  -1.607  0.00  0.00    +0.025 A 
ATOM     27  C   UNL     1       1.371  -2.654  -1.202  0.00  0.00    +0.051 A 
ATOM     28  C   UNL     1       0.152  -3.234  -1.531  0.00  0.00    -0.028 A 
ATOM     29  C   UNL     1       0.122  -4.406  -2.261  0.00  0.00    +0.008 A 
ATOM     30  C   UNL     1      -1.135  -2.585  -1.093  0.00  0.00    +0.046 C 
ENDBRANCH  21  27
ENDBRANCH  18  21
ENDBRANCH   1  18
TORSDOF 5
