REMARK  Name = ZINC12073913
REMARK  7 active torsions:
REMARK  status: ('A' for Active; 'I' for Inactive)
REMARK    1  A    between atoms: C_1  and  N_2
REMARK    2  A    between atoms: N_2  and  C_3
REMARK    3  A    between atoms: C_13  and  N_49
REMARK    4  A    between atoms: C_15  and  C_16
REMARK    5  A    between atoms: C_15  and  N_49
REMARK    6  A    between atoms: C_20  and  O_22
REMARK    7  A    between atoms: O_22  and  C_23
REMARK                            x       y       z     vdW  Elec       q    Type
REMARK                         _______ _______ _______ _____ _____    ______ ____
ROOT
ATOM      1  N   UNL     1       2.393  -2.244   3.682  0.00  0.00    +0.386 N 
ATOM      2  H   UNL     1       1.609  -2.875   3.475  0.00  0.00    -0.085 HD
ATOM      3  H   UNL     1       2.445  -1.515   2.960  0.00  0.00    -0.085 HD
ENDROOT
BRANCH   1  16
ATOM      4  C   UNL     1       6.183  -4.338  -2.078  0.00  0.00    +0.132 C 
ATOM      5  N   UNL     1       5.620  -3.106  -1.519  0.00  0.00    -0.306 N 
ATOM      6  C   UNL     1       5.577  -1.887  -2.329  0.00  0.00    +0.132 C 
ATOM      7  C   UNL     1       5.131  -3.095  -0.224  0.00  0.00    +0.218 A 
ATOM      8  N   UNL     1       4.625  -1.973   0.267  0.00  0.00    -0.223 NA
ATOM      9  C   UNL     1       4.152  -1.933   1.500  0.00  0.00    +0.118 A 
ATOM     10  C   UNL     1       4.189  -3.081   2.283  0.00  0.00    -0.022 A 
ATOM     11  C   UNL     1       4.717  -4.233   1.741  0.00  0.00    +0.048 A 
ATOM     12  N   UNL     1       5.177  -4.204   0.495  0.00  0.00    -0.219 NA
ATOM     13  C   UNL     1       4.794  -5.527   2.504  0.00  0.00    +0.056 C 
ATOM     14  C   UNL     1       4.635  -5.273   4.003  0.00  0.00    +0.005 C 
ATOM     15  C   UNL     1       3.380  -4.421   4.221  0.00  0.00    -0.011 C 
ATOM     16  C   UNL     1       3.650  -3.015   3.686  0.00  0.00    -0.037 C 
ENDBRANCH   1  16
BRANCH   1  17
ATOM     17  C   UNL     1       2.176  -1.611   4.996  0.00  0.00    -0.046 C 
BRANCH  17  18
ATOM     18  C   UNL     1       0.956  -0.730   4.925  0.00  0.00    -0.057 A 
ATOM     19  C   UNL     1      -0.290  -1.251   5.222  0.00  0.00    +0.051 A 
ATOM     20  C   UNL     1      -1.415  -0.444   5.158  0.00  0.00    +0.170 A 
ATOM     21  C   UNL     1      -1.289   0.893   4.793  0.00  0.00    +0.208 A 
ATOM     22  C   UNL     1      -0.035   1.412   4.495  0.00  0.00    +0.166 A 
ATOM     23  C   UNL     1       1.084   0.596   4.555  0.00  0.00    +0.051 A 
ATOM     24  O   UNL     1      -2.528   1.468   4.805  0.00  0.00    -0.449 OA
ATOM     25  C   UNL     1      -3.357   0.577   5.574  0.00  0.00    +0.467 C 
ATOM     26  O   UNL     1      -2.733  -0.708   5.398  0.00  0.00    -0.452 OA
BRANCH  22  27
ATOM     27  O   UNL     1       0.093   2.718   4.138  0.00  0.00    -0.491 OA
ATOM     28  C   UNL     1       1.412   3.184   3.844  0.00  0.00    +0.277 C 
ENDBRANCH  22  27
ENDBRANCH  17  18
ENDBRANCH   1  17
TORSDOF 4
