REMARK  Name = ZINC26540852
REMARK  4 active torsions:
REMARK  status: ('A' for Active; 'I' for Inactive)
REMARK    1  A    between atoms: C_1  and  N_2
REMARK    2  A    between atoms: C_5  and  S_8
REMARK    3  A    between atoms: S_8  and  N_11
REMARK    4  A    between atoms: N_11  and  C_12
REMARK                            x       y       z     vdW  Elec       q    Type
REMARK                         _______ _______ _______ _____ _____    ______ ____
ROOT
ATOM      1  S   UNL     1       0.385   1.212  -0.526  0.00  0.00    +0.110 S 
ATOM      2  O   UNL     1      -0.479   1.709  -1.538  0.00  0.00    -0.147 OA
ATOM      3  O   UNL     1      -0.088   0.823   0.757  0.00  0.00    -0.147 OA
ENDROOT
BRANCH   1   8
ATOM      4  C   UNL     1       2.628  -2.226  -3.822  0.00  0.00    +0.151 C 
ATOM      5  N   UNL     1       2.126  -1.595  -2.598  0.00  0.00    -0.324 N 
ATOM      6  C   UNL     1       2.200  -2.101  -1.347  0.00  0.00    +0.176 A 
ATOM      7  N   UNL     1       1.647  -1.256  -0.521  0.00  0.00    -0.329 N 
ATOM      8  C   UNL     1       1.204  -0.192  -1.207  0.00  0.00    +0.214 A 
ATOM      9  C   UNL     1       1.490  -0.387  -2.510  0.00  0.00    +0.154 A 
ATOM     10 CL   UNL     1       1.124   0.689  -3.822  0.00  0.00    -0.060 Cl
ATOM     11  H   UNL     1       1.605  -1.485   0.554  0.00  0.00    +0.168 HD
ENDBRANCH   1   8
BRANCH   1  12
ATOM     12  N   UNL     1       1.536   2.375  -0.273  0.00  0.00    -0.096 NA
BRANCH  12  13
ATOM     13  C   UNL     1       2.564   2.153   0.647  0.00  0.00    +0.074 A 
ATOM     14  C   UNL     1       2.308   2.233   2.010  0.00  0.00    +0.027 A 
ATOM     15  C   UNL     1       3.326   2.007   2.916  0.00  0.00    +0.002 A 
ATOM     16  C   UNL     1       4.600   1.712   2.468  0.00  0.00    +0.000 A 
ATOM     17  C   UNL     1       4.859   1.637   1.111  0.00  0.00    +0.002 A 
ATOM     18  C   UNL     1       3.845   1.856   0.200  0.00  0.00    +0.027 A 
ENDBRANCH  12  13
ENDBRANCH   1  12
TORSDOF 3
