REMARK  Name = ZINC10618114
REMARK  9 active torsions:
REMARK  status: ('A' for Active; 'I' for Inactive)
REMARK    1  A    between atoms: C_1  and  C_2
REMARK    2  A    between atoms: N_9  and  C_26
REMARK    3  A    between atoms: C_10  and  S_12
REMARK    4  A    between atoms: S_12  and  C_13
REMARK    5  A    between atoms: C_13  and  C_14
REMARK    6  A    between atoms: C_18  and  C_25
REMARK    7  A    between atoms: C_21  and  C_24
REMARK    8  A    between atoms: C_29  and  O_32
REMARK    9  A    between atoms: O_32  and  C_33
REMARK                            x       y       z     vdW  Elec       q    Type
REMARK                         _______ _______ _______ _____ _____    ______ ____
ROOT
ATOM      1  C   UNL     1      -2.744   7.101  10.487  0.00  0.00    +0.020 C 
ATOM      2  C   UNL     1      -3.535   5.796  10.375  0.00  0.00    +0.054 C 
ATOM      3  C   UNL     1      -3.284   5.098   9.019  0.00  0.00    +0.071 C 
ATOM      4  C   UNL     1      -3.255   3.596   9.161  0.00  0.00    +0.064 A 
ATOM      5  C   UNL     1      -3.012   3.102  10.427  0.00  0.00    +0.094 A 
ATOM      6  C   UNL     1      -2.925   1.723  10.662  0.00  0.00    +0.273 A 
ATOM      7  O   UNL     1      -2.698   1.294  11.782  0.00  0.00    -0.266 OA
ATOM      8  N   UNL     1      -3.102   0.877   9.621  0.00  0.00    -0.255 N 
ATOM      9  C   UNL     1      -3.350   1.399   8.385  0.00  0.00    +0.177 A 
ATOM     10  N   UNL     1      -3.424   2.690   8.175  0.00  0.00    -0.227 NA
ATOM     11  S   UNL     1      -2.868   4.506  11.507  0.00  0.00    -0.115 S 
ENDROOT
BRANCH   8  12
ATOM     12  C   UNL     1      -3.027  -0.510   9.809  0.00  0.00    +0.052 A 
ATOM     13  C   UNL     1      -1.811  -1.165   9.672  0.00  0.00    +0.030 A 
ATOM     14  C   UNL     1      -1.737  -2.531   9.863  0.00  0.00    +0.047 A 
ATOM     15  C   UNL     1      -2.881  -3.250  10.179  0.00  0.00    +0.120 A 
ATOM     16  C   UNL     1      -4.098  -2.597  10.310  0.00  0.00    +0.047 A 
ATOM     17  C   UNL     1      -4.171  -1.231  10.125  0.00  0.00    +0.030 A 
BRANCH  15  18
ATOM     18  O   UNL     1      -2.808  -4.596  10.360  0.00  0.00    -0.495 OA
ATOM     19  C   UNL     1      -1.524  -5.203  10.209  0.00  0.00    +0.277 C 
ENDBRANCH  15  18
ENDBRANCH   8  12
BRANCH   9  20
ATOM     20  S   UNL     1      -3.586   0.299   7.029  0.00  0.00    -0.078 S 
BRANCH  20  21
ATOM     21  C   UNL     1      -3.874   1.496   5.701  0.00  0.00    +0.173 C 
BRANCH  21  22
ATOM     22  C   UNL     1      -4.107   0.762   4.406  0.00  0.00    +0.226 C 
ATOM     23  O   UNL     1      -4.081  -0.450   4.382  0.00  0.00    -0.275 OA
ATOM     24  N   UNL     1      -4.345   1.453   3.273  0.00  0.00    -0.296 N 
ATOM     25  C   UNL     1      -4.575   0.759   1.996  0.00  0.00    +0.139 C 
ATOM     26  C   UNL     1      -5.856   1.318   1.367  0.00  0.00    +0.133 C 
ATOM     27  O   UNL     1      -5.769   2.743   1.307  0.00  0.00    -0.371 OA
ATOM     28  C   UNL     1      -5.672   3.377   2.585  0.00  0.00    +0.133 C 
ATOM     29  C   UNL     1      -4.381   2.924   3.277  0.00  0.00    +0.139 C 
ATOM     30  C   UNL     1      -5.647   4.896   2.402  0.00  0.00    +0.039 C 
ATOM     31  C   UNL     1      -6.018   0.756  -0.048  0.00  0.00    +0.039 C 
ENDBRANCH  21  22
ENDBRANCH  20  21
ENDBRANCH   9  20
TORSDOF 5
