REMARK  Name = ZINC63187119
REMARK  5 active torsions:
REMARK  status: ('A' for Active; 'I' for Inactive)
REMARK    1  A    between atoms: C_1  and  C_2
REMARK    2  A    between atoms: C_3  and  S_8
REMARK    3  A    between atoms: C_4  and  C_7
REMARK    4  A    between atoms: S_8  and  N_11
REMARK    5  A    between atoms: C_19  and  C_21
REMARK                            x       y       z     vdW  Elec       q    Type
REMARK                         _______ _______ _______ _____ _____    ______ ____
ROOT
ATOM      1  N   UNL     1       1.894  -0.218  -3.197  0.00  0.00    -0.173 NA
ATOM      2  C   UNL     1       2.649   1.006  -2.889  0.00  0.00    +0.110 C 
ATOM      3  C   UNL     1       3.348   1.497  -4.160  0.00  0.00    +0.017 C 
ATOM      4  C   UNL     1       4.190   0.365  -4.757  0.00  0.00    +0.006 C 
ATOM      5  C   UNL     1       3.275  -0.805  -5.115  0.00  0.00    +0.008 C 
ATOM      6  C   UNL     1       2.607  -1.330  -3.834  0.00  0.00    +0.083 C 
ATOM      7  C   UNL     1       1.635  -2.452  -4.199  0.00  0.00    +0.021 C 
ATOM      8  C   UNL     1       2.416  -3.595  -4.854  0.00  0.00    +0.005 C 
ATOM      9  C   UNL     1       3.121  -3.088  -6.113  0.00  0.00    -0.014 C 
ATOM     10  C   UNL     1       4.073  -1.937  -5.760  0.00  0.00    +0.008 C 
ATOM     11  C   UNL     1       2.077  -2.581  -7.110  0.00  0.00    +0.007 C 
ENDROOT
BRANCH   1  12
ATOM     12  S   UNL     1       0.284  -0.339  -2.828  0.00  0.00    +0.066 S 
ATOM     13  O   UNL     1      -0.302  -1.157  -3.832  0.00  0.00    -0.153 OA
ATOM     14  O   UNL     1      -0.172   0.980  -2.559  0.00  0.00    -0.153 OA
BRANCH  12  17
ATOM     15  C   UNL     1       1.146   0.585   0.255  0.00  0.00    +0.071 C 
ATOM     16  C   UNL     1       0.552  -0.766  -0.047  0.00  0.00    +0.107 A 
ATOM     17  C   UNL     1       0.162  -1.233  -1.315  0.00  0.00    +0.170 A 
ATOM     18  C   UNL     1      -0.321  -2.482  -1.171  0.00  0.00    +0.161 A 
ATOM     19  O   UNL     1      -0.247  -2.808   0.128  0.00  0.00    -0.358 OA
ATOM     20  N   UNL     1       0.314  -1.708   0.822  0.00  0.00    -0.081 NA
ATOM     21  C   UNL     1      -0.851  -3.360  -2.276  0.00  0.00    +0.091 C 
ENDBRANCH  12  17
ENDBRANCH   1  12
TORSDOF 2
