REMARK  Name = ZINC08711836
REMARK  6 active torsions:
REMARK  status: ('A' for Active; 'I' for Inactive)
REMARK    1  A    between atoms: C_1  and  C_2
REMARK    2  A    between atoms: C_2  and  C_4
REMARK    3  A    between atoms: C_2  and  O_17
REMARK    4  A    between atoms: N_6  and  C_7
REMARK    5  A    between atoms: C_9  and  N_14
REMARK    6  A    between atoms: O_17  and  C_18
REMARK                            x       y       z     vdW  Elec       q    Type
REMARK                         _______ _______ _______ _____ _____    ______ ____
ROOT
ATOM      1  C   UNL     1      -4.873  -0.163  -0.064  0.00  0.00    +0.258 C 
ATOM      2  O   UNL     1      -3.825  -0.774  -0.033  0.00  0.00    -0.271 OA
ATOM      3  N   UNL     1      -4.872   1.181   0.035  0.00  0.00    -0.281 N 
ATOM      4  H   UNL     1      -5.712   1.665   0.073  0.00  0.00    +0.155 HD
ENDROOT
BRANCH   3   5
ATOM      5  C   UNL     1      -3.659   1.879   0.080  0.00  0.00    +0.054 A 
ATOM      6  C   UNL     1      -2.559   1.322   0.719  0.00  0.00    +0.057 A 
ATOM      7  C   UNL     1      -1.364   2.012   0.762  0.00  0.00    +0.128 A 
ATOM      8  C   UNL     1      -1.263   3.260   0.175  0.00  0.00    +0.034 A 
ATOM      9  C   UNL     1      -2.354   3.816  -0.467  0.00  0.00    +0.024 A 
ATOM     10  C   UNL     1      -3.553   3.131  -0.514  0.00  0.00    +0.062 A 
ATOM     11 CL   UNL     1      -4.925   3.832  -1.314  0.00  0.00    -0.082 Cl
BRANCH   7  12
ATOM     12  N   UNL     1      -0.191   1.418   1.442  0.00  0.00    +0.056 N 
ATOM     13  O   UNL     1      -0.281   0.321   1.964  0.00  0.00    -0.126 OA
ATOM     14  O   UNL     1       0.865   2.024   1.476  0.00  0.00    -0.126 OA
ENDBRANCH   7  12
ENDBRANCH   3   5
BRANCH   1  16
ATOM     15  C   UNL     1      -7.064  -0.624   1.002  0.00  0.00    +0.062 C 
ATOM     16  C   UNL     1      -6.175  -0.907  -0.210  0.00  0.00    +0.256 C 
BRANCH  16  17
ATOM     17  O   UNL     1      -5.916  -2.309  -0.294  0.00  0.00    -0.478 OA
BRANCH  17  18
ATOM     18  C   UNL     1      -6.743  -3.044  -1.084  0.00  0.00    +0.141 A 
ATOM     19  C   UNL     1      -7.857  -2.454  -1.661  0.00  0.00    +0.067 A 
ATOM     20  C   UNL     1      -8.697  -3.203  -2.464  0.00  0.00    +0.045 A 
ATOM     21  C   UNL     1      -8.427  -4.541  -2.692  0.00  0.00    +0.021 A 
ATOM     22  C   UNL     1      -7.317  -5.131  -2.117  0.00  0.00    +0.025 A 
ATOM     23  C   UNL     1      -6.471  -4.385  -1.318  0.00  0.00    +0.083 A 
ATOM     24 CL   UNL     1      -5.074  -5.126  -0.602  0.00  0.00    -0.080 Cl
ATOM     25 CL   UNL     1     -10.092  -2.464  -3.188  0.00  0.00    -0.083 Cl
ENDBRANCH  17  18
ENDBRANCH  16  17
ENDBRANCH   1  16
TORSDOF 5
