REMARK  Name = ZINC24961669
REMARK  8 active torsions:
REMARK  status: ('A' for Active; 'I' for Inactive)
REMARK    1  A    between atoms: C_4  and  C_8
REMARK    2  A    between atoms: C_11  and  C_13
REMARK    3  A    between atoms: C_13  and  C_14
REMARK    4  A    between atoms: C_14  and  C_15
REMARK    5  A    between atoms: N_17  and  C_18
REMARK    6  A    between atoms: C_18  and  C_19
REMARK    7  A    between atoms: C_22  and  S_24
REMARK    8  A    between atoms: S_24  and  N_27
REMARK                            x       y       z     vdW  Elec       q    Type
REMARK                         _______ _______ _______ _____ _____    ______ ____
ROOT
ATOM      1  C   UNL     1      -2.616   3.398   1.661  0.00  0.00    +0.214 C 
ATOM      2  O   UNL     1      -3.239   3.891   0.745  0.00  0.00    -0.276 OA
ATOM      3  N   UNL     1      -1.576   2.579   1.405  0.00  0.00    -0.311 N 
ATOM      4  H   UNL     1      -1.011   2.132   2.236  0.00  0.00    +0.149 HD
ENDROOT
BRANCH   1   5
ATOM      5  C   UNL     1      -3.003   3.701   3.086  0.00  0.00    +0.105 C 
BRANCH   5   6
ATOM      6  C   UNL     1      -4.204   4.649   3.097  0.00  0.00    +0.105 C 
BRANCH   6  10
ATOM      7  C   UNL     1      -5.543   4.834   6.472  0.00  0.00    +0.161 A 
ATOM      8  C   UNL     1      -4.697   5.896   6.452  0.00  0.00    +0.161 A 
ATOM      9  N   UNL     1      -4.130   5.938   5.237  0.00  0.00    -0.221 NA
ATOM     10  C   UNL     1      -4.592   4.952   4.521  0.00  0.00    +0.197 A 
ATOM     11  O   UNL     1      -5.472   4.255   5.253  0.00  0.00    -0.440 OA
BRANCH   7  15
ATOM     12  C   UNL     1      -7.964   3.583   9.734  0.00  0.00    +0.006 A 
ATOM     13  C   UNL     1      -8.200   4.805   9.131  0.00  0.00    +0.039 A 
ATOM     14  C   UNL     1      -7.417   5.219   8.070  0.00  0.00    +0.137 A 
ATOM     15  C   UNL     1      -6.385   4.399   7.606  0.00  0.00    +0.089 A 
ATOM     16  C   UNL     1      -6.156   3.163   8.217  0.00  0.00    +0.137 A 
ATOM     17  C   UNL     1      -6.944   2.766   9.280  0.00  0.00    +0.039 A 
ATOM     18  F   UNL     1      -5.164   2.361   7.772  0.00  0.00    -0.205 F 
ATOM     19  F   UNL     1      -7.648   6.414   7.483  0.00  0.00    -0.205 F 
ENDBRANCH   7  15
ENDBRANCH   6  10
ENDBRANCH   5   6
ENDBRANCH   1   5
BRANCH   3  20
ATOM     20  C   UNL     1      -1.200   2.284   0.020  0.00  0.00    +0.146 C 
BRANCH  20  21
ATOM     21  C   UNL     1      -0.016   1.351   0.009  0.00  0.00    +0.009 A 
ATOM     22  C   UNL     1       0.002  -0.004   0.002  0.00  0.00    +0.015 A 
ATOM     23  C   UNL     1       1.220  -0.658  -0.013  0.00  0.00    +0.036 A 
ATOM     24  C   UNL     1       2.360   0.076  -0.020  0.00  0.00    +0.142 A 
ATOM     25  S   UNL     1       1.725   1.744  -0.005  0.00  0.00    -0.072 S 
BRANCH  24  26
ATOM     26  S   UNL     1       4.033  -0.475  -0.038  0.00  0.00    +0.062 S 
ATOM     27  O   UNL     1       4.813   0.578   0.510  0.00  0.00    -0.153 OA
ATOM     28  O   UNL     1       4.035  -1.788   0.506  0.00  0.00    -0.153 OA
BRANCH  26  29
ATOM     29  N   UNL     1       4.484  -0.620  -1.625  0.00  0.00    -0.203 NA
ATOM     30  H   UNL     1       5.527  -0.963  -1.681  0.00  0.00    +0.144 HD
ATOM     31  H   UNL     1       4.392   0.357  -2.123  0.00  0.00    +0.144 HD
ENDBRANCH  26  29
ENDBRANCH  24  26
ENDBRANCH  20  21
ENDBRANCH   3  20
TORSDOF 8
