REMARK  Name = ZINC63270799
REMARK  5 active torsions:
REMARK  status: ('A' for Active; 'I' for Inactive)
REMARK    1  A    between atoms: C_7  and  C_10
REMARK    2  A    between atoms: C_10  and  C_11
REMARK    3  A    between atoms: C_11  and  N_12
REMARK    4  A    between atoms: C_13  and  C_15
REMARK    5  A    between atoms: C_15  and  N_16
REMARK                            x       y       z     vdW  Elec       q    Type
REMARK                         _______ _______ _______ _____ _____    ______ ____
ROOT
ATOM      1  C   UNL     1      -1.753  -6.556  -2.622  0.00  0.00    +0.201 C 
ENDROOT
BRANCH   1   2
ATOM      2  N   UNL     1      -1.976  -7.005  -3.998  0.00  0.00    -0.291 N 
ATOM      3  C   UNL     1      -2.789  -8.052  -4.242  0.00  0.00    +0.303 C 
ATOM      4  O   UNL     1      -3.264  -8.681  -3.317  0.00  0.00    -0.253 OA
ATOM      5  N   UNL     1      -3.075  -8.401  -5.512  0.00  0.00    -0.284 N 
ATOM      6  C   UNL     1      -4.049  -9.465  -5.769  0.00  0.00    +0.110 C 
ATOM      7  C   UNL     1      -5.058  -9.052  -6.859  0.00  0.00    +0.025 C 
ATOM      8  C   UNL     1      -4.253  -8.544  -8.032  0.00  0.00    +0.029 C 
ATOM      9  C   UNL     1      -3.511  -7.267  -7.557  0.00  0.00    +0.127 C 
ATOM     10  C   UNL     1      -2.404  -7.700  -6.635  0.00  0.00    +0.136 C 
ATOM     11  N   UNL     1      -3.251  -6.518  -8.760  0.00  0.00    -0.282 NA
ATOM     12  C   UNL     1      -4.179  -6.741  -9.624  0.00  0.00    +0.043 C 
ATOM     13  C   UNL     1      -4.928  -8.023  -9.260  0.00  0.00    +0.065 C 
ATOM     14  C   UNL     1      -6.373  -7.650  -9.191  0.00  0.00    -0.017 C 
ATOM     15  C   UNL     1      -6.806  -6.721 -10.060  0.00  0.00    -0.004 C 
ATOM     16  C   UNL     1      -5.909  -6.068 -11.015  0.00  0.00    +0.001 C 
ATOM     17  C   UNL     1      -4.572  -6.083 -10.822  0.00  0.00    +0.023 C 
ATOM     18  H   UNL     1      -1.537  -6.550  -4.734  0.00  0.00    +0.151 HD
ENDBRANCH   1   2
BRANCH   1  20
ATOM     19  N   UNL     1      -0.460  -4.796  -1.460  0.00  0.00    -0.314 N 
ATOM     20  C   UNL     1      -0.811  -5.380  -2.623  0.00  0.00    +0.230 C 
ATOM     21  O   UNL     1      -0.369  -4.958  -3.671  0.00  0.00    -0.274 OA
ATOM     22  H   UNL     1      -0.814  -5.133  -0.622  0.00  0.00    +0.149 HD
BRANCH  19  23
ATOM     23  C   UNL     1       0.455  -3.652  -1.462  0.00  0.00    +0.108 C 
BRANCH  23  24
ATOM     24  C   UNL     1       0.687  -3.183  -0.024  0.00  0.00    +0.052 C 
BRANCH  24  31
ATOM     25  C   UNL     1      -0.017   1.351   0.003  0.00  0.00    +0.001 A 
ATOM     26  C   UNL     1       1.166   2.104  -0.004  0.00  0.00    +0.002 A 
ATOM     27  C   UNL     1       2.391   1.537  -0.016  0.00  0.00    +0.026 A 
ATOM     28  C   UNL     1       2.528   0.121  -0.023  0.00  0.00    +0.043 A 
ATOM     29  N   UNL     1       3.585  -0.653  -0.036  0.00  0.00    -0.380 N 
ATOM     30  C   UNL     1       3.141  -2.052  -0.039  0.00  0.00    +0.144 C 
ATOM     31  C   UNL     1       1.629  -2.006  -0.026  0.00  0.00    -0.040 C 
ATOM     32  C   UNL     1       1.294  -0.696  -0.017  0.00  0.00    -0.001 A 
ATOM     33  C   UNL     1       0.001  -0.001  -0.003  0.00  0.00    +0.010 A 
ATOM     34  H   UNL     1       4.507  -0.353  -0.043  0.00  0.00    +0.160 HD
ENDBRANCH  24  31
ENDBRANCH  23  24
ENDBRANCH  19  23
ENDBRANCH   1  20
TORSDOF 5
