REMARK  Name = ZINC32896167
REMARK  5 active torsions:
REMARK  status: ('A' for Active; 'I' for Inactive)
REMARK    1  A    between atoms: C_1  and  C_2
REMARK    2  A    between atoms: N_10  and  C_13
REMARK    3  A    between atoms: C_13  and  C_14
REMARK    4  A    between atoms: C_18  and  C_25
REMARK    5  A    between atoms: C_21  and  C_24
REMARK                            x       y       z     vdW  Elec       q    Type
REMARK                         _______ _______ _______ _____ _____    ______ ____
ROOT
ATOM      1  C   UNL     1      -4.028   5.292   0.065  0.00  0.00    +0.044 C 
ATOM      2  C   UNL     1      -3.036   4.158   0.051  0.00  0.00    -0.050 A 
ATOM      3  C   UNL     1      -3.487   2.852   0.049  0.00  0.00    +0.004 A 
ATOM      4  C   UNL     1      -2.587   1.798   0.036  0.00  0.00    +0.014 A 
ATOM      5  C   UNL     1      -1.226   2.057   0.018  0.00  0.00    +0.049 A 
ATOM      6  C   UNL     1      -0.766   3.389   0.026  0.00  0.00    +0.050 A 
ATOM      7  C   UNL     1      -1.677   4.433   0.040  0.00  0.00    +0.017 A 
ATOM      8  C   UNL     1       0.710   3.307   0.012  0.00  0.00    +0.254 C 
ATOM      9  O   UNL     1       1.472   4.253   0.010  0.00  0.00    -0.270 OA
ATOM     10  N   UNL     1       1.067   2.010   0.003  0.00  0.00    -0.225 N 
ATOM     11  C   UNL     1      -0.014   1.210   0.009  0.00  0.00    +0.254 C 
ATOM     12  O   UNL     1       0.002  -0.004   0.002  0.00  0.00    -0.270 OA
ENDROOT
BRANCH  10  13
ATOM     13  C   UNL     1       2.452   1.532  -0.012  0.00  0.00    +0.212 C 
BRANCH  13  14
ATOM     14  C   UNL     1       2.914   1.375  -1.437  0.00  0.00    +0.234 C 
ATOM     15  O   UNL     1       2.161   1.637  -2.351  0.00  0.00    -0.274 OA
ATOM     16  N   UNL     1       4.165   0.944  -1.696  0.00  0.00    -0.295 N 
ATOM     17  C   UNL     1       5.098   0.626  -0.604  0.00  0.00    +0.139 C 
ATOM     18  C   UNL     1       5.685  -0.770  -0.866  0.00  0.00    +0.133 C 
ATOM     19  O   UNL     1       6.221  -0.812  -2.191  0.00  0.00    -0.371 OA
ATOM     20  C   UNL     1       5.250  -0.616  -3.222  0.00  0.00    +0.133 C 
ATOM     21  C   UNL     1       4.639   0.782  -3.080  0.00  0.00    +0.139 C 
ATOM     22  C   UNL     1       5.923  -0.744  -4.590  0.00  0.00    +0.039 C 
ATOM     23  C   UNL     1       4.587  -1.826  -0.726  0.00  0.00    +0.039 C 
ENDBRANCH  13  14
ENDBRANCH  10  13
TORSDOF 2
