REMARK  Name = ZINC05029531
REMARK  8 active torsions:
REMARK  status: ('A' for Active; 'I' for Inactive)
REMARK    1  A    between atoms: C_1  and  C_2
REMARK    2  A    between atoms: C_2  and  C_4
REMARK    3  A    between atoms: C_2  and  S_16
REMARK    4  A    between atoms: N_6  and  C_7
REMARK    5  A    between atoms: S_16  and  C_17
REMARK    6  A    between atoms: N_21  and  C_22
REMARK    7  A    between atoms: C_25  and  O_28
REMARK    8  A    between atoms: O_28  and  C_29
REMARK                            x       y       z     vdW  Elec       q    Type
REMARK                         _______ _______ _______ _____ _____    ______ ____
ROOT
ATOM      1  C   UNL     1      -0.708   1.564   1.262  0.00  0.00    +0.029 C 
ATOM      2  C   UNL     1      -0.001   1.075  -0.004  0.00  0.00    +0.137 C 
ENDROOT
BRANCH   2   3
ATOM      3  C   UNL     1      -0.738   1.581  -1.218  0.00  0.00    +0.230 C 
ATOM      4  O   UNL     1      -0.326   2.553  -1.815  0.00  0.00    -0.274 OA
ATOM      5  N   UNL     1      -1.854   0.954  -1.639  0.00  0.00    -0.282 N 
ATOM      6  H   UNL     1      -2.147   0.140  -1.201  0.00  0.00    +0.155 HD
BRANCH   5   7
ATOM      7  C   UNL     1      -2.590   1.478  -2.710  0.00  0.00    +0.072 A 
ATOM      8  C   UNL     1      -1.937   2.113  -3.757  0.00  0.00    +0.029 A 
ATOM      9  C   UNL     1      -2.664   2.630  -4.813  0.00  0.00    +0.043 A 
ATOM     10  C   UNL     1      -4.044   2.514  -4.828  0.00  0.00    +0.161 A 
ATOM     11  C   UNL     1      -4.700   1.881  -3.784  0.00  0.00    +0.195 A 
ATOM     12  C   UNL     1      -3.975   1.357  -2.727  0.00  0.00    +0.182 A 
ATOM     13  F   UNL     1      -4.612   0.735  -1.712  0.00  0.00    -0.200 F 
ATOM     14  F   UNL     1      -6.046   1.770  -3.801  0.00  0.00    -0.199 F 
ATOM     15  F   UNL     1      -4.751   3.021  -5.862  0.00  0.00    -0.202 F 
ENDBRANCH   5   7
ENDBRANCH   2   3
BRANCH   2  16
ATOM     16  S   UNL     1       1.698   1.698  -0.025  0.00  0.00    -0.072 S 
BRANCH  16  17
ATOM     17  C   UNL     1       2.351   0.855   1.377  0.00  0.00    +0.215 A 
ATOM     18  N   UNL     1       1.700   0.026   2.164  0.00  0.00    -0.101 NA
ATOM     19  N   UNL     1       2.472  -0.414   3.091  0.00  0.00    -0.022 NA
ATOM     20  N   UNL     1       3.650   0.095   2.974  0.00  0.00    -0.038 NA
ATOM     21  N   UNL     1       3.618   0.943   1.853  0.00  0.00    -0.187 N 
BRANCH  21  22
ATOM     22  C   UNL     1       4.671   1.715   1.337  0.00  0.00    +0.070 A 
ATOM     23  C   UNL     1       4.790   1.899  -0.034  0.00  0.00    +0.031 A 
ATOM     24  C   UNL     1       5.823   2.662  -0.540  0.00  0.00    +0.048 A 
ATOM     25  C   UNL     1       6.748   3.236   0.320  0.00  0.00    +0.120 A 
ATOM     26  C   UNL     1       6.633   3.047   1.689  0.00  0.00    +0.048 A 
ATOM     27  C   UNL     1       5.597   2.289   2.197  0.00  0.00    +0.031 A 
BRANCH  25  28
ATOM     28  O   UNL     1       7.768   3.983  -0.180  0.00  0.00    -0.495 OA
ATOM     29  C   UNL     1       7.825   4.136  -1.600  0.00  0.00    +0.277 C 
ENDBRANCH  25  28
ENDBRANCH  21  22
ENDBRANCH  16  17
ENDBRANCH   2  16
TORSDOF 6
