REMARK  Name = ZINC13406516
REMARK  7 active torsions:
REMARK  status: ('A' for Active; 'I' for Inactive)
REMARK    1  A    between atoms: C_1  and  C_2
REMARK    2  A    between atoms: C_2  and  C_22
REMARK    3  A    between atoms: C_3  and  C_18
REMARK    4  A    between atoms: C_5  and  C_12
REMARK    5  A    between atoms: N_10  and  C_11
REMARK    6  A    between atoms: C_18  and  O_20
REMARK    7  A    between atoms: O_20  and  C_21
REMARK                            x       y       z     vdW  Elec       q    Type
REMARK                         _______ _______ _______ _____ _____    ______ ____
ROOT
ATOM      1  C   UNL     1       1.530  -0.794  -1.204  0.00  0.00    +0.049 C 
ATOM      2  C   UNL     1       1.621   0.733  -1.248  0.00  0.00    +0.134 C 
ATOM      3  C   UNL     1       1.500   1.287   0.172  0.00  0.00    +0.143 C 
ATOM      4  C   UNL     1       0.064   1.070   0.663  0.00  0.00    +0.045 C 
ATOM      5  C   UNL     1      -0.870   1.958  -0.163  0.00  0.00    +0.105 C 
ATOM      6  C   UNL     1      -0.577   1.786  -1.626  0.00  0.00    +0.217 C 
ATOM      7  O   UNL     1      -1.413   2.150  -2.426  0.00  0.00    -0.276 OA
ATOM      8  N   UNL     1       0.554   1.254  -2.093  0.00  0.00    -0.286 N 
ATOM      9  C   UNL     1       0.734   1.190  -3.545  0.00  0.00    +0.133 C 
ENDROOT
BRANCH   4  10
ATOM     10  C   UNL     1      -0.037   1.444   2.119  0.00  0.00    -0.043 A 
ATOM     11  C   UNL     1       0.063   2.768   2.501  0.00  0.00    +0.004 A 
ATOM     12  C   UNL     1      -0.033   3.112   3.837  0.00  0.00    +0.000 A 
ATOM     13  C   UNL     1      -0.220   2.130   4.791  0.00  0.00    +0.000 A 
ATOM     14  C   UNL     1      -0.315   0.804   4.410  0.00  0.00    +0.000 A 
ATOM     15  C   UNL     1      -0.223   0.461   3.074  0.00  0.00    +0.004 A 
ENDBRANCH   4  10
BRANCH   3  16
ATOM     16  C   UNL     1       1.815   2.761   0.167  0.00  0.00    +0.314 C 
ATOM     17  O   UNL     1       1.455   3.453  -0.756  0.00  0.00    -0.250 OA
BRANCH  16  18
ATOM     18  O   UNL     1       2.494   3.305   1.189  0.00  0.00    -0.468 OA
ATOM     19  C   UNL     1       2.762   4.731   1.117  0.00  0.00    +0.280 C 
ENDBRANCH  16  18
ENDBRANCH   3  16
BRANCH   2  20
ATOM     20  C   UNL     1       2.923   1.122  -1.813  0.00  0.00    +0.089 C 
ATOM     21  N   UNL     1       3.928   1.423  -2.249  0.00  0.00    -0.194 NA
ENDBRANCH   2  20
TORSDOF 4
