REMARK  Name = ZINC43721074
REMARK  6 active torsions:
REMARK  status: ('A' for Active; 'I' for Inactive)
REMARK    1  A    between atoms: C_1  and  C_2
REMARK    2  A    between atoms: C_2  and  C_3
REMARK    3  A    between atoms: N_12  and  C_13
REMARK    4  A    between atoms: C_13  and  C_15
REMARK    5  A    between atoms: C_13  and  C_16
REMARK    6  A    between atoms: C_19  and  C_21
REMARK                            x       y       z     vdW  Elec       q    Type
REMARK                         _______ _______ _______ _____ _____    ______ ____
ROOT
ATOM      1  C   UNL     1      -2.673  -2.294  -2.472  0.00  0.00    +0.135 C 
ATOM      2  C   UNL     1      -3.543  -2.093  -1.226  0.00  0.00    +0.141 C 
ATOM      3  N   UNL     1      -2.788  -2.559  -0.052  0.00  0.00    -0.281 N 
ATOM      4  C   UNL     1      -1.416  -2.058   0.130  0.00  0.00    +0.137 C 
ATOM      5  C   UNL     1      -0.649  -2.261  -1.181  0.00  0.00    +0.179 C 
ATOM      6  O   UNL     1      -1.396  -1.688  -2.257  0.00  0.00    -0.373 OA
ATOM      7  C   UNL     1      -3.336  -3.417   0.830  0.00  0.00    +0.303 C 
ATOM      8  O   UNL     1      -2.666  -3.864   1.740  0.00  0.00    -0.253 OA
ATOM      9  N   UNL     1      -4.628  -3.781   0.703  0.00  0.00    -0.290 N 
ATOM     10  H   UNL     1      -5.143  -3.482  -0.064  0.00  0.00    +0.151 HD
ENDROOT
BRANCH   1  12
ATOM     11  C   UNL     1      -2.544  -1.948  -4.943  0.00  0.00    +0.006 C 
ATOM     12  C   UNL     1      -3.351  -1.643  -3.679  0.00  0.00    +0.030 C 
ENDBRANCH   1  12
BRANCH   9  13
ATOM     13  C   UNL     1      -5.255  -4.627   1.721  0.00  0.00    +0.137 C 
ATOM     14  C   UNL     1      -4.963  -6.097   1.413  0.00  0.00    +0.036 C 
BRANCH  13  15
ATOM     15  C   UNL     1      -6.744  -4.399   1.717  0.00  0.00    +0.125 A 
ATOM     16  C   UNL     1      -7.531  -4.319   2.805  0.00  0.00    +0.047 A 
ATOM     17  C   UNL     1      -8.849  -4.100   2.342  0.00  0.00    +0.045 A 
ATOM     18  C   UNL     1      -8.789  -4.059   0.999  0.00  0.00    +0.102 A 
ATOM     19  O   UNL     1      -7.511  -4.235   0.626  0.00  0.00    -0.463 OA
ATOM     20  C   UNL     1      -9.956  -3.846   0.071  0.00  0.00    +0.086 C 
ENDBRANCH  13  15
ENDBRANCH   9  13
TORSDOF 3
