REMARK  Name = ZINC05234721
REMARK  10 active torsions:
REMARK  status: ('A' for Active; 'I' for Inactive)
REMARK    1  A    between atoms: C_1  and  C_2
REMARK    2  A    between atoms: C_9  and  C_28
REMARK    3  A    between atoms: C_10  and  C_11
REMARK    4  A    between atoms: N_13  and  N_14
REMARK    5  A    between atoms: N_14  and  S_15
REMARK    6  A    between atoms: S_15  and  C_18
REMARK    7  A    between atoms: C_21  and  C_24
REMARK    8  A    between atoms: C_24  and  C_25
REMARK    9  A    between atoms: C_24  and  C_26
REMARK   10  A    between atoms: C_24  and  C_27
REMARK                            x       y       z     vdW  Elec       q    Type
REMARK                         _______ _______ _______ _____ _____    ______ ____
ROOT
ATOM      1  C   UNL     1       2.960  -3.463  -3.142  0.00  0.00    +0.277 C 
ATOM      2  O   UNL     1       2.741  -4.646  -2.954  0.00  0.00    -0.267 OA
ATOM      3  N   UNL     1       2.273  -2.532  -2.450  0.00  0.00    -0.227 N 
ATOM      4  H   UNL     1       2.498  -1.593  -2.544  0.00  0.00    +0.171 HD
ENDROOT
BRANCH   1  14
ATOM      5  C   UNL     1       3.925  -1.273  -9.410  0.00  0.00    +0.044 C 
ATOM      6  C   UNL     1       3.863  -1.758  -7.985  0.00  0.00    -0.046 A 
ATOM      7  C   UNL     1       2.627  -2.058  -7.395  0.00  0.00    +0.021 A 
ATOM      8  C   UNL     1       2.573  -2.494  -6.116  0.00  0.00    +0.094 A 
ATOM      9  N   UNL     1       3.711  -2.645  -5.387  0.00  0.00    -0.295 N 
ATOM     10  C   UNL     1       4.930  -2.361  -5.933  0.00  0.00    +0.139 A 
ATOM     11  C   UNL     1       5.008  -1.908  -7.262  0.00  0.00    +0.050 A 
ATOM     12  N   UNL     1       5.870  -2.593  -5.017  0.00  0.00    -0.232 NA
ATOM     13  C   UNL     1       5.308  -3.011  -3.894  0.00  0.00    +0.069 A 
ATOM     14  C   UNL     1       3.938  -3.064  -4.089  0.00  0.00    +0.132 A 
ATOM     15  C   UNL     1       6.034  -3.370  -2.623  0.00  0.00    +0.068 C 
ENDBRANCH   1  14
BRANCH   3  16
ATOM     16  N   UNL     1       1.233  -2.921  -1.595  0.00  0.00    -0.108 NA
ATOM     17  H   UNL     1       0.503  -3.461  -1.935  0.00  0.00    +0.172 HD
BRANCH  16  18
ATOM     18  S   UNL     1       1.252  -2.458  -0.005  0.00  0.00    +0.074 S 
ATOM     19  O   UNL     1       2.505  -2.872   0.523  0.00  0.00    -0.152 OA
ATOM     20  O   UNL     1       0.014  -2.876   0.554  0.00  0.00    -0.152 OA
BRANCH  18  21
ATOM     21  C   UNL     1       1.249  -0.697   0.025  0.00  0.00    +0.107 A 
ATOM     22  C   UNL     1       0.051  -0.008   0.051  0.00  0.00    +0.029 A 
ATOM     23  C   UNL     1       0.048   1.374   0.075  0.00  0.00    +0.006 A 
ATOM     24  C   UNL     1       1.244   2.067   0.074  0.00  0.00    -0.042 A 
ATOM     25  C   UNL     1       2.442   1.379   0.046  0.00  0.00    +0.006 A 
ATOM     26  C   UNL     1       2.445  -0.003   0.022  0.00  0.00    +0.029 A 
BRANCH  24  27
ATOM     27  C   UNL     1       1.241   3.574   0.100  0.00  0.00    -0.013 C 
ATOM     28  C   UNL     1       0.534   4.061   1.366  0.00  0.00    +0.015 C 
ATOM     29  C   UNL     1       2.683   4.087   0.092  0.00  0.00    +0.015 C 
ATOM     30  C   UNL     1       0.505   4.104  -1.132  0.00  0.00    +0.015 C 
ENDBRANCH  24  27
ENDBRANCH  18  21
ENDBRANCH  16  18
ENDBRANCH   3  16
TORSDOF 5
