REMARK  Name = ZINC61211973
REMARK  2 active torsions:
REMARK  status: ('A' for Active; 'I' for Inactive)
REMARK    1  A    between atoms: C_9  and  C_10
REMARK    2  A    between atoms: C_16  and  C_18
REMARK                            x       y       z     vdW  Elec       q    Type
REMARK                         _______ _______ _______ _____ _____    ______ ____
ROOT
ATOM      1  C   UNL     1       4.681  -1.262  -0.112  0.00  0.00    +0.060 C 
ATOM      2  C   UNL     1       5.445  -1.645  -1.381  0.00  0.00    +0.030 C 
ATOM      3  C   UNL     1       6.856  -1.051  -1.323  0.00  0.00    +0.108 C 
ATOM      4  N   UNL     1       7.500  -1.485  -0.076  0.00  0.00    -0.301 N 
ATOM      5  C   UNL     1       6.808  -1.247   1.198  0.00  0.00    +0.108 C 
ATOM      6  C   UNL     1       5.398  -1.839   1.111  0.00  0.00    +0.030 C 
ATOM      7  C   UNL     1       8.704  -2.091  -0.100  0.00  0.00    +0.219 C 
ATOM      8  O   UNL     1       9.237  -2.339  -1.161  0.00  0.00    -0.275 OA
ENDROOT
BRANCH   7   9
ATOM      9  C   UNL     1       9.387  -2.462   1.191  0.00  0.00    +0.078 C 
ATOM     10  C   UNL     1       9.778  -1.189   1.945  0.00  0.00    +0.032 C 
ATOM     11  C   UNL     1      10.441  -1.570   3.272  0.00  0.00    +0.110 C 
ATOM     12  N   UNL     1      11.563  -2.477   2.997  0.00  0.00    -0.286 N 
ATOM     13  C   UNL     1      11.316  -3.687   2.201  0.00  0.00    +0.110 C 
ATOM     14  C   UNL     1      10.643  -3.282   0.886  0.00  0.00    +0.032 C 
ATOM     15  C   UNL     1      12.797  -2.204   3.466  0.00  0.00    +0.300 C 
ATOM     16  O   UNL     1      12.972  -1.249   4.198  0.00  0.00    -0.253 OA
ATOM     17  N   UNL     1      13.838  -2.989   3.122  0.00  0.00    -0.313 N 
ATOM     18  H   UNL     1      13.687  -3.791   2.599  0.00  0.00    +0.146 HD
ATOM     19  H   UNL     1      14.736  -2.751   3.399  0.00  0.00    +0.146 HD
ENDBRANCH   7   9
BRANCH   1  28
ATOM     20  C   UNL     1      -0.488  -0.240  -0.133  0.00  0.00    +0.005 A 
ATOM     21  C   UNL     1       0.576   0.674  -0.042  0.00  0.00    +0.018 A 
ATOM     22  C   UNL     1       1.853   0.237  -0.050  0.00  0.00    +0.094 A 
ATOM     23  N   UNL     1       2.128  -1.095  -0.148  0.00  0.00    -0.286 N 
ATOM     24  C   UNL     1       1.109  -2.012  -0.238  0.00  0.00    +0.161 A 
ATOM     25  C   UNL     1      -0.228  -1.571  -0.230  0.00  0.00    +0.048 A 
ATOM     26  N   UNL     1       1.674  -3.206  -0.320  0.00  0.00    -0.129 NA
ATOM     27  N   UNL     1       2.954  -3.078  -0.285  0.00  0.00    -0.133 NA
ATOM     28  C   UNL     1       3.281  -1.816  -0.181  0.00  0.00    +0.141 A 
ENDBRANCH   1  28
TORSDOF 2
