REMARK  Name = ZINC04130612
REMARK  3 active torsions:
REMARK  status: ('A' for Active; 'I' for Inactive)
REMARK    1  A    between atoms: C_3  and  S_8
REMARK    2  A    between atoms: S_8  and  O_11
REMARK    3  A    between atoms: O_11  and  C_12
REMARK                            x       y       z     vdW  Elec       q    Type
REMARK                         _______ _______ _______ _____ _____    ______ ____
ROOT
ATOM      1  O   UNL     1       3.510   2.264  -0.020  0.00  0.00    -0.342 OA
ENDROOT
BRANCH   1   2
ATOM      2  C   UNL     1       2.365   1.531  -0.012  0.00  0.00    +0.158 A 
ATOM      3  C   UNL     1       2.416   0.143  -0.020  0.00  0.00    +0.052 A 
ATOM      4  C   UNL     1       1.267  -0.612  -0.013  0.00  0.00    +0.051 A 
ATOM      5  C   UNL     1       0.002  -0.004   0.002  0.00  0.00    +0.147 A 
ATOM      6  C   UNL     1      -0.017   1.398   0.010  0.00  0.00    +0.065 A 
ATOM      7  C   UNL     1       1.126   2.158   0.003  0.00  0.00    +0.067 A 
ATOM      8  S   UNL     1      -1.755   1.769   0.036  0.00  0.00    -0.004 S 
ATOM      9  C   UNL     1      -2.348   0.083   0.026  0.00  0.00    +0.379 A 
ATOM     10  O   UNL     1      -3.494  -0.325   0.035  0.00  0.00    -0.237 OA
ATOM     11  O   UNL     1      -1.199  -0.618   0.011  0.00  0.00    -0.417 OA
ENDBRANCH   1   2
BRANCH   1  12
ATOM     12  S   UNL     1       4.017   2.606  -1.414  0.00  0.00    +0.151 S 
ATOM     13  O   UNL     1       5.306   3.180  -1.248  0.00  0.00    -0.131 OA
ATOM     14  O   UNL     1       3.793   1.457  -2.220  0.00  0.00    -0.131 OA
BRANCH  12  17
ATOM     15  C   UNL     1       2.482   6.204  -2.330  0.00  0.00    +0.040 A 
ATOM     16  C   UNL     1       3.297   5.205  -1.831  0.00  0.00    +0.033 A 
ATOM     17  C   UNL     1       2.977   3.878  -2.050  0.00  0.00    +0.128 A 
ATOM     18  C   UNL     1       1.845   3.549  -2.771  0.00  0.00    +0.033 A 
ATOM     19  C   UNL     1       1.026   4.545  -3.266  0.00  0.00    +0.040 A 
ATOM     20  C   UNL     1       1.345   5.875  -3.048  0.00  0.00    +0.124 A 
ATOM     21  F   UNL     1       0.547   6.851  -3.536  0.00  0.00    -0.205 F 
ENDBRANCH  12  17
ENDBRANCH   1  12
TORSDOF 3
