REMARK  Name = ZINC06108017
REMARK  6 active torsions:
REMARK  status: ('A' for Active; 'I' for Inactive)
REMARK    1  A    between atoms: C_1  and  C_2
REMARK    2  A    between atoms: C_2  and  C_21
REMARK    3  A    between atoms: N_5  and  C_9
REMARK    4  A    between atoms: C_9  and  C_10
REMARK    5  A    between atoms: N_12  and  C_13
REMARK    6  A    between atoms: C_13  and  C_14
REMARK                            x       y       z     vdW  Elec       q    Type
REMARK                         _______ _______ _______ _____ _____    ______ ____
ROOT
ATOM      1  C   UNL     1      -2.036   1.585   1.278  0.00  0.00    +0.047 C 
ATOM      2  C   UNL     1      -1.204   1.830   0.017  0.00  0.00    +0.135 C 
ATOM      3  C   UNL     1      -0.628   3.232   0.024  0.00  0.00    +0.251 C 
ATOM      4  O   UNL     1      -1.244   4.276   0.034  0.00  0.00    -0.272 OA
ATOM      5  N   UNL     1       0.710   3.076   0.011  0.00  0.00    -0.215 N 
ATOM      6  C   UNL     1       1.057   1.784   0.002  0.00  0.00    +0.310 C 
ATOM      7  O   UNL     1       2.207   1.393  -0.011  0.00  0.00    -0.252 OA
ATOM      8  N   UNL     1      -0.011   0.966   0.007  0.00  0.00    -0.281 N 
ATOM      9  H   UNL     1       0.002  -0.004   0.002  0.00  0.00    +0.152 HD
ENDROOT
BRANCH   2  10
ATOM     10  C   UNL     1      -2.034   1.601  -1.220  0.00  0.00    -0.015 A 
ATOM     11  C   UNL     1      -2.771   2.639  -1.760  0.00  0.00    +0.006 A 
ATOM     12  C   UNL     1      -3.527   2.429  -2.897  0.00  0.00    +0.004 A 
ATOM     13  C   UNL     1      -3.557   1.178  -3.492  0.00  0.00    -0.044 A 
ATOM     14  C   UNL     1      -2.825   0.140  -2.949  0.00  0.00    -0.044 A 
ATOM     15  C   UNL     1      -2.064   0.354  -1.812  0.00  0.00    +0.010 A 
ATOM     16  C   UNL     1      -3.024  -1.113  -3.775  0.00  0.00    +0.036 C 
ATOM     17  C   UNL     1      -3.601  -0.623  -5.119  0.00  0.00    +0.009 C 
ATOM     18  C   UNL     1      -4.298   0.695  -4.720  0.00  0.00    +0.036 C 
ENDBRANCH   2  10
BRANCH   5  19
ATOM     19  C   UNL     1       1.668   4.185   0.007  0.00  0.00    +0.213 C 
BRANCH  19  20
ATOM     20  C   UNL     1       1.982   4.572  -1.415  0.00  0.00    +0.231 C 
ATOM     21  O   UNL     1       1.459   3.979  -2.335  0.00  0.00    -0.274 OA
ATOM     22  N   UNL     1       2.846   5.576  -1.665  0.00  0.00    -0.310 N 
ATOM     23  H   UNL     1       3.265   6.050  -0.930  0.00  0.00    +0.149 HD
BRANCH  22  24
ATOM     24  C   UNL     1       3.152   5.952  -3.048  0.00  0.00    +0.139 C 
BRANCH  24  25
ATOM     25  C   UNL     1       4.137   7.092  -3.052  0.00  0.00    -0.030 A 
ATOM     26  C   UNL     1       3.682   8.398  -3.048  0.00  0.00    +0.008 A 
ATOM     27  C   UNL     1       4.585   9.444  -3.047  0.00  0.00    +0.038 A 
ATOM     28  C   UNL     1       5.944   9.185  -3.061  0.00  0.00    +0.123 A 
ATOM     29  C   UNL     1       6.399   7.877  -3.070  0.00  0.00    +0.038 A 
ATOM     30  C   UNL     1       5.495   6.832  -3.066  0.00  0.00    +0.008 A 
ATOM     31  F   UNL     1       6.827  10.208  -3.065  0.00  0.00    -0.205 F 
ENDBRANCH  24  25
ENDBRANCH  22  24
ENDBRANCH  19  20
ENDBRANCH   5  19
TORSDOF 5
