REMARK  Name = ZINC09459581
REMARK  9 active torsions:
REMARK  status: ('A' for Active; 'I' for Inactive)
REMARK    1  A    between atoms: C_1  and  C_2
REMARK    2  A    between atoms: C_9  and  C_19
REMARK    3  A    between atoms: C_12  and  C_13
REMARK    4  A    between atoms: C_19  and  O_21
REMARK    5  A    between atoms: O_21  and  C_22
REMARK    6  A    between atoms: C_22  and  C_24
REMARK    7  A    between atoms: C_22  and  C_25
REMARK    8  A    between atoms: N_27  and  C_28
REMARK    9  A    between atoms: C_33  and  C_34
REMARK                            x       y       z     vdW  Elec       q    Type
REMARK                         _______ _______ _______ _____ _____    ______ ____
ROOT
ATOM      1  C   UNL     1      -2.205  -0.443   0.047  0.00  0.00    +0.051 C 
ATOM      2  C   UNL     1      -1.072   0.551   0.037  0.00  0.00    +0.040 A 
ATOM      3  C   UNL     1       0.267   0.103  -0.049  0.00  0.00    +0.196 A 
ATOM      4  O   UNL     1       0.536  -1.085  -0.116  0.00  0.00    -0.287 OA
ATOM      5  C   UNL     1       1.326   1.133  -0.060  0.00  0.00    +0.065 A 
ATOM      6  C   UNL     1       2.674   0.785  -0.148  0.00  0.00    +0.015 A 
ATOM      7  C   UNL     1       3.640   1.770  -0.156  0.00  0.00    +0.002 A 
ATOM      8  C   UNL     1       3.283   3.104  -0.078  0.00  0.00    +0.019 A 
ATOM      9  C   UNL     1       1.940   3.473   0.011  0.00  0.00    +0.102 A 
ATOM     10  C   UNL     1       0.948   2.481   0.020  0.00  0.00    +0.153 A 
ATOM     11  O   UNL     1      -0.356   2.808   0.103  0.00  0.00    -0.454 OA
ATOM     12  C   UNL     1      -1.329   1.884   0.114  0.00  0.00    +0.142 A 
ENDROOT
BRANCH  12  13
ATOM     13  C   UNL     1      -2.733   2.332   0.208  0.00  0.00    +0.018 A 
ATOM     14  C   UNL     1      -3.212   3.324  -0.651  0.00  0.00    +0.011 A 
ATOM     15  C   UNL     1      -4.525   3.735  -0.560  0.00  0.00    +0.001 A 
ATOM     16  C   UNL     1      -5.365   3.174   0.386  0.00  0.00    +0.000 A 
ATOM     17  C   UNL     1      -4.896   2.195   1.244  0.00  0.00    +0.001 A 
ATOM     18  C   UNL     1      -3.586   1.771   1.161  0.00  0.00    +0.011 A 
ENDBRANCH  12  13
BRANCH   9  19
ATOM     19  C   UNL     1       1.567   4.897   0.093  0.00  0.00    +0.343 C 
ATOM     20  O   UNL     1       0.396   5.214   0.169  0.00  0.00    -0.245 OA
BRANCH  19  21
ATOM     21  O   UNL     1       2.523   5.846   0.084  0.00  0.00    -0.449 OA
BRANCH  21  22
ATOM     22  C   UNL     1       2.082   7.227   0.168  0.00  0.00    +0.259 C 
ATOM     23  C   UNL     1       1.851   7.775  -1.242  0.00  0.00    +0.062 C 
BRANCH  22  24
ATOM     24  C   UNL     1       3.138   8.050   0.860  0.00  0.00    +0.258 C 
ATOM     25  O   UNL     1       4.198   7.545   1.163  0.00  0.00    -0.271 OA
ATOM     26  N   UNL     1       2.904   9.347   1.142  0.00  0.00    -0.281 N 
ATOM     27  H   UNL     1       2.081   9.767   0.845  0.00  0.00    +0.155 HD
BRANCH  26  28
ATOM     28  C   UNL     1       3.844  10.085   1.860  0.00  0.00    +0.051 A 
ATOM     29  C   UNL     1       5.199   9.839   1.692  0.00  0.00    +0.024 A 
ATOM     30  C   UNL     1       6.129  10.575   2.400  0.00  0.00    +0.002 A 
ATOM     31  C   UNL     1       5.718  11.554   3.289  0.00  0.00    +0.001 A 
ATOM     32  C   UNL     1       4.376  11.808   3.474  0.00  0.00    +0.021 A 
ATOM     33  C   UNL     1       3.424  11.075   2.760  0.00  0.00    +0.073 A 
BRANCH  33  34
ATOM     34  C   UNL     1       2.028  11.333   2.948  0.00  0.00    +0.101 C 
ATOM     35  N   UNL     1       0.920  11.538   3.096  0.00  0.00    -0.191 NA
ENDBRANCH  33  34
ENDBRANCH  26  28
ENDBRANCH  22  24
ENDBRANCH  21  22
ENDBRANCH  19  21
ENDBRANCH   9  19
TORSDOF 7
