REMARK  Name = ZINC04513310
REMARK  5 active torsions:
REMARK  status: ('A' for Active; 'I' for Inactive)
REMARK    1  A    between atoms: C_1  and  C_2
REMARK    2  A    between atoms: C_6  and  N_9
REMARK    3  A    between atoms: C_7  and  C_8
REMARK    4  A    between atoms: C_13  and  C_14
REMARK    5  A    between atoms: C_17  and  N_19
REMARK                            x       y       z     vdW  Elec       q    Type
REMARK                         _______ _______ _______ _____ _____    ______ ____
ROOT
ATOM      1  N   UNL     1      -1.144   1.930   0.467  0.00  0.00    -0.190 N 
ATOM      2  C   UNL     1       0.022   1.253   0.423  0.00  0.00    +0.264 C 
ATOM      3  O   UNL     1       0.063   0.063   0.676  0.00  0.00    -0.269 OA
ATOM      4  C   UNL     1       1.241   1.988   0.057  0.00  0.00    +0.103 C 
ATOM      5  C   UNL     1       2.483   1.351  -0.014  0.00  0.00    +0.064 C 
ATOM      6  C   UNL     1       1.098   3.423  -0.231  0.00  0.00    +0.257 C 
ATOM      7  O   UNL     1       2.063   4.097  -0.541  0.00  0.00    -0.270 OA
ATOM      8  N   UNL     1      -0.131   3.973  -0.143  0.00  0.00    -0.235 N 
ATOM      9  C   UNL     1      -1.202   3.242   0.197  0.00  0.00    +0.320 C 
ATOM     10  O   UNL     1      -2.282   3.796   0.259  0.00  0.00    -0.251 OA
ATOM     11  H   UNL     1      -0.242   4.918  -0.330  0.00  0.00    +0.159 HD
ENDROOT
BRANCH   1  17
ATOM     12  C   UNL     1      -5.092  -0.654  -0.918  0.00  0.00    +0.044 C 
ATOM     13  C   UNL     1      -4.252  -0.013   0.156  0.00  0.00    -0.046 A 
ATOM     14  C   UNL     1      -4.641  -0.098   1.481  0.00  0.00    +0.004 A 
ATOM     15  C   UNL     1      -3.873   0.489   2.469  0.00  0.00    +0.002 A 
ATOM     16  C   UNL     1      -2.710   1.157   2.137  0.00  0.00    +0.024 A 
ATOM     17  C   UNL     1      -2.320   1.248   0.808  0.00  0.00    +0.049 A 
ATOM     18  C   UNL     1      -3.093   0.658  -0.182  0.00  0.00    -0.026 A 
ATOM     19  C   UNL     1      -2.670   0.750  -1.626  0.00  0.00    +0.046 C 
ENDBRANCH   1  17
BRANCH   5  20
ATOM     20  C   UNL     1       2.560  -0.037   0.084  0.00  0.00    +0.131 A 
ATOM     21  C   UNL     1       3.558  -0.757   0.736  0.00  0.00    +0.051 A 
ATOM     22  C   UNL     1       3.243  -2.103   0.588  0.00  0.00    +0.066 A 
ATOM     23  C   UNL     1       2.078  -2.169  -0.151  0.00  0.00    +0.189 A 
ATOM     24  O   UNL     1       1.683  -0.922  -0.444  0.00  0.00    -0.442 OA
BRANCH  23  25
ATOM     25  N   UNL     1       1.431  -3.323  -0.523  0.00  0.00    -0.301 N 
ATOM     26  C   UNL     1       0.967  -4.081   0.666  0.00  0.00    +0.108 C 
ATOM     27  C   UNL     1      -0.142  -4.999   0.092  0.00  0.00    +0.020 C 
ATOM     28  C   UNL     1      -0.831  -4.094  -0.956  0.00  0.00    +0.020 C 
ATOM     29  C   UNL     1       0.214  -3.019  -1.308  0.00  0.00    +0.108 C 
ENDBRANCH  23  25
ENDBRANCH   5  20
TORSDOF 3
