REMARK  Name = ZINC67626686
REMARK  6 active torsions:
REMARK  status: ('A' for Active; 'I' for Inactive)
REMARK    1  A    between atoms: C_1  and  N_2
REMARK    2  A    between atoms: N_2  and  C_3
REMARK    3  A    between atoms: C_3  and  C_4
REMARK    4  A    between atoms: N_17  and  C_18
REMARK    5  A    between atoms: N_23  and  S_25
REMARK    6  A    between atoms: S_25  and  C_28
REMARK                            x       y       z     vdW  Elec       q    Type
REMARK                         _______ _______ _______ _____ _____    ______ ____
ROOT
ATOM      1  C   UNL     1      -0.018   1.461   0.010  0.00  0.00    +0.133 C 
ATOM      2  N   UNL     1       0.002  -0.004   0.002  0.00  0.00    -0.285 N 
ATOM      3  C   UNL     1       0.000  -0.672  -1.169  0.00  0.00    +0.302 C 
ATOM      4  O   UNL     1       0.017  -1.887  -1.175  0.00  0.00    -0.253 OA
ATOM      5  N   UNL     1      -0.020   0.009  -2.332  0.00  0.00    -0.295 N 
ATOM      6  H   UNL     1      -0.033   0.978  -2.327  0.00  0.00    +0.151 HD
ENDROOT
BRANCH   5   7
ATOM      7  C   UNL     1      -0.022  -0.717  -3.605  0.00  0.00    +0.090 C 
ATOM      8  C   UNL     1       1.416  -1.058  -4.001  0.00  0.00    +0.025 C 
ATOM      9  C   UNL     1       1.413  -1.845  -5.314  0.00  0.00    +0.019 C 
ATOM     10  C   UNL     1       0.798  -0.982  -6.420  0.00  0.00    +0.109 C 
ATOM     11  N   UNL     1      -0.530  -0.529  -5.984  0.00  0.00    -0.180 NA
ATOM     12  C   UNL     1      -0.653   0.159  -4.692  0.00  0.00    +0.131 C 
BRANCH  11  13
ATOM     13  S   UNL     1      -1.863  -0.789  -6.932  0.00  0.00    +0.029 S 
ATOM     14  O   UNL     1      -2.772   0.241  -6.569  0.00  0.00    -0.158 OA
ATOM     15  O   UNL     1      -1.355  -0.873  -8.257  0.00  0.00    -0.158 OA
ATOM     16  C   UNL     1      -2.502  -2.402  -6.405  0.00  0.00    +0.215 C 
ENDBRANCH  11  13
ENDBRANCH   5   7
BRANCH   2  17
ATOM     17  C   UNL     1       0.024  -0.743   1.267  0.00  0.00    +0.157 C 
BRANCH  17  18
ATOM     18  C   UNL     1      -1.411  -1.020   1.720  0.00  0.00    +0.228 C 
ATOM     19  C   UNL     1      -1.396  -1.697   3.098  0.00  0.00    +0.275 C 
ATOM     20  O   UNL     1      -2.750  -1.954   3.486  0.00  0.00    -0.485 OA
ATOM     21  C   UNL     1      -3.560  -2.511   2.544  0.00  0.00    +0.162 A 
ATOM     22  C   UNL     1      -4.746  -3.113   2.937  0.00  0.00    +0.049 A 
ATOM     23  C   UNL     1      -5.581  -3.680   1.993  0.00  0.00    +0.004 A 
ATOM     24  C   UNL     1      -5.236  -3.648   0.654  0.00  0.00    +0.004 A 
ATOM     25  C   UNL     1      -4.055  -3.051   0.256  0.00  0.00    +0.049 A 
ATOM     26  C   UNL     1      -3.212  -2.482   1.199  0.00  0.00    +0.163 A 
ATOM     27  O   UNL     1      -2.048  -1.905   0.792  0.00  0.00    -0.480 OA
ENDBRANCH  17  18
ENDBRANCH   2  17
TORSDOF 4
