REMARK  Name = ZINC09456860
REMARK  5 active torsions:
REMARK  status: ('A' for Active; 'I' for Inactive)
REMARK    1  A    between atoms: C_1  and  O_2
REMARK    2  A    between atoms: O_2  and  C_3
REMARK    3  A    between atoms: C_6  and  C_9
REMARK    4  A    between atoms: C_9  and  C_11
REMARK    5  A    between atoms: N_24  and  C_27
REMARK                            x       y       z     vdW  Elec       q    Type
REMARK                         _______ _______ _______ _____ _____    ______ ____
ROOT
ATOM      1  C   UNL     1       2.403   0.417   1.053  0.00  0.00    +0.017 C 
ATOM      2  C   UNL     1       2.672  -1.085   1.261  0.00  0.00    +0.080 C 
ATOM      3  C   UNL     1       1.883  -1.795   0.131  0.00  0.00    +0.073 C 
ATOM      4  C   UNL     1       1.227  -0.662  -0.678  0.00  0.00    -0.055 C 
ATOM      5  C   UNL     1       1.114   1.701  -0.538  0.00  0.00    -0.077 C 
ATOM      6  C   UNL     1      -0.317   1.173  -0.337  0.00  0.00    -0.020 C 
ATOM      7  C   UNL     1      -0.157  -0.340  -0.069  0.00  0.00    -0.016 C 
ATOM      8  C   UNL     1       2.969  -2.439  -0.703  0.00  0.00    +0.228 C 
ATOM      9  O   UNL     1       2.786  -3.113  -1.693  0.00  0.00    -0.275 OA
ATOM     10  N   UNL     1       4.164  -2.148  -0.175  0.00  0.00    -0.210 N 
ATOM     11  C   UNL     1       4.115  -1.390   0.927  0.00  0.00    +0.229 C 
ATOM     12  O   UNL     1       5.077  -1.008   1.559  0.00  0.00    -0.275 OA
ATOM     13  N   UNL     1       1.993   0.528  -0.354  0.00  0.00    +0.389 N 
ATOM     14  H   UNL     1       2.818   0.606  -0.960  0.00  0.00    -0.080 HD
ENDROOT
BRANCH  10  15
ATOM     15  C   UNL     1       5.369  -2.600  -0.731  0.00  0.00    +0.044 A 
ATOM     16  C   UNL     1       6.152  -3.518  -0.042  0.00  0.00    +0.025 A 
ATOM     17  C   UNL     1       7.336  -3.966  -0.594  0.00  0.00    +0.022 A 
ATOM     18  C   UNL     1       7.748  -3.493  -1.828  0.00  0.00    +0.041 A 
ATOM     19  C   UNL     1       6.972  -2.575  -2.514  0.00  0.00    +0.022 A 
ATOM     20  C   UNL     1       5.785  -2.128  -1.968  0.00  0.00    +0.025 A 
ATOM     21 CL   UNL     1       9.240  -4.053  -2.516  0.00  0.00    -0.084 Cl
ENDBRANCH  10  15
BRANCH   1  22
ATOM     22  C   UNL     1       3.645   1.217   1.353  0.00  0.00    +0.151 C 
ATOM     23  O   UNL     1       4.299   1.685   0.445  0.00  0.00    -0.294 OA
BRANCH  22  27
ATOM     24  C   UNL     1       4.851   1.827   5.367  0.00  0.00    +0.120 A 
ATOM     25  C   UNL     1       5.602   2.366   4.328  0.00  0.00    +0.046 A 
ATOM     26  C   UNL     1       5.216   2.171   3.027  0.00  0.00    +0.015 A 
ATOM     27  C   UNL     1       4.063   1.429   2.745  0.00  0.00    +0.016 A 
ATOM     28  C   UNL     1       3.306   0.894   3.795  0.00  0.00    +0.015 A 
ATOM     29  C   UNL     1       3.704   1.089   5.093  0.00  0.00    +0.046 A 
BRANCH  24  31
ATOM     30  C   UNL     1       4.420   1.442   7.671  0.00  0.00    +0.277 C 
ATOM     31  O   UNL     1       5.237   2.023   6.653  0.00  0.00    -0.495 OA
ENDBRANCH  24  31
ENDBRANCH  22  27
ENDBRANCH   1  22
TORSDOF 4
