REMARK  Name = ZINC59388210
REMARK  8 active torsions:
REMARK  status: ('A' for Active; 'I' for Inactive)
REMARK    1  A    between atoms: C_1  and  C_2
REMARK    2  A    between atoms: C_3  and  C_13
REMARK    3  A    between atoms: C_4  and  C_7
REMARK    4  A    between atoms: C_16  and  C_18
REMARK    5  A    between atoms: C_18  and  N_19
REMARK    6  A    between atoms: N_19  and  C_20
REMARK    7  A    between atoms: N_19  and  C_29
REMARK    8  A    between atoms: C_20  and  C_21
REMARK                            x       y       z     vdW  Elec       q    Type
REMARK                         _______ _______ _______ _____ _____    ______ ____
ROOT
ATOM      1  C   UNL     1      -2.555  -0.571   0.694  0.00  0.00    +0.254 A 
ATOM      2  N   UNL     1      -3.631  -1.321   0.619  0.00  0.00    -0.107 NA
ATOM      3  N   UNL     1      -4.663  -0.569   0.462  0.00  0.00    -0.114 NA
ATOM      4  C   UNL     1      -4.291   0.680   0.429  0.00  0.00    +0.202 A 
ATOM      5  O   UNL     1      -2.955   0.712   0.580  0.00  0.00    -0.422 OA
ENDROOT
BRANCH   1   8
ATOM      6  C   UNL     1      -0.014   1.234   0.882  0.00  0.00    +0.090 C 
ATOM      7  C   UNL     1      -0.052  -0.270   0.958  0.00  0.00    +0.147 A 
ATOM      8  C   UNL     1      -1.168  -1.044   0.874  0.00  0.00    +0.108 A 
ATOM      9  C   UNL     1      -0.728  -2.441   0.998  0.00  0.00    +0.126 A 
ATOM     10  N   UNL     1       0.573  -2.420   1.143  0.00  0.00    -0.077 NA
ATOM     11  O   UNL     1       1.007  -1.074   1.114  0.00  0.00    -0.359 OA
BRANCH   9  12
ATOM     12  C   UNL     1      -1.594  -3.645   0.966  0.00  0.00    +0.004 A 
ATOM     13  C   UNL     1      -2.875  -3.600   1.512  0.00  0.00    +0.010 A 
ATOM     14  C   UNL     1      -3.676  -4.723   1.479  0.00  0.00    +0.001 A 
ATOM     15  C   UNL     1      -3.209  -5.892   0.905  0.00  0.00    +0.000 A 
ATOM     16  C   UNL     1      -1.938  -5.943   0.361  0.00  0.00    +0.001 A 
ATOM     17  C   UNL     1      -1.131  -4.824   0.384  0.00  0.00    +0.010 A 
ENDBRANCH   9  12
ENDBRANCH   1   8
BRANCH   4  18
ATOM     18  C   UNL     1      -5.196   1.873   0.260  0.00  0.00    +0.021 C 
BRANCH  18  19
ATOM     19  N   UNL     1      -5.641   2.341   1.579  0.00  0.00    +0.390 N 
ATOM     20  H   UNL     1      -6.071   1.578   2.079  0.00  0.00    -0.080 HD
BRANCH  19  21
ATOM     21  C   UNL     1      -4.485   2.835   2.339  0.00  0.00    -0.068 C 
ATOM     22  C   UNL     1      -3.964   1.960   3.481  0.00  0.00    -0.017 C 
ATOM     23  C   UNL     1      -4.720   3.253   3.791  0.00  0.00    -0.017 C 
ENDBRANCH  19  21
BRANCH  19  24
ATOM     24  C   UNL     1      -6.616   3.427   1.410  0.00  0.00    -0.039 C 
BRANCH  24  25
ATOM     25  C   UNL     1      -7.859   2.888   0.750  0.00  0.00    -0.029 A 
ATOM     26  C   UNL     1      -8.078   3.110  -0.597  0.00  0.00    +0.007 A 
ATOM     27  C   UNL     1      -9.217   2.616  -1.203  0.00  0.00    +0.039 A 
ATOM     28  C   UNL     1     -10.141   1.898  -0.462  0.00  0.00    +0.126 A 
ATOM     29  C   UNL     1      -9.922   1.675   0.886  0.00  0.00    +0.076 A 
ATOM     30  C   UNL     1      -8.778   2.166   1.491  0.00  0.00    +0.127 A 
ATOM     31  F   UNL     1      -8.561   1.944   2.806  0.00  0.00    -0.205 F 
ATOM     32  F   UNL     1     -11.255   1.416  -1.055  0.00  0.00    -0.205 F 
ENDBRANCH  24  25
ENDBRANCH  19  24
ENDBRANCH  18  19
ENDBRANCH   4  18
TORSDOF 7
