REMARK  Name = ZINC67447047
REMARK  5 active torsions:
REMARK  status: ('A' for Active; 'I' for Inactive)
REMARK    1  A    between atoms: C_1  and  N_2
REMARK    2  A    between atoms: C_6  and  S_7
REMARK    3  A    between atoms: S_7  and  C_8
REMARK    4  A    between atoms: C_11  and  C_13
REMARK    5  A    between atoms: C_13  and  N_14
REMARK                            x       y       z     vdW  Elec       q    Type
REMARK                         _______ _______ _______ _____ _____    ______ ____
ROOT
ATOM      1  N   UNL     1      -1.256  -6.025   3.826  0.00  0.00    +0.387 N 
ATOM      2  C   UNL     1      -1.912  -5.807   5.122  0.00  0.00    -0.072 C 
ATOM      3  C   UNL     1      -3.423  -6.035   4.981  0.00  0.00    +0.035 C 
ATOM      4  C   UNL     1      -3.628  -7.365   4.293  0.00  0.00    +0.017 A 
ATOM      5  C   UNL     1      -2.635  -8.004   3.633  0.00  0.00    -0.036 A 
ATOM      6  C   UNL     1      -3.193  -9.233   3.114  0.00  0.00    +0.004 A 
ATOM      7  C   UNL     1      -2.649 -10.280   2.363  0.00  0.00    +0.048 A 
ATOM      8  C   UNL     1      -3.499 -11.323   2.038  0.00  0.00    +0.124 A 
ATOM      9  C   UNL     1      -4.829 -11.335   2.435  0.00  0.00    +0.040 A 
ATOM     10  C   UNL     1      -5.386 -10.309   3.178  0.00  0.00    +0.029 A 
ATOM     11  C   UNL     1      -4.553  -9.247   3.518  0.00  0.00    +0.047 A 
ATOM     12  N   UNL     1      -4.779  -8.100   4.228  0.00  0.00    -0.358 N 
ATOM     13  H   UNL     1      -5.627  -7.846   4.625  0.00  0.00    +0.166 HD
ATOM     14  F   UNL     1      -3.021 -12.359   1.314  0.00  0.00    -0.205 F 
ATOM     15  C   UNL     1      -1.234  -7.462   3.507  0.00  0.00    -0.040 C 
ATOM     16  H   UNL     1      -1.764  -5.531   3.108  0.00  0.00    -0.081 HD
ENDROOT
BRANCH   1  17
ATOM     17  C   UNL     1       0.121  -5.518   3.885  0.00  0.00    -0.003 C 
BRANCH  17  21
ATOM     18  C   UNL     1       0.062  -1.871   3.662  0.00  0.00    +0.169 A 
ATOM     19  C   UNL     1       0.072  -2.009   5.009  0.00  0.00    +0.057 A 
ATOM     20  C   UNL     1       0.095  -3.396   5.278  0.00  0.00    +0.044 A 
ATOM     21  C   UNL     1       0.099  -4.026   4.090  0.00  0.00    +0.090 A 
ATOM     22  O   UNL     1       0.073  -3.099   3.114  0.00  0.00    -0.455 OA
BRANCH  18  23
ATOM     23  S   UNL     1       0.034  -0.347   2.779  0.00  0.00    -0.012 S 
BRANCH  23  29
ATOM     24  C   UNL     1      -0.018   1.461   0.010  0.00  0.00    +0.152 C 
ATOM     25  N   UNL     1       0.002  -0.004   0.002  0.00  0.00    -0.311 N 
ATOM     26  C   UNL     1       0.009  -0.824  -1.092  0.00  0.00    +0.225 A 
ATOM     27  N   UNL     1       0.027  -2.052  -0.657  0.00  0.00    -0.137 NA
ATOM     28  N   UNL     1       0.033  -2.065   0.628  0.00  0.00    -0.122 NA
ATOM     29  C   UNL     1       0.024  -0.834   1.086  0.00  0.00    +0.199 A 
ENDBRANCH  23  29
ENDBRANCH  18  23
ENDBRANCH  17  21
ENDBRANCH   1  17
TORSDOF 4
