REMARK  Name = ZINC65441795
REMARK  7 active torsions:
REMARK  status: ('A' for Active; 'I' for Inactive)
REMARK    1  A    between atoms: C_1  and  C_2
REMARK    2  A    between atoms: C_2  and  C_3
REMARK    3  A    between atoms: C_2  and  N_4
REMARK    4  A    between atoms: C_7  and  C_9
REMARK    5  A    between atoms: C_9  and  N_10
REMARK    6  A    between atoms: N_16  and  C_19
REMARK    7  A    between atoms: C_19  and  C_20
REMARK                            x       y       z     vdW  Elec       q    Type
REMARK                         _______ _______ _______ _____ _____    ______ ____
ROOT
ATOM      1  N   UNL     1      -5.641  -4.734   1.035  0.00  0.00    -0.299 N 
ATOM      2  C   UNL     1      -5.669  -4.430  -0.278  0.00  0.00    +0.302 C 
ATOM      3  O   UNL     1      -4.821  -3.697  -0.750  0.00  0.00    -0.253 OA
ATOM      4  N   UNL     1      -6.637  -4.937  -1.067  0.00  0.00    -0.283 N 
ATOM      5  C   UNL     1      -6.621  -4.713  -2.520  0.00  0.00    +0.124 C 
ATOM      6  C   UNL     1      -6.775  -6.065  -3.224  0.00  0.00    +0.104 C 
ATOM      7  N   UNL     1      -7.972  -6.746  -2.713  0.00  0.00    -0.291 NA
ATOM      8  C   UNL     1      -7.846  -7.043  -1.280  0.00  0.00    +0.104 C 
ATOM      9  C   UNL     1      -7.733  -5.736  -0.498  0.00  0.00    +0.124 C 
ATOM     10  H   UNL     1      -6.357  -5.258   1.427  0.00  0.00    +0.150 HD
ENDROOT
BRANCH   1  11
ATOM     11  C   UNL     1      -4.528  -4.274   1.870  0.00  0.00    +0.107 C 
BRANCH  11  15
ATOM     12  N   UNL     1      -2.895  -5.418   4.741  0.00  0.00    +0.381 N 
ATOM     13  C   UNL     1      -3.880  -6.529   4.711  0.00  0.00    -0.078 C 
ATOM     14  C   UNL     1      -4.640  -6.293   3.381  0.00  0.00    -0.015 C 
ATOM     15  C   UNL     1      -4.739  -4.752   3.308  0.00  0.00    -0.012 C 
ATOM     16  C   UNL     1      -3.607  -4.233   4.214  0.00  0.00    -0.074 C 
ATOM     17  H   UNL     1      -2.104  -5.638   4.154  0.00  0.00    -0.081 HD
BRANCH  12  19
ATOM     18  C   UNL     1      -1.718  -6.405   6.647  0.00  0.00    -0.014 C 
ATOM     19  C   UNL     1      -2.451  -5.171   6.119  0.00  0.00    -0.075 C 
ATOM     20  C   UNL     1      -1.507  -3.967   6.144  0.00  0.00    -0.014 C 
ENDBRANCH  12  19
ENDBRANCH  11  15
ENDBRANCH   1  11
BRANCH   7  21
ATOM     21  C   UNL     1      -8.252  -7.966  -3.482  0.00  0.00    +0.180 C 
BRANCH  21  22
ATOM     22  C   UNL     1      -9.607  -8.502  -3.098  0.00  0.00    +0.230 C 
ATOM     23  O   UNL     1     -10.275  -7.923  -2.267  0.00  0.00    -0.274 OA
ATOM     24  N   UNL     1     -10.078  -9.623  -3.679  0.00  0.00    -0.300 N 
ATOM     25  C   UNL     1      -9.279 -10.338  -4.684  0.00  0.00    +0.108 C 
ATOM     26  C   UNL     1      -9.150 -11.804  -4.259  0.00  0.00    +0.019 C 
ATOM     27  C   UNL     1     -10.546 -12.390  -4.033  0.00  0.00    +0.003 C 
ATOM     28  C   UNL     1     -11.248 -11.622  -2.911  0.00  0.00    +0.019 C 
ATOM     29  C   UNL     1     -11.398 -10.157  -3.316  0.00  0.00    +0.108 C 
ENDBRANCH  21  22
ENDBRANCH   7  21
TORSDOF 5
