REMARK  Name = ZINC14463865
REMARK  3 active torsions:
REMARK  status: ('A' for Active; 'I' for Inactive)
REMARK    1  A    between atoms: C_10  and  C_11
REMARK    2  A    between atoms: C_22  and  N_28
REMARK    3  A    between atoms: C_24  and  O_27
REMARK                            x       y       z     vdW  Elec       q    Type
REMARK                         _______ _______ _______ _____ _____    ______ ____
ROOT
ATOM      1  C   UNL     1      -1.999   0.681  -1.443  0.00  0.00    +0.106 C 
ATOM      2  C   UNL     1      -0.510   0.867  -1.140  0.00  0.00    +0.029 C 
ATOM      3  C   UNL     1      -0.059  -0.315  -0.235  0.00  0.00    +0.033 C 
ATOM      4  C   UNL     1      -0.480   0.118   1.156  0.00  0.00    -0.030 C 
ATOM      5  C   UNL     1      -0.637   1.420   1.202  0.00  0.00    -0.023 C 
ATOM      6  C   UNL     1      -0.345   2.037  -0.146  0.00  0.00    +0.049 C 
ATOM      7  C   UNL     1      -1.309   3.149  -0.440  0.00  0.00    -0.014 A 
ATOM      8  C   UNL     1      -1.171   4.335   0.271  0.00  0.00    +0.039 A 
ATOM      9  C   UNL     1      -2.027   5.394   0.050  0.00  0.00    +0.130 A 
ATOM     10  C   UNL     1      -3.037   5.283  -0.888  0.00  0.00    +0.080 A 
ATOM     11  C   UNL     1      -3.184   4.108  -1.602  0.00  0.00    +0.140 A 
ATOM     12  C   UNL     1      -2.317   3.034  -1.378  0.00  0.00    +0.074 A 
ATOM     13  N   UNL     1      -2.508   1.870  -2.127  0.00  0.00    -0.334 N 
ATOM     14  H   UNL     1      -3.479   1.756  -2.377  0.00  0.00    +0.147 HD
ENDROOT
BRANCH   1  24
ATOM     15  C   UNL     1      -3.415  -3.349   1.378  0.00  0.00    +0.001 A 
ATOM     16  C   UNL     1      -2.715  -3.185   0.184  0.00  0.00    +0.001 A 
ATOM     17  C   UNL     1      -2.489  -1.946  -0.332  0.00  0.00    +0.009 A 
ATOM     18  C   UNL     1      -2.967  -0.813   0.348  0.00  0.00    -0.013 A 
ATOM     19  C   UNL     1      -3.679  -0.979   1.562  0.00  0.00    -0.018 A 
ATOM     20  C   UNL     1      -3.893  -2.275   2.063  0.00  0.00    +0.008 A 
ATOM     21  C   UNL     1      -4.157   0.154   2.242  0.00  0.00    +0.008 A 
ATOM     22  C   UNL     1      -3.931   1.393   1.726  0.00  0.00    +0.001 A 
ATOM     23  C   UNL     1      -3.227   1.557   0.535  0.00  0.00    +0.006 A 
ATOM     24  C   UNL     1      -2.754   0.483  -0.153  0.00  0.00    -0.019 A 
ENDBRANCH   1  24
BRANCH   9  25
ATOM     25  N   UNL     1      -1.864   6.649   0.817  0.00  0.00    +0.057 N 
ATOM     26  O   UNL     1      -2.619   7.584   0.622  0.00  0.00    -0.126 OA
ATOM     27  O   UNL     1      -0.974   6.747   1.643  0.00  0.00    -0.126 OA
ENDBRANCH   9  25
BRANCH  11  28
ATOM     28  O   UNL     1      -4.177   3.996  -2.525  0.00  0.00    -0.505 OA
ATOM     29  H   UNL     1      -5.008   3.654  -2.169  0.00  0.00    +0.292 HD
ENDBRANCH  11  28
TORSDOF 3
