REMARK  Name = ZINC63479514
REMARK  3 active torsions:
REMARK  status: ('A' for Active; 'I' for Inactive)
REMARK    1  A    between atoms: C_1  and  C_2
REMARK    2  A    between atoms: C_7  and  C_10
REMARK    3  A    between atoms: C_11  and  C_13
REMARK                            x       y       z     vdW  Elec       q    Type
REMARK                         _______ _______ _______ _____ _____    ______ ____
ROOT
ATOM      1  C   UNL     1       4.228   0.867  -2.031  0.00  0.00    +0.190 C 
ATOM      2  C   UNL     1       4.424   1.833  -0.884  0.00  0.00    +0.016 C 
ATOM      3  C   UNL     1       4.939   2.959  -1.426  0.00  0.00    -0.002 A 
ATOM      4  C   UNL     1       5.345   4.246  -0.848  0.00  0.00    +0.025 A 
ATOM      5  C   UNL     1       5.837   5.207  -1.663  0.00  0.00    +0.019 A 
ATOM      6  C   UNL     1       5.970   5.003  -3.045  0.00  0.00    +0.017 A 
ATOM      7  C   UNL     1       5.619   3.848  -3.649  0.00  0.00    +0.027 A 
ATOM      8  C   UNL     1       5.089   2.771  -2.887  0.00  0.00    +0.043 A 
ATOM      9  N   UNL     1       4.683   1.572  -3.235  0.00  0.00    -0.370 N 
ATOM     10 BR   UNL     1       6.361   6.865  -0.922  0.00  0.00    -0.050 Br
ATOM     11  H   UNL     1       4.683   1.212  -4.135  0.00  0.00    +0.161 HD
ENDROOT
BRANCH   1  20
ATOM     12  C   UNL     1      -0.019   1.526   0.010  0.00  0.00    +0.039 C 
ATOM     13  C   UNL     1       0.002  -0.004   0.002  0.00  0.00    +0.133 C 
ATOM     14  C   UNL     1       0.722  -0.499  -1.258  0.00  0.00    +0.139 C 
ATOM     15  N   UNL     1       2.143  -0.135  -1.154  0.00  0.00    -0.295 N 
ATOM     16  C   UNL     1       2.860  -0.488   0.082  0.00  0.00    +0.139 C 
ATOM     17  C   UNL     1       2.036   0.007   1.277  0.00  0.00    +0.133 C 
ATOM     18  O   UNL     1       0.695  -0.479   1.159  0.00  0.00    -0.371 OA
ATOM     19  C   UNL     1       2.656  -0.513   2.575  0.00  0.00    +0.039 C 
ATOM     20  C   UNL     1       2.771   0.504  -2.161  0.00  0.00    +0.242 C 
ATOM     21  O   UNL     1       2.164   0.786  -3.172  0.00  0.00    -0.273 OA
ENDBRANCH   1  20
TORSDOF 1
