REMARK  Name = ZINC54823292
REMARK  7 active torsions:
REMARK  status: ('A' for Active; 'I' for Inactive)
REMARK    1  A    between atoms: C_1  and  O_2
REMARK    2  A    between atoms: O_2  and  C_3
REMARK    3  A    between atoms: C_5  and  N_12
REMARK    4  A    between atoms: C_6  and  O_10
REMARK    5  A    between atoms: O_10  and  C_11
REMARK    6  A    between atoms: N_12  and  C_13
REMARK    7  A    between atoms: C_18  and  C_20
REMARK                            x       y       z     vdW  Elec       q    Type
REMARK                         _______ _______ _______ _____ _____    ______ ____
ROOT
ATOM      1  C   UNL     1      -1.201  -0.638   0.010  0.00  0.00    +0.140 A 
ATOM      2  C   UNL     1      -2.374   0.102   0.019  0.00  0.00    +0.073 A 
ATOM      3  C   UNL     1      -3.600  -0.545   0.027  0.00  0.00    +0.073 A 
ATOM      4  C   UNL     1      -3.651  -1.938   0.026  0.00  0.00    +0.142 A 
ATOM      5  C   UNL     1      -2.477  -2.672   0.016  0.00  0.00    +0.071 A 
ATOM      6  C   UNL     1      -1.254  -2.024   0.003  0.00  0.00    +0.086 A 
ATOM      7 CL   UNL     1       0.215  -2.948  -0.016  0.00  0.00    -0.080 Cl
ENDROOT
BRANCH   1   9
ATOM      8  C   UNL     1      -0.017   1.425   0.010  0.00  0.00    +0.277 C 
ATOM      9  O   UNL     1       0.002  -0.004   0.002  0.00  0.00    -0.494 OA
ENDBRANCH   1   9
BRANCH   4  10
ATOM     10  O   UNL     1      -4.853  -2.575   0.034  0.00  0.00    -0.493 OA
ATOM     11  C   UNL     1      -4.830  -4.004   0.032  0.00  0.00    +0.277 C 
ENDBRANCH   4  10
BRANCH   3  12
ATOM     12  N   UNL     1      -4.786   0.199   0.037  0.00  0.00    -0.337 N 
ATOM     13  H   UNL     1      -5.644  -0.254   0.043  0.00  0.00    +0.146 HD
BRANCH  12  14
ATOM     14  C   UNL     1      -4.731   1.663   0.039  0.00  0.00    +0.087 C 
ATOM     15  C   UNL     1      -4.649   2.191  -1.408  0.00  0.00    +0.023 C 
ATOM     16  C   UNL     1      -6.117   2.516  -1.778  0.00  0.00    +0.003 C 
ATOM     17  C   UNL     1      -6.683   3.095  -0.457  0.00  0.00    +0.020 C 
ATOM     18  C   UNL     1      -6.024   2.238   0.645  0.00  0.00    +0.112 C 
BRANCH  18  19
ATOM     19  C   UNL     1      -5.705   3.075   1.813  0.00  0.00    +0.068 C 
ATOM     20  N   UNL     1      -5.459   3.721   2.714  0.00  0.00    -0.196 NA
ENDBRANCH  18  19
ENDBRANCH  12  14
ENDBRANCH   3  12
TORSDOF 5
