REMARK  Name = ZINC07933456
REMARK  8 active torsions:
REMARK  status: ('A' for Active; 'I' for Inactive)
REMARK    1  A    between atoms: C_1  and  C_2
REMARK    2  A    between atoms: C_5  and  C_27
REMARK    3  A    between atoms: C_6  and  N_8
REMARK    4  A    between atoms: C_9  and  C_11
REMARK    5  A    between atoms: C_11  and  C_13
REMARK    6  A    between atoms: C_11  and  S_14
REMARK    7  A    between atoms: S_14  and  C_15
REMARK    8  A    between atoms: N_19  and  C_20
REMARK                            x       y       z     vdW  Elec       q    Type
REMARK                         _______ _______ _______ _____ _____    ______ ____
ROOT
ATOM      1  C   UNL     1       4.858   1.485  -0.251  0.00  0.00    +0.137 C 
ATOM      2  C   UNL     1       5.316   1.011   1.130  0.00  0.00    +0.029 C 
ENDROOT
BRANCH   1   4
ATOM      3  N   UNL     1       2.397   1.533  -0.012  0.00  0.00    -0.284 N 
ATOM      4  C   UNL     1       3.550   2.222  -0.121  0.00  0.00    +0.230 C 
ATOM      5  O   UNL     1       3.535   3.434  -0.115  0.00  0.00    -0.274 OA
ATOM      6  H   UNL     1       2.413   0.565   0.049  0.00  0.00    +0.155 HD
BRANCH   3  12
ATOM      7  C   UNL     1      -0.223   5.477   1.315  0.00  0.00    +0.044 C 
ATOM      8  C   UNL     1      -0.123   4.128   0.650  0.00  0.00    -0.049 A 
ATOM      9  C   UNL     1      -1.241   3.562   0.064  0.00  0.00    +0.004 A 
ATOM     10  C   UNL     1      -1.153   2.327  -0.551  0.00  0.00    +0.005 A 
ATOM     11  C   UNL     1       0.050   1.650  -0.573  0.00  0.00    -0.029 A 
ATOM     12  C   UNL     1       1.175   2.215   0.013  0.00  0.00    +0.037 A 
ATOM     13  C   UNL     1       1.084   3.458   0.626  0.00  0.00    +0.027 A 
ATOM     14  C   UNL     1       0.144   0.301  -1.239  0.00  0.00    +0.045 C 
ENDBRANCH   3  12
ENDBRANCH   1   4
BRANCH   1  15
ATOM     15  S   UNL     1       6.107   2.591  -0.954  0.00  0.00    -0.072 S 
BRANCH  15  16
ATOM     16  C   UNL     1       7.449   1.463  -1.132  0.00  0.00    +0.215 A 
ATOM     17  N   UNL     1       7.448   0.188  -0.808  0.00  0.00    -0.101 NA
ATOM     18  N   UNL     1       8.587  -0.344  -1.071  0.00  0.00    -0.022 NA
ATOM     19  N   UNL     1       9.392   0.532  -1.565  0.00  0.00    -0.038 NA
ATOM     20  N   UNL     1       8.686   1.746  -1.626  0.00  0.00    -0.187 N 
BRANCH  20  21
ATOM     21  C   UNL     1       9.154   2.982  -2.095  0.00  0.00    +0.071 A 
ATOM     22  C   UNL     1       8.296   3.841  -2.769  0.00  0.00    +0.028 A 
ATOM     23  C   UNL     1       8.758   5.060  -3.224  0.00  0.00    +0.003 A 
ATOM     24  C   UNL     1      10.077   5.422  -3.020  0.00  0.00    +0.020 A 
ATOM     25  C   UNL     1      10.936   4.566  -2.353  0.00  0.00    +0.043 A 
ATOM     26  C   UNL     1      10.478   3.347  -1.890  0.00  0.00    +0.048 A 
ATOM     27 CL   UNL     1      12.591   5.024  -2.099  0.00  0.00    -0.083 Cl
ENDBRANCH  20  21
ENDBRANCH  15  16
ENDBRANCH   1  15
TORSDOF 5
