REMARK  Name = ZINC40837716
REMARK  3 active torsions:
REMARK  status: ('A' for Active; 'I' for Inactive)
REMARK    1  A    between atoms: C_11  and  C_13
REMARK    2  A    between atoms: C_13  and  C_14
REMARK    3  A    between atoms: C_14  and  N_15
REMARK                            x       y       z     vdW  Elec       q    Type
REMARK                         _______ _______ _______ _____ _____    ______ ____
ROOT
ATOM      1  N   UNL     1       5.979   3.377  -1.506  0.00  0.00    -0.303 N 
ATOM      2  C   UNL     1       5.803   3.725  -2.833  0.00  0.00    +0.070 A 
ATOM      3  C   UNL     1       5.628   2.738  -3.799  0.00  0.00    +0.028 A 
ATOM      4  C   UNL     1       5.454   3.092  -5.119  0.00  0.00    +0.002 A 
ATOM      5  C   UNL     1       5.451   4.429  -5.494  0.00  0.00    +0.002 A 
ATOM      6  C   UNL     1       5.621   5.413  -4.564  0.00  0.00    +0.030 A 
ATOM      7  C   UNL     1       5.800   5.078  -3.214  0.00  0.00    +0.090 A 
ATOM      8  N   UNL     1       5.968   6.051  -2.294  0.00  0.00    -0.225 NA
ATOM      9  C   UNL     1       6.137   5.762  -1.030  0.00  0.00    +0.188 A 
ATOM     10  C   UNL     1       6.141   4.354  -0.588  0.00  0.00    +0.292 A 
ATOM     11  O   UNL     1       6.293   4.077   0.588  0.00  0.00    -0.264 OA
ATOM     12  N   UNL     1       6.307   6.777  -0.105  0.00  0.00    -0.311 N 
ATOM     13  C   UNL     1       6.671   6.470   1.285  0.00  0.00    +0.106 C 
ATOM     14  C   UNL     1       7.921   7.274   1.656  0.00  0.00    +0.019 C 
ATOM     15  C   UNL     1       7.667   8.759   1.386  0.00  0.00    +0.003 C 
ATOM     16  C   UNL     1       7.383   8.967  -0.103  0.00  0.00    +0.019 C 
ATOM     17  C   UNL     1       6.133   8.182  -0.496  0.00  0.00    +0.106 C 
ENDROOT
BRANCH   1  18
ATOM     18  C   UNL     1       5.983   1.969  -1.101  0.00  0.00    +0.135 C 
BRANCH  18  19
ATOM     19  C   UNL     1       4.556   1.532  -0.764  0.00  0.00    +0.118 C 
BRANCH  19  30
ATOM     20  C   UNL     1       3.385  -4.644   0.677  0.00  0.00    +0.000 A 
ATOM     21  C   UNL     1       4.512  -4.041   0.150  0.00  0.00    +0.002 A 
ATOM     22  C   UNL     1       4.510  -2.684  -0.107  0.00  0.00    +0.024 A 
ATOM     23  C   UNL     1       3.376  -1.927   0.163  0.00  0.00    +0.039 A 
ATOM     24  C   UNL     1       2.246  -2.533   0.688  0.00  0.00    -0.026 A 
ATOM     25  C   UNL     1       2.257  -3.894   0.945  0.00  0.00    +0.005 A 
ATOM     26  C   UNL     1       0.996  -1.746   0.983  0.00  0.00    +0.038 C 
ATOM     27  C   UNL     1       1.320  -0.258   1.122  0.00  0.00    +0.024 C 
ATOM     28  C   UNL     1       2.127   0.191  -0.103  0.00  0.00    +0.114 C 
ATOM     29  N   UNL     1       3.396  -0.550  -0.101  0.00  0.00    -0.271 N 
ATOM     30  C   UNL     1       4.560   0.083  -0.348  0.00  0.00    +0.221 C 
ATOM     31  O   UNL     1       5.610  -0.512  -0.235  0.00  0.00    -0.275 OA
ENDBRANCH  19  30
ENDBRANCH  18  19
ENDBRANCH   1  18
TORSDOF 3
