REMARK  Name = ZINC14008461
REMARK  3 active torsions:
REMARK  status: ('A' for Active; 'I' for Inactive)
REMARK    1  A    between atoms: C_4  and  N_7
REMARK    2  A    between atoms: C_19  and  C_21
REMARK    3  A    between atoms: C_21  and  C_22
REMARK                            x       y       z     vdW  Elec       q    Type
REMARK                         _______ _______ _______ _____ _____    ______ ____
ROOT
ATOM      1  N   UNL     1       0.653   2.740  -0.284  0.00  0.00    -0.214 N 
ATOM      2  C   UNL     1      -0.697   2.885  -0.187  0.00  0.00    +0.171 A 
ATOM      3  C   UNL     1      -1.247   1.593  -0.225  0.00  0.00    +0.103 A 
ATOM      4  C   UNL     1      -0.169   0.690  -0.340  0.00  0.00    +0.150 A 
ATOM      5  N   UNL     1       0.941   1.373  -0.377  0.00  0.00    -0.172 NA
ATOM      6  C   UNL     1      -2.648   1.446  -0.146  0.00  0.00    +0.266 A 
ATOM      7  O   UNL     1      -3.149   0.336  -0.175  0.00  0.00    -0.267 OA
ATOM      8  N   UNL     1      -3.447   2.558  -0.038  0.00  0.00    -0.283 N 
ATOM      9  C   UNL     1      -2.827   3.774  -0.012  0.00  0.00    +0.174 A 
ATOM     10  N   UNL     1      -1.524   3.929  -0.075  0.00  0.00    -0.203 NA
ATOM     11  S   UNL     1      -4.110   5.000   0.133  0.00  0.00    -0.085 S 
ATOM     12  C   UNL     1      -5.572   3.899   0.164  0.00  0.00    +0.103 C 
ATOM     13  C   UNL     1      -4.906   2.520   0.050  0.00  0.00    +0.112 C 
ENDROOT
BRANCH   1  17
ATOM     14  C   UNL     1       3.447   5.833  -0.307  0.00  0.00    +0.000 A 
ATOM     15  C   UNL     1       3.756   4.628   0.298  0.00  0.00    +0.002 A 
ATOM     16  C   UNL     1       2.832   3.602   0.308  0.00  0.00    +0.028 A 
ATOM     17  C   UNL     1       1.592   3.780  -0.292  0.00  0.00    +0.068 A 
ATOM     18  C   UNL     1       1.287   4.988  -0.904  0.00  0.00    +0.028 A 
ATOM     19  C   UNL     1       2.213   6.013  -0.905  0.00  0.00    +0.002 A 
ENDBRANCH   1  17
BRANCH  13  20
ATOM     20  C   UNL     1      -5.297   1.689   1.274  0.00  0.00    +0.122 C 
BRANCH  20  21
ATOM     21  C   UNL     1      -6.793   1.510   1.302  0.00  0.00    +0.221 C 
ATOM     22  O   UNL     1      -7.468   1.903   0.375  0.00  0.00    -0.275 OA
ATOM     23  N   UNL     1      -7.380   0.912   2.358  0.00  0.00    -0.265 N 
ATOM     24  C   UNL     1      -8.752   0.747   2.383  0.00  0.00    +0.156 C 
ATOM     25  N   UNL     1      -9.598   1.117   1.477  0.00  0.00    -0.262 NA
ATOM     26  C   UNL     1     -11.018   0.886   1.612  0.00  0.00    +0.155 C 
ATOM     27  C   UNL     1     -11.385   0.178   2.935  0.00  0.00    +0.100 C 
ATOM     28  S   UNL     1      -9.717  -0.011   3.675  0.00  0.00    -0.089 S 
ATOM     29  H   UNL     1      -6.840   0.598   3.099  0.00  0.00    +0.157 HD
ENDBRANCH  20  21
ENDBRANCH  13  20
TORSDOF 3
