REMARK  Name = ZINC34954494
REMARK  6 active torsions:
REMARK  status: ('A' for Active; 'I' for Inactive)
REMARK    1  A    between atoms: C_1  and  N_2
REMARK    2  A    between atoms: C_9  and  C_21
REMARK    3  A    between atoms: C_11  and  C_17
REMARK    4  A    between atoms: C_11  and  C_19
REMARK    5  A    between atoms: C_12  and  N_16
REMARK    6  A    between atoms: C_13  and  C_14
REMARK                            x       y       z     vdW  Elec       q    Type
REMARK                         _______ _______ _______ _____ _____    ______ ____
ROOT
ATOM      1  C   UNL     1       1.864   0.866   0.102  0.00  0.00    +0.105 C 
ATOM      2  N   UNL     1       1.333  -0.503   0.107  0.00  0.00    -0.301 NA
ATOM      3  C   UNL     1       1.932  -1.306  -0.975  0.00  0.00    +0.111 C 
ATOM      4  C   UNL     1       1.211  -2.631  -1.012  0.00  0.00    -0.007 C 
ATOM      5  C   UNL     1       0.756  -3.165   0.106  0.00  0.00    -0.027 C 
ATOM      6  C   UNL     1       0.965  -2.539   1.455  0.00  0.00    +0.041 C 
ATOM      7  C   UNL     1       1.560  -1.151   1.402  0.00  0.00    +0.093 C 
ATOM      8  C   UNL     1      -0.369  -2.566   2.203  0.00  0.00    +0.044 C 
ATOM      9  C   UNL     1      -0.784  -4.021   2.421  0.00  0.00    +0.185 C 
ATOM     10  C   UNL     1      -0.727  -4.814   1.151  0.00  0.00    +0.054 C 
ATOM     11  C   UNL     1      -0.005  -4.439   0.064  0.00  0.00    +0.074 C 
ENDROOT
BRANCH   8  12
ATOM     12  C   UNL     1      -0.213  -1.867   3.555  0.00  0.00    +0.018 C 
ATOM     13  C   UNL     1       1.142  -2.235   4.163  0.00  0.00    +0.008 C 
ATOM     14  C   UNL     1       1.172  -1.743   5.616  0.00  0.00    +0.005 C 
ATOM     15  C   UNL     1       0.163  -2.561   6.425  0.00  0.00    +0.027 C 
ATOM     16  C   UNL     1      -1.161  -2.594   5.718  0.00  0.00    -0.031 C 
ATOM     17  C   UNL     1      -1.321  -2.299   4.470  0.00  0.00    -0.027 C 
ENDBRANCH   8  12
BRANCH  10  18
ATOM     18  N   UNL     1      -1.439  -5.979   1.083  0.00  0.00    -0.358 N 
ATOM     19  H   UNL     1      -1.963  -6.272   1.845  0.00  0.00    +0.142 HD
ATOM     20  H   UNL     1      -1.420  -6.512   0.273  0.00  0.00    +0.142 HD
ENDBRANCH  10  18
BRANCH  11  21
ATOM     21  C   UNL     1       0.022  -5.261  -1.108  0.00  0.00    +0.101 C 
ATOM     22  N   UNL     1       0.043  -5.913  -2.038  0.00  0.00    -0.191 NA
ENDBRANCH  11  21
BRANCH   9  23
ATOM     23  C   UNL     1      -2.160  -4.054   2.945  0.00  0.00    +0.091 C 
ATOM     24  N   UNL     1      -3.221  -4.080   3.349  0.00  0.00    -0.195 NA
ENDBRANCH   9  23
BRANCH   9  25
ATOM     25  C   UNL     1       0.117  -4.634   3.410  0.00  0.00    +0.091 C 
ATOM     26  N   UNL     1       0.814  -5.107   4.173  0.00  0.00    -0.195 NA
ENDBRANCH   9  25
TORSDOF 5
