REMARK  Name = ZINC48670722
REMARK  3 active torsions:
REMARK  status: ('A' for Active; 'I' for Inactive)
REMARK    1  A    between atoms: C_3  and  S_11
REMARK    2  A    between atoms: C_6  and  N_7
REMARK    3  A    between atoms: S_11  and  N_14
REMARK                            x       y       z     vdW  Elec       q    Type
REMARK                         _______ _______ _______ _____ _____    ______ ____
ROOT
ATOM      1  C   UNL     1      -0.017   1.378   0.010  0.00  0.00    +0.035 A 
ATOM      2  C   UNL     1       1.171   2.087   0.002  0.00  0.00    +0.034 A 
ATOM      3  C   UNL     1       2.377   1.414  -0.013  0.00  0.00    +0.141 A 
ATOM      4  C   UNL     1       2.397   0.029  -0.021  0.00  0.00    +0.152 A 
ATOM      5  C   UNL     1       1.208  -0.679  -0.013  0.00  0.00    +0.073 A 
ATOM      6  C   UNL     1       0.002  -0.004   0.002  0.00  0.00    +0.129 A 
ATOM      7  F   UNL     1       3.577  -0.630  -0.037  0.00  0.00    -0.203 F 
ENDROOT
BRANCH   6   8
ATOM      8  N   UNL     1      -1.270  -0.761   0.011  0.00  0.00    +0.057 N 
ATOM      9  O   UNL     1      -2.325  -0.171   0.024  0.00  0.00    -0.126 OA
ATOM     10  O   UNL     1      -1.254  -1.970   0.004  0.00  0.00    -0.126 OA
ENDBRANCH   6   8
BRANCH   3  11
ATOM     11  S   UNL     1       3.890   2.317  -0.024  0.00  0.00    +0.064 S 
ATOM     12  O   UNL     1       4.688   1.761  -1.061  0.00  0.00    -0.153 OA
ATOM     13  O   UNL     1       3.541   3.694   0.013  0.00  0.00    -0.153 OA
BRANCH  11  14
ATOM     14  N   UNL     1       4.668   1.987   1.400  0.00  0.00    -0.175 NA
ATOM     15  C   UNL     1       4.417   2.827   2.572  0.00  0.00    +0.120 C 
ATOM     16  C   UNL     1       3.716   1.997   3.654  0.00  0.00    +0.086 C 
ATOM     17  S   UNL     1       4.755   0.558   4.048  0.00  0.00    -0.158 S 
ATOM     18  C   UNL     1       5.037  -0.205   2.422  0.00  0.00    +0.086 C 
ATOM     19  C   UNL     1       5.593   0.855   1.473  0.00  0.00    +0.120 C 
ENDBRANCH  11  14
ENDBRANCH   3  11
TORSDOF 3
