REMARK  Name = ZINC25668174
REMARK  2 active torsions:
REMARK  status: ('A' for Active; 'I' for Inactive)
REMARK    1  A    between atoms: C_4  and  C_7
REMARK    2  A    between atoms: C_22  and  C_25
REMARK                            x       y       z     vdW  Elec       q    Type
REMARK                         _______ _______ _______ _____ _____    ______ ____
ROOT
ATOM      1  C   UNL     1       3.711  -0.707  -0.039  0.00  0.00    +0.282 C 
ATOM      2  O   UNL     1       3.774  -1.514  -1.210  0.00  0.00    -0.345 OA
ATOM      3  C   UNL     1       5.037  -2.150  -1.483  0.00  0.00    +0.197 C 
ATOM      4  C   UNL     1       6.076  -1.045  -1.496  0.00  0.00    +0.179 C 
ATOM      5  C   UNL     1       6.040  -0.392  -0.083  0.00  0.00    +0.186 C 
ATOM      6  O   UNL     1       4.783   0.251   0.020  0.00  0.00    -0.339 OA
ATOM      7  C   UNL     1       7.283   0.496  -0.148  0.00  0.00    +0.209 C 
ATOM      8  C   UNL     1       8.191  -0.257  -1.168  0.00  0.00    +0.285 C 
ATOM      9  O   UNL     1       7.443  -1.411  -1.627  0.00  0.00    -0.340 OA
ATOM     10  O   UNL     1       9.312  -0.717  -0.389  0.00  0.00    -0.316 OA
ATOM     11  C   UNL     1       8.827  -0.765   0.969  0.00  0.00    +0.285 C 
ATOM     12  O   UNL     1       7.998   0.409   1.101  0.00  0.00    -0.336 OA
ENDROOT
BRANCH   1  16
ATOM     13  C   UNL     1      -0.017   1.378   0.010  0.00  0.00    +0.000 A 
ATOM     14  C   UNL     1       1.171   2.086   0.002  0.00  0.00    +0.000 A 
ATOM     15  C   UNL     1       2.377   1.411  -0.014  0.00  0.00    +0.008 A 
ATOM     16  C   UNL     1       2.396   0.029  -0.022  0.00  0.00    +0.008 A 
ATOM     17  C   UNL     1       1.208  -0.679  -0.014  0.00  0.00    +0.008 A 
ATOM     18  C   UNL     1       0.002  -0.004   0.002  0.00  0.00    +0.000 A 
ENDBRANCH   1  16
BRANCH  11  19
ATOM     19  C   UNL     1       9.978  -0.711   1.940  0.00  0.00    +0.008 A 
ATOM     20  C   UNL     1      10.079   0.339   2.834  0.00  0.00    +0.008 A 
ATOM     21  C   UNL     1      11.132   0.386   3.729  0.00  0.00    +0.000 A 
ATOM     22  C   UNL     1      12.089  -0.611   3.722  0.00  0.00    +0.000 A 
ATOM     23  C   UNL     1      11.991  -1.658   2.824  0.00  0.00    +0.000 A 
ATOM     24  C   UNL     1      10.935  -1.708   1.933  0.00  0.00    +0.008 A 
ENDBRANCH  11  19
TORSDOF 2
