REMARK  Name = ZINC63348966
REMARK  3 active torsions:
REMARK  status: ('A' for Active; 'I' for Inactive)
REMARK    1  A    between atoms: C_6  and  C_11
REMARK    2  A    between atoms: C_11  and  C_12
REMARK    3  A    between atoms: C_12  and  N_13
REMARK                            x       y       z     vdW  Elec       q    Type
REMARK                         _______ _______ _______ _____ _____    ______ ____
ROOT
ATOM      1  N   UNL     1       5.000  -3.595  -1.503  0.00  0.00    -0.274 N 
ATOM      2  C   UNL     1       4.096  -4.640  -1.605  0.00  0.00    +0.076 C 
ATOM      3  C   UNL     1       4.475  -5.880  -1.806  0.00  0.00    +0.020 C 
ATOM      4  C   UNL     1       5.913  -6.263  -1.948  0.00  0.00    +0.171 C 
ATOM      5  C   UNL     1       6.815  -5.148  -1.475  0.00  0.00    +0.057 C 
ATOM      6  H   UNL     1       9.430  -6.984  -1.196  0.00  0.00    +0.154 HD
ATOM      7  C   UNL     1       6.323  -3.825  -1.420  0.00  0.00    +0.250 C 
ATOM      8  O   UNL     1       7.097  -2.893  -1.294  0.00  0.00    -0.270 OA
ATOM      9  C   UNL     1       8.074  -5.420  -1.060  0.00  0.00    +0.086 C 
ATOM     10  N   UNL     1       8.507  -6.736  -1.032  0.00  0.00    -0.290 N 
ATOM     11  C   UNL     1       7.520  -7.678  -0.752  0.00  0.00    +0.218 A 
ATOM     12  N   UNL     1       6.245  -7.449  -1.167  0.00  0.00    -0.221 N 
ATOM     13  N   UNL     1       5.495  -8.522  -0.714  0.00  0.00    -0.156 NA
ATOM     14  C   UNL     1       6.319  -9.315  -0.070  0.00  0.00    +0.247 A 
ATOM     15  N   UNL     1       7.539  -8.812  -0.121  0.00  0.00    -0.201 NA
ENDROOT
BRANCH   1  16
ATOM     16  C   UNL     1       4.508  -2.215  -1.491  0.00  0.00    +0.118 C 
BRANCH  16  17
ATOM     17  C   UNL     1       4.231  -1.785  -0.049  0.00  0.00    +0.052 C 
BRANCH  17  23
ATOM     18  C   UNL     1      -0.017   1.399   0.010  0.00  0.00    +0.022 A 
ATOM     19  C   UNL     1       1.109   2.143   0.003  0.00  0.00    +0.027 A 
ATOM     20  C   UNL     1       2.385   1.516  -0.013  0.00  0.00    +0.043 A 
ATOM     21  N   UNL     1       3.600   2.009  -0.022  0.00  0.00    -0.380 N 
ATOM     22  C   UNL     1       4.557   0.897  -0.038  0.00  0.00    +0.144 C 
ATOM     23  C   UNL     1       3.724  -0.366  -0.036  0.00  0.00    -0.040 C 
ATOM     24  C   UNL     1       2.433   0.036  -0.021  0.00  0.00    +0.000 A 
ATOM     25  C   UNL     1       1.163  -0.699  -0.013  0.00  0.00    +0.030 A 
ATOM     26  C   UNL     1       0.002  -0.004   0.002  0.00  0.00    +0.042 A 
ATOM     27 CL   UNL     1      -1.502  -0.870   0.012  0.00  0.00    -0.084 Cl
ATOM     28  H   UNL     1       3.828   2.952  -0.020  0.00  0.00    +0.160 HD
ENDBRANCH  17  23
ENDBRANCH  16  17
ENDBRANCH   1  16
TORSDOF 3
