REMARK  Name = ZINC58343041
REMARK  4 active torsions:
REMARK  status: ('A' for Active; 'I' for Inactive)
REMARK    1  A    between atoms: C_4  and  C_7
REMARK    2  A    between atoms: C_7  and  C_8
REMARK    3  A    between atoms: C_11  and  O_28
REMARK    4  A    between atoms: C_12  and  C_14
REMARK                            x       y       z     vdW  Elec       q    Type
REMARK                         _______ _______ _______ _____ _____    ______ ____
ROOT
ATOM      1  C   UNL     1       3.815  -3.595   4.027  0.00  0.00    +0.250 C 
ATOM      2  O   UNL     1       4.662  -4.404   4.356  0.00  0.00    -0.270 OA
ATOM      3  N   UNL     1       2.518  -3.823   4.311  0.00  0.00    -0.297 N 
ATOM      4  C   UNL     1       2.122  -4.996   5.103  0.00  0.00    +0.110 C 
ATOM      5  C   UNL     1       1.278  -4.525   6.292  0.00  0.00    +0.054 C 
ATOM      6  C   UNL     1       0.120  -3.672   5.785  0.00  0.00    +0.115 C 
ATOM      7  C   UNL     1       0.636  -2.449   5.035  0.00  0.00    +0.054 C 
ATOM      8  C   UNL     1       1.476  -2.901   3.841  0.00  0.00    +0.110 C 
ATOM      9  C   UNL     1      -0.767  -3.250   6.934  0.00  0.00    +0.244 C 
ATOM     10  O   UNL     1      -0.457  -2.574   7.891  0.00  0.00    -0.273 OA
ATOM     11  N   UNL     1      -1.978  -3.785   6.669  0.00  0.00    -0.238 N 
ATOM     12  C   UNL     1      -1.971  -4.477   5.523  0.00  0.00    +0.307 C 
ATOM     13  O   UNL     1      -2.944  -5.049   5.074  0.00  0.00    -0.252 OA
ATOM     14  N   UNL     1      -0.765  -4.467   4.924  0.00  0.00    -0.285 N 
ATOM     15  H   UNL     1      -2.756  -3.681   7.238  0.00  0.00    +0.159 HD
ATOM     16  H   UNL     1      -0.528  -4.900   4.089  0.00  0.00    +0.151 HD
ENDROOT
BRANCH   1  21
ATOM     17  C   UNL     1       3.992  -0.890   1.431  0.00  0.00    -0.042 A 
ATOM     18  C   UNL     1       4.948  -0.049   1.978  0.00  0.00    +0.007 A 
ATOM     19  C   UNL     1       5.537  -0.355   3.188  0.00  0.00    +0.046 A 
ATOM     20  C   UNL     1       5.175  -1.510   3.865  0.00  0.00    +0.129 A 
ATOM     21  C   UNL     1       4.209  -2.363   3.316  0.00  0.00    +0.078 A 
ATOM     22  C   UNL     1       3.617  -2.039   2.092  0.00  0.00    +0.020 A 
BRANCH  20  23
ATOM     23  O   UNL     1       5.754  -1.813   5.054  0.00  0.00    -0.506 OA
ATOM     24  H   UNL     1       5.287  -1.454   5.822  0.00  0.00    +0.292 HD
ENDBRANCH  20  23
BRANCH  17  25
ATOM     25  C   UNL     1       3.357  -0.543   0.109  0.00  0.00    +0.070 C 
BRANCH  25  29
ATOM     26  C   UNL     1      -0.128   1.834   0.782  0.00  0.00    +0.000 A 
ATOM     27  C   UNL     1       1.102   2.443   0.614  0.00  0.00    +0.000 A 
ATOM     28  C   UNL     1       2.230   1.673   0.397  0.00  0.00    +0.004 A 
ATOM     29  C   UNL     1       2.127   0.295   0.347  0.00  0.00    -0.043 A 
ATOM     30  C   UNL     1       0.898  -0.313   0.516  0.00  0.00    +0.004 A 
ATOM     31  C   UNL     1      -0.230   0.457   0.733  0.00  0.00    +0.000 A 
ENDBRANCH  25  29
ENDBRANCH  17  25
ENDBRANCH   1  21
TORSDOF 4
