REMARK  Name = ZINC18243913
REMARK  2 active torsions:
REMARK  status: ('A' for Active; 'I' for Inactive)
REMARK    1  A    between atoms: C_1  and  C_2
REMARK    2  A    between atoms: C_14  and  C_21
REMARK                            x       y       z     vdW  Elec       q    Type
REMARK                         _______ _______ _______ _____ _____    ______ ____
ROOT
ATOM      1  C   UNL     1      -0.018   1.503   0.010  0.00  0.00    +0.089 C 
ATOM      2  C   UNL     1       0.002  -0.004   0.002  0.00  0.00    +0.136 A 
ATOM      3  C   UNL     1      -1.076  -0.808   0.003  0.00  0.00    +0.091 A 
ATOM      4  C   UNL     1      -0.625  -2.146  -0.007  0.00  0.00    +0.177 A 
ATOM      5  N   UNL     1       0.682  -2.130  -0.013  0.00  0.00    -0.062 NA
ATOM      6  O   UNL     1       1.099  -0.777  -0.013  0.00  0.00    -0.358 OA
ATOM      7  N   UNL     1      -1.434  -3.287  -0.009  0.00  0.00    -0.191 N 
ATOM      8  C   UNL     1      -0.942  -4.552   0.086  0.00  0.00    +0.231 C 
ATOM      9  O   UNL     1       0.185  -4.875   0.394  0.00  0.00    -0.274 OA
ATOM     10  C   UNL     1      -2.074  -5.463  -0.267  0.00  0.00    +0.088 C 
ATOM     11  C   UNL     1      -2.184  -6.814   0.400  0.00  0.00    +0.014 C 
ATOM     12  C   UNL     1      -3.472  -7.467  -0.134  0.00  0.00    +0.009 C 
ATOM     13  C   UNL     1      -4.700  -6.596   0.106  0.00  0.00    +0.020 C 
ATOM     14  C   UNL     1      -4.505  -5.166  -0.439  0.00  0.00    +0.021 C 
ATOM     15  C   UNL     1      -3.276  -4.612   0.242  0.00  0.00    +0.088 C 
ATOM     16  C   UNL     1      -2.791  -3.241  -0.101  0.00  0.00    +0.231 C 
ATOM     17  O   UNL     1      -3.469  -2.282  -0.403  0.00  0.00    -0.274 OA
ENDROOT
BRANCH  13  18
ATOM     18  C   UNL     1      -5.888  -7.222  -0.578  0.00  0.00    -0.044 A 
ATOM     19  C   UNL     1      -5.870  -7.426  -1.945  0.00  0.00    +0.004 A 
ATOM     20  C   UNL     1      -6.960  -8.000  -2.573  0.00  0.00    +0.000 A 
ATOM     21  C   UNL     1      -8.066  -8.372  -1.833  0.00  0.00    +0.000 A 
ATOM     22  C   UNL     1      -8.084  -8.170  -0.466  0.00  0.00    +0.000 A 
ATOM     23  C   UNL     1      -6.993  -7.599   0.163  0.00  0.00    +0.004 A 
ENDBRANCH  13  18
TORSDOF 1
