REMARK  Name = ZINC09404894
REMARK  6 active torsions:
REMARK  status: ('A' for Active; 'I' for Inactive)
REMARK    1  A    between atoms: C_6  and  C_11
REMARK    2  A    between atoms: C_14  and  C_16
REMARK    3  A    between atoms: C_16  and  C_29
REMARK    4  A    between atoms: C_17  and  N_18
REMARK    5  A    between atoms: N_18  and  C_19
REMARK    6  A    between atoms: C_23  and  N_25
REMARK                            x       y       z     vdW  Elec       q    Type
REMARK                         _______ _______ _______ _____ _____    ______ ____
ROOT
ATOM      1  C   UNL     1       8.560  -2.293  -0.049  0.00  0.00    +0.098 C 
ATOM      2  C   UNL     1       9.645  -3.199  -0.071  0.00  0.00    +0.093 C 
ENDROOT
BRANCH   1   6
ATOM      3  C   UNL     1       4.967  -2.711   0.040  0.00  0.00    +0.079 A 
ATOM      4  C   UNL     1       5.027  -4.184   0.045  0.00  0.00    +0.075 A 
ATOM      5  S   UNL     1       6.686  -4.469   0.006  0.00  0.00    -0.074 S 
ATOM      6  C   UNL     1       7.245  -2.776  -0.015  0.00  0.00    +0.120 A 
ATOM      7  N   UNL     1       6.102  -2.078   0.004  0.00  0.00    -0.238 NA
BRANCH   3  13
ATOM      8  C   UNL     1      -0.007   1.380   0.136  0.00  0.00    +0.001 A 
ATOM      9  C   UNL     1       1.177   2.111   0.099  0.00  0.00    +0.001 A 
ATOM     10  C   UNL     1       2.386   1.485   0.072  0.00  0.00    +0.008 A 
ATOM     11  C   UNL     1       2.442   0.078   0.082  0.00  0.00    -0.017 A 
ATOM     12  C   UNL     1       3.669  -0.598   0.056  0.00  0.00    +0.018 A 
ATOM     13  C   UNL     1       3.683  -1.992   0.067  0.00  0.00    +0.001 A 
ATOM     14  C   UNL     1       2.475  -2.717   0.105  0.00  0.00    +0.010 A 
ATOM     15  C   UNL     1       1.281  -2.076   0.131  0.00  0.00    +0.009 A 
ATOM     16  C   UNL     1       1.234  -0.666   0.120  0.00  0.00    -0.018 A 
ATOM     17  C   UNL     1       0.009   0.015   0.147  0.00  0.00    +0.008 A 
ENDBRANCH   3  13
ENDBRANCH   1   6
BRANCH   2  18
ATOM     18  N   UNL     1      10.896  -2.740  -0.104  0.00  0.00    -0.319 N 
ATOM     19  H   UNL     1      11.061  -1.788  -0.189  0.00  0.00    +0.152 HD
BRANCH  18  20
ATOM     20  C   UNL     1      11.963  -3.625  -0.015  0.00  0.00    +0.033 A 
ATOM     21  C   UNL     1      11.734  -4.999  -0.032  0.00  0.00    +0.026 A 
ATOM     22  C   UNL     1      12.796  -5.875   0.057  0.00  0.00    +0.042 A 
ATOM     23  C   UNL     1      14.090  -5.389   0.162  0.00  0.00    +0.154 A 
ATOM     24  C   UNL     1      14.322  -4.022   0.178  0.00  0.00    +0.163 A 
ATOM     25  C   UNL     1      13.265  -3.141   0.085  0.00  0.00    +0.059 A 
ATOM     26  F   UNL     1      15.128  -6.250   0.248  0.00  0.00    -0.203 F 
BRANCH  24  27
ATOM     27  N   UNL     1      15.706  -3.509   0.291  0.00  0.00    +0.059 N 
ATOM     28  O   UNL     1      15.926  -2.210   0.307  0.00  0.00    -0.126 OA
ATOM     29  O   UNL     1      16.716  -4.349   0.376  0.00  0.00    -0.126 OA
ENDBRANCH  24  27
ENDBRANCH  18  20
ENDBRANCH   2  18
BRANCH   1  30
ATOM     30  C   UNL     1       8.805  -0.882  -0.061  0.00  0.00    +0.103 C 
ATOM     31  N   UNL     1       8.999   0.237  -0.070  0.00  0.00    -0.191 NA
ENDBRANCH   1  30
TORSDOF 6
