REMARK  Name = ZINC28217343
REMARK  8 active torsions:
REMARK  status: ('A' for Active; 'I' for Inactive)
REMARK    1  A    between atoms: C_1  and  C_2
REMARK    2  A    between atoms: C_4  and  C_26
REMARK    3  A    between atoms: C_6  and  N_8
REMARK    4  A    between atoms: C_9  and  C_25
REMARK    5  A    between atoms: C_11  and  C_14
REMARK    6  A    between atoms: C_12  and  C_13
REMARK    7  A    between atoms: N_15  and  N_16
REMARK    8  A    between atoms: C_17  and  C_19
REMARK                            x       y       z     vdW  Elec       q    Type
REMARK                         _______ _______ _______ _____ _____    ______ ____
ROOT
ATOM      1  N   UNL     1       0.051  -2.798   2.395  0.00  0.00    -0.317 N 
ATOM      2  C   UNL     1      -0.947  -3.621   2.833  0.00  0.00    +0.022 A 
ATOM      3  C   UNL     1      -0.597  -4.133   4.027  0.00  0.00    +0.032 A 
ATOM      4  C   UNL     1       0.723  -3.580   4.348  0.00  0.00    +0.016 A 
ATOM      5  C   UNL     1       1.065  -2.773   3.302  0.00  0.00    +0.030 A 
ATOM      6  C   UNL     1       2.345  -1.987   3.175  0.00  0.00    +0.064 C 
ATOM      7  C   UNL     1      -2.232  -3.908   2.099  0.00  0.00    +0.064 C 
ENDROOT
BRANCH   1  13
ATOM      8  C   UNL     1      -0.018   1.503   0.010  0.00  0.00    +0.044 C 
ATOM      9  C   UNL     1       0.002  -0.004   0.002  0.00  0.00    -0.048 A 
ATOM     10  C   UNL     1       0.006  -0.688  -1.200  0.00  0.00    +0.006 A 
ATOM     11  C   UNL     1       0.024  -2.071  -1.211  0.00  0.00    -0.048 A 
ATOM     12  C   UNL     1       0.040  -2.773  -0.022  0.00  0.00    +0.029 A 
ATOM     13  C   UNL     1       0.036  -2.089   1.186  0.00  0.00    +0.047 A 
ATOM     14  C   UNL     1       0.023  -0.700   1.195  0.00  0.00    +0.029 A 
ATOM     15  C   UNL     1       0.028  -2.812  -2.523  0.00  0.00    +0.044 C 
ENDBRANCH   1  13
BRANCH   4  16
ATOM     16  C   UNL     1       1.523  -3.848   5.558  0.00  0.00    +0.140 C 
ATOM     17  N   UNL     1       2.682  -3.283   5.707  0.00  0.00    -0.187 NA
BRANCH  17  18
ATOM     18  N   UNL     1       3.442  -3.537   6.856  0.00  0.00    -0.203 N 
ATOM     19  C   UNL     1       4.646  -2.951   7.011  0.00  0.00    +0.263 C 
ATOM     20  O   UNL     1       5.072  -2.201   6.154  0.00  0.00    -0.268 OA
ATOM     21  H   UNL     1       3.102  -4.135   7.540  0.00  0.00    +0.178 HD
BRANCH  19  22
ATOM     22  C   UNL     1       5.448  -3.219   8.223  0.00  0.00    +0.038 A 
ATOM     23  C   UNL     1       4.964  -4.083   9.207  0.00  0.00    +0.013 A 
ATOM     24  C   UNL     1       5.717  -4.329  10.336  0.00  0.00    +0.001 A 
ATOM     25  C   UNL     1       6.950  -3.721  10.495  0.00  0.00    +0.000 A 
ATOM     26  C   UNL     1       7.435  -2.862   9.524  0.00  0.00    +0.001 A 
ATOM     27  C   UNL     1       6.695  -2.613   8.387  0.00  0.00    +0.013 A 
ENDBRANCH  19  22
ENDBRANCH  17  18
ENDBRANCH   4  16
TORSDOF 4
