REMARK  Name = ZINC13255076
REMARK  7 active torsions:
REMARK  status: ('A' for Active; 'I' for Inactive)
REMARK    1  A    between atoms: C_1  and  C_2
REMARK    2  A    between atoms: C_9  and  N_13
REMARK    3  A    between atoms: C_10  and  C_11
REMARK    4  A    between atoms: C_14  and  C_16
REMARK    5  A    between atoms: C_16  and  C_17
REMARK    6  A    between atoms: C_17  and  C_19
REMARK    7  A    between atoms: C_17  and  C_25
REMARK                            x       y       z     vdW  Elec       q    Type
REMARK                         _______ _______ _______ _____ _____    ______ ____
ROOT
ATOM      1  N   UNL     1      -2.507   1.629   0.023  0.00  0.00    -0.279 N 
ATOM      2  C   UNL     1      -3.557   2.475   0.032  0.00  0.00    +0.219 C 
ATOM      3  O   UNL     1      -3.370   3.673   0.037  0.00  0.00    -0.275 OA
ATOM      4  H   UNL     1      -2.657   0.671   0.019  0.00  0.00    +0.155 HD
ENDROOT
BRANCH   1  12
ATOM      5  C   UNL     1       4.623   4.848  -0.112  0.00  0.00    +0.008 C 
ATOM      6  C   UNL     1       3.454   3.900  -0.390  0.00  0.00    -0.009 C 
ATOM      7  C   UNL     1       3.620   2.623   0.440  0.00  0.00    +0.008 C 
ATOM      8  C   UNL     1       2.604   1.573  -0.013  0.00  0.00    +0.037 C 
ATOM      9  C   UNL     1       1.214   2.197   0.002  0.00  0.00    -0.018 A 
ATOM     10  C   UNL     1       1.054   3.539   0.010  0.00  0.00    -0.004 A 
ATOM     11  S   UNL     1      -0.699   3.785   0.028  0.00  0.00    -0.077 S 
ATOM     12  C   UNL     1      -1.213   2.130   0.019  0.00  0.00    +0.090 A 
ATOM     13  C   UNL     1      -0.017   1.428   0.010  0.00  0.00    +0.084 A 
ATOM     14  C   UNL     1       2.133   4.578   0.004  0.00  0.00    +0.046 C 
BRANCH  13  15
ATOM     15  C   UNL     1       0.002  -0.004   0.002  0.00  0.00    +0.102 C 
ATOM     16  N   UNL     1       0.018  -1.140  -0.004  0.00  0.00    -0.191 NA
ENDBRANCH  13  15
ENDBRANCH   1  12
BRANCH   2  17
ATOM     17  C   UNL     1      -4.963   1.931   0.036  0.00  0.00    +0.115 C 
BRANCH  17  18
ATOM     18  C   UNL     1      -5.959   3.092   0.047  0.00  0.00    +0.141 C 
BRANCH  18  19
ATOM     19  C   UNL     1      -7.361   2.553  -0.073  0.00  0.00    -0.033 A 
ATOM     20  C   UNL     1      -7.849   1.679   0.881  0.00  0.00    +0.004 A 
ATOM     21  C   UNL     1      -9.136   1.188   0.773  0.00  0.00    +0.000 A 
ATOM     22  C   UNL     1      -9.932   1.562  -0.293  0.00  0.00    +0.000 A 
ATOM     23  C   UNL     1      -9.443   2.432  -1.249  0.00  0.00    +0.000 A 
ATOM     24  C   UNL     1      -8.156   2.927  -1.139  0.00  0.00    +0.004 A 
ENDBRANCH  18  19
BRANCH  18  25
ATOM     25  C   UNL     1      -5.824   3.858   1.338  0.00  0.00    +0.364 C 
ATOM     26  O   UNL     1      -5.014   3.511   2.165  0.00  0.00    -0.246 OA
ATOM     27  O   UNL     1      -6.603   4.926   1.569  0.00  0.00    -0.246 OA
ENDBRANCH  18  25
ENDBRANCH  17  18
ENDBRANCH   2  17
TORSDOF 6
