REMARK  Name = ZINC09423893
REMARK  8 active torsions:
REMARK  status: ('A' for Active; 'I' for Inactive)
REMARK    1  A    between atoms: C_1  and  C_2
REMARK    2  A    between atoms: C_3  and  C_29
REMARK    3  A    between atoms: N_6  and  C_21
REMARK    4  A    between atoms: C_10  and  N_11
REMARK    5  A    between atoms: N_11  and  C_12
REMARK    6  A    between atoms: C_17  and  C_18
REMARK    7  A    between atoms: C_18  and  C_19
REMARK    8  A    between atoms: C_18  and  C_20
REMARK                            x       y       z     vdW  Elec       q    Type
REMARK                         _______ _______ _______ _____ _____    ______ ____
ROOT
ATOM      1  C   UNL     1      -2.537   1.359   0.040  0.00  0.00    +0.046 C 
ATOM      2  C   UNL     1      -1.230   2.110   0.021  0.00  0.00    -0.015 C 
ATOM      3  C   UNL     1      -0.022   1.426   0.014  0.00  0.00    +0.118 C 
ATOM      4  C   UNL     1       1.234   2.178  -0.010  0.00  0.00    +0.264 C 
ATOM      5  O   UNL     1       2.293   1.579  -0.022  0.00  0.00    -0.269 OA
ATOM      6  N   UNL     1       1.231   3.522  -0.021  0.00  0.00    -0.229 N 
ATOM      7  C   UNL     1       0.082   4.220  -0.009  0.00  0.00    +0.255 C 
ATOM      8  O   UNL     1       0.112   5.437  -0.018  0.00  0.00    -0.269 OA
ATOM      9  C   UNL     1      -1.210   3.522   0.016  0.00  0.00    +0.055 C 
ATOM     10  C   UNL     1      -2.401   4.243   0.030  0.00  0.00    +0.085 C 
ENDROOT
BRANCH   6  11
ATOM     11  C   UNL     1       2.507   4.242  -0.045  0.00  0.00    +0.107 C 
ATOM     12  C   UNL     1       3.280   3.869  -1.321  0.00  0.00    +0.047 C 
ATOM     13  C   UNL     1       4.739   4.388  -1.173  0.00  0.00    +0.168 C 
ATOM     14  S   UNL     1       5.067   3.974   0.592  0.00  0.00    -0.029 S 
ATOM     15  O   UNL     1       5.667   2.688   0.661  0.00  0.00    -0.174 OA
ATOM     16  O   UNL     1       5.707   5.079   1.214  0.00  0.00    -0.174 OA
ATOM     17  C   UNL     1       3.337   3.858   1.204  0.00  0.00    +0.188 C 
ENDBRANCH   6  11
BRANCH  10  18
ATOM     18  N   UNL     1      -2.375   5.582   0.157  0.00  0.00    -0.320 N 
ATOM     19  H   UNL     1      -1.526   6.053   0.165  0.00  0.00    +0.152 HD
BRANCH  18  20
ATOM     20  C   UNL     1      -3.570   6.296   0.279  0.00  0.00    +0.034 A 
ATOM     21  C   UNL     1      -4.777   5.617   0.392  0.00  0.00    +0.023 A 
ATOM     22  C   UNL     1      -5.957   6.326   0.512  0.00  0.00    +0.002 A 
ATOM     23  C   UNL     1      -5.937   7.709   0.520  0.00  0.00    +0.000 A 
ATOM     24  C   UNL     1      -4.737   8.387   0.408  0.00  0.00    +0.006 A 
ATOM     25  C   UNL     1      -3.553   7.685   0.293  0.00  0.00    -0.024 A 
BRANCH  25  26
ATOM     26  C   UNL     1      -2.246   8.425   0.177  0.00  0.00    +0.015 C 
ATOM     27  C   UNL     1      -2.224   9.220  -1.129  0.00  0.00    +0.012 C 
ATOM     28  C   UNL     1      -2.096   9.383   1.361  0.00  0.00    +0.012 C 
ENDBRANCH  25  26
ENDBRANCH  18  20
ENDBRANCH  10  18
BRANCH   3  29
ATOM     29  C   UNL     1      -0.004  -0.006   0.024  0.00  0.00    +0.105 C 
ATOM     30  N   UNL     1       0.009  -1.142   0.032  0.00  0.00    -0.191 NA
ENDBRANCH   3  29
TORSDOF 5
