REMARK  Name = ZINC56018296
REMARK  2 active torsions:
REMARK  status: ('A' for Active; 'I' for Inactive)
REMARK    1  A    between atoms: C_6  and  N_7
REMARK    2  A    between atoms: C_10  and  C_14
REMARK                            x       y       z     vdW  Elec       q    Type
REMARK                         _______ _______ _______ _____ _____    ______ ____
ROOT
ATOM      1  N   UNL     1      -1.182  -0.684  -0.075  0.00  0.00    -0.271 N 
ATOM      2  C   UNL     1      -1.267  -2.147  -0.155  0.00  0.00    +0.115 C 
ATOM      3  C   UNL     1      -2.742  -2.455  -0.496  0.00  0.00    +0.041 C 
ATOM      4  C   UNL     1      -3.463  -1.206   0.060  0.00  0.00    +0.163 C 
ATOM      5  C   UNL     1      -2.399  -0.130   0.057  0.00  0.00    +0.232 C 
ATOM      6  O   UNL     1      -2.615   1.060   0.157  0.00  0.00    -0.274 OA
ENDROOT
BRANCH   4   7
ATOM      7  C   UNL     1      -4.615  -0.821  -0.832  0.00  0.00    +0.228 C 
ATOM      8  O   UNL     1      -4.855  -1.472  -1.827  0.00  0.00    -0.275 OA
ATOM      9  N   UNL     1      -5.378   0.247  -0.524  0.00  0.00    -0.293 N 
ATOM     10  C   UNL     1      -5.067   1.104   0.634  0.00  0.00    +0.136 C 
ATOM     11  C   UNL     1      -6.335   1.282   1.473  0.00  0.00    +0.179 C 
ATOM     12  O   UNL     1      -7.418   1.700   0.635  0.00  0.00    -0.373 OA
ATOM     13  C   UNL     1      -7.748   0.755  -0.381  0.00  0.00    +0.139 C 
ATOM     14  C   UNL     1      -6.549   0.607  -1.333  0.00  0.00    +0.105 C 
ATOM     15  C   UNL     1      -6.860  -0.481  -2.358  0.00  0.00    +0.025 C 
ATOM     16  C   UNL     1      -8.086  -0.058  -3.174  0.00  0.00    +0.002 C 
ATOM     17  C   UNL     1      -9.285   0.144  -2.247  0.00  0.00    +0.003 C 
ATOM     18  C   UNL     1      -8.957   1.212  -1.195  0.00  0.00    +0.033 C 
ENDBRANCH   4   7
BRANCH   1  24
ATOM     19  C   UNL     1       1.232  -0.626  -0.143  0.00  0.00    +0.026 A 
ATOM     20  C   UNL     1       2.412   0.092  -0.193  0.00  0.00    +0.040 A 
ATOM     21  C   UNL     1       2.380   1.476  -0.225  0.00  0.00    +0.124 A 
ATOM     22  C   UNL     1       1.167   2.143  -0.206  0.00  0.00    +0.040 A 
ATOM     23  C   UNL     1      -0.014   1.430  -0.157  0.00  0.00    +0.026 A 
ATOM     24  C   UNL     1       0.015   0.042  -0.126  0.00  0.00    +0.036 A 
ATOM     25  F   UNL     1       3.535   2.176  -0.273  0.00  0.00    -0.205 F 
ENDBRANCH   1  24
TORSDOF 2
