REMARK  Name = ZINC19522253
REMARK  6 active torsions:
REMARK  status: ('A' for Active; 'I' for Inactive)
REMARK    1  A    between atoms: C_1  and  C_2
REMARK    2  A    between atoms: C_2  and  C_3
REMARK    3  A    between atoms: C_5  and  C_26
REMARK    4  A    between atoms: C_10  and  C_12
REMARK    5  A    between atoms: C_18  and  C_20
REMARK    6  A    between atoms: C_23  and  C_25
REMARK                            x       y       z     vdW  Elec       q    Type
REMARK                         _______ _______ _______ _____ _____    ______ ____
ROOT
ATOM      1  C   UNL     1      -4.839  -2.034  -2.868  0.00  0.00    +0.045 A 
ATOM      2  C   UNL     1      -3.971  -2.103  -3.967  0.00  0.00    +0.055 A 
ATOM      3  C   UNL     1      -2.678  -1.727  -3.819  0.00  0.00    +0.149 A 
ATOM      4  N   UNL     1      -2.248  -1.288  -2.600  0.00  0.00    -0.210 N 
ATOM      5  C   UNL     1      -3.126  -1.234  -1.548  0.00  0.00    +0.157 A 
ATOM      6  N   UNL     1      -4.403  -1.608  -1.706  0.00  0.00    -0.233 NA
ATOM      7  C   UNL     1      -2.415  -0.760  -0.453  0.00  0.00    +0.075 A 
ATOM      8  C   UNL     1      -1.112  -0.527  -0.867  0.00  0.00    +0.086 A 
ATOM      9  N   UNL     1      -1.005  -0.841  -2.139  0.00  0.00    -0.168 NA
ENDROOT
BRANCH   8  10
ATOM     10  C   UNL     1       0.002  -0.004   0.002  0.00  0.00    +0.127 C 
ATOM     11  C   UNL     1      -0.019   1.539   0.011  0.00  0.00    +0.030 C 
ATOM     12  C   UNL     1       1.488   1.907  -0.002  0.00  0.00    +0.021 C 
ATOM     13  C   UNL     1       2.075   0.785  -0.895  0.00  0.00    +0.108 C 
ATOM     14  N   UNL     1       1.303  -0.420  -0.543  0.00  0.00    -0.293 N 
ATOM     15  C   UNL     1       1.720  -1.692  -0.696  0.00  0.00    +0.219 C 
ATOM     16  O   UNL     1       0.997  -2.611  -0.372  0.00  0.00    -0.275 OA
BRANCH  15  17
ATOM     17  C   UNL     1       3.084  -1.974  -1.271  0.00  0.00    +0.078 C 
ATOM     18  C   UNL     1       4.137  -2.568  -0.333  0.00  0.00    +0.017 C 
ATOM     19  C   UNL     1       3.499  -3.440  -1.418  0.00  0.00    -0.002 C 
ATOM     20  C   UNL     1       4.364  -3.811  -2.624  0.00  0.00    +0.008 C 
ENDBRANCH  15  17
ENDBRANCH   8  10
BRANCH   3  21
ATOM     21  C   UNL     1      -1.725  -1.793  -4.986  0.00  0.00    +0.434 C 
ATOM     22  F   UNL     1      -1.110  -3.049  -5.014  0.00  0.00    -0.164 F 
ATOM     23  F   UNL     1      -2.432  -1.593  -6.176  0.00  0.00    -0.164 F 
ATOM     24  F   UNL     1      -0.751  -0.799  -4.849  0.00  0.00    -0.164 F 
ENDBRANCH   3  21
BRANCH   1  26
ATOM     25  C   UNL     1      -6.616  -3.519  -1.980  0.00  0.00    +0.010 C 
ATOM     26  C   UNL     1      -6.280  -2.450  -3.022  0.00  0.00    +0.052 C 
ENDBRANCH   1  26
TORSDOF 4
