REMARK  Name = ZINC53686559
REMARK  8 active torsions:
REMARK  status: ('A' for Active; 'I' for Inactive)
REMARK    1  A    between atoms: C_1  and  C_2
REMARK    2  A    between atoms: C_2  and  C_4
REMARK    3  A    between atoms: C_2  and  N_10
REMARK    4  A    between atoms: C_13  and  N_16
REMARK    5  A    between atoms: N_16  and  S_17
REMARK    6  A    between atoms: S_17  and  C_20
REMARK    7  A    between atoms: N_22  and  C_29
REMARK    8  A    between atoms: N_25  and  C_28
REMARK                            x       y       z     vdW  Elec       q    Type
REMARK                         _______ _______ _______ _____ _____    ______ ____
ROOT
ATOM      1  N   UNL     1      -2.655  -3.577   1.416  0.00  0.00    -0.189 NA
ATOM      2  H   UNL     1      -1.846  -3.737   1.926  0.00  0.00    +0.148 HD
ENDROOT
BRANCH   1   6
ATOM      3  N   UNL     1      -1.376  -0.512   0.012  0.00  0.00    +0.385 N 
ATOM      4  C   UNL     1      -2.053  -0.152   1.284  0.00  0.00    -0.076 C 
ATOM      5  C   UNL     1      -3.207  -1.170   1.414  0.00  0.00    -0.000 C 
ATOM      6  C   UNL     1      -2.765  -2.385   0.572  0.00  0.00    +0.058 C 
ATOM      7  C   UNL     1      -1.382  -1.998   0.004  0.00  0.00    -0.058 C 
ATOM      8  H   UNL     1      -1.891  -0.153  -0.778  0.00  0.00    -0.081 HD
BRANCH   3  10
ATOM      9  C   UNL     1      -0.019   1.526   0.010  0.00  0.00    -0.008 C 
ATOM     10  C   UNL     1       0.002  -0.004   0.002  0.00  0.00    -0.041 C 
BRANCH  10  11
ATOM     11  C   UNL     1       0.707  -0.490  -1.238  0.00  0.00    -0.061 A 
ATOM     12  C   UNL     1       0.038  -0.522  -2.447  0.00  0.00    +0.002 A 
ATOM     13  C   UNL     1       0.685  -0.967  -3.584  0.00  0.00    +0.000 A 
ATOM     14  C   UNL     1       2.002  -1.381  -3.513  0.00  0.00    +0.000 A 
ATOM     15  C   UNL     1       2.672  -1.349  -2.304  0.00  0.00    +0.000 A 
ATOM     16  C   UNL     1       2.026  -0.899  -1.167  0.00  0.00    +0.002 A 
ENDBRANCH  10  11
ENDBRANCH   3  10
ENDBRANCH   1   6
BRANCH   1  17
ATOM     17  S   UNL     1      -3.914  -4.650   1.501  0.00  0.00    +0.065 S 
ATOM     18  O   UNL     1      -3.497  -5.697   2.367  0.00  0.00    -0.153 OA
ATOM     19  O   UNL     1      -5.086  -3.884   1.741  0.00  0.00    -0.153 OA
BRANCH  17  20
ATOM     20  C   UNL     1      -4.098  -5.364  -0.100  0.00  0.00    +0.186 A 
ATOM     21  C   UNL     1      -5.113  -4.985  -0.905  0.00  0.00    +0.124 A 
ATOM     22  N   UNL     1      -5.241  -5.550  -2.145  0.00  0.00    -0.301 N 
ATOM     23  C   UNL     1      -4.365  -6.479  -2.569  0.00  0.00    +0.332 A 
ATOM     24  O   UNL     1      -4.498  -6.968  -3.674  0.00  0.00    -0.246 OA
ATOM     25  N   UNL     1      -3.344  -6.875  -1.786  0.00  0.00    -0.262 N 
ATOM     26  C   UNL     1      -3.179  -6.338  -0.560  0.00  0.00    +0.283 A 
ATOM     27  O   UNL     1      -2.253  -6.692   0.146  0.00  0.00    -0.265 OA
ATOM     28  C   UNL     1      -2.404  -7.888  -2.271  0.00  0.00    +0.157 C 
ATOM     29  C   UNL     1      -6.343  -5.139  -3.019  0.00  0.00    +0.153 C 
ENDBRANCH  17  20
ENDBRANCH   1  17
TORSDOF 5
