REMARK  Name = ZINC04944834
REMARK  3 active torsions:
REMARK  status: ('A' for Active; 'I' for Inactive)
REMARK    1  A    between atoms: C_1  and  C_2
REMARK    2  A    between atoms: C_2  and  C_3
REMARK    3  A    between atoms: C_6  and  C_8
REMARK                            x       y       z     vdW  Elec       q    Type
REMARK                         _______ _______ _______ _____ _____    ______ ____
ROOT
ATOM      1  C   UNL     1      -1.308   2.135   0.014  0.00  0.00    +0.075 C 
ATOM      2  C   UNL     1      -2.450   1.243   0.511  0.00  0.00    +0.134 C 
ATOM      3  C   UNL     1      -2.295  -0.108  -0.158  0.00  0.00    +0.313 C 
ATOM      4  O   UNL     1      -3.176  -0.586  -0.832  0.00  0.00    -0.250 OA
ATOM      5  O   UNL     1      -1.125  -0.751   0.036  0.00  0.00    -0.425 OA
ATOM      6  C   UNL     1       0.002  -0.004   0.002  0.00  0.00    +0.150 A 
ATOM      7  C   UNL     1      -0.016   1.355   0.009  0.00  0.00    +0.068 A 
ATOM      8  C   UNL     1       1.198   2.072   0.002  0.00  0.00    +0.257 A 
ATOM      9  O   UNL     1       1.165   3.291   0.021  0.00  0.00    -0.267 OA
ATOM     10  N   UNL     1       2.391   1.456  -0.026  0.00  0.00    -0.322 N 
ATOM     11  H   UNL     1       3.227   2.003  -0.032  0.00  0.00    +0.169 HD
ATOM     12  C   UNL     1       2.480   0.080  -0.047  0.00  0.00    +0.053 A 
ATOM     13  C   UNL     1       1.304  -0.690  -0.033  0.00  0.00    +0.041 A 
ATOM     14  C   UNL     1       1.383  -2.084  -0.050  0.00  0.00    +0.013 A 
ATOM     15  C   UNL     1       2.606  -2.693  -0.084  0.00  0.00    +0.001 A 
ATOM     16  C   UNL     1       3.770  -1.937  -0.100  0.00  0.00    +0.002 A 
ATOM     17  C   UNL     1       3.715  -0.560  -0.082  0.00  0.00    +0.026 A 
ENDROOT
BRANCH   1  21
ATOM     18  C   UNL     1      -0.839   5.142   2.893  0.00  0.00    -0.010 A 
ATOM     19  C   UNL     1      -1.117   5.575   1.639  0.00  0.00    +0.011 A 
ATOM     20  C   UNL     1      -1.281   4.645   0.629  0.00  0.00    +0.012 A 
ATOM     21  C   UNL     1      -1.170   3.327   0.925  0.00  0.00    -0.002 A 
ATOM     22  S   UNL     1      -0.809   3.370   2.673  0.00  0.00    -0.098 S 
BRANCH  18  24
ATOM     23  C   UNL     1      -1.948   6.160   4.864  0.00  0.00    +0.009 C 
ATOM     24  C   UNL     1      -0.613   5.947   4.146  0.00  0.00    +0.039 C 
ENDBRANCH  18  24
ENDBRANCH   1  21
TORSDOF 2
