REMARK  Name = ZINC66513650
REMARK  11 active torsions:
REMARK  status: ('A' for Active; 'I' for Inactive)
REMARK    1  A    between atoms: C_1  and  C_2
REMARK    2  A    between atoms: C_2  and  C_3
REMARK    3  A    between atoms: C_3  and  C_4
REMARK    4  A    between atoms: C_4  and  N_5
REMARK    5  A    between atoms: C_11  and  N_14
REMARK    6  A    between atoms: C_15  and  C_17
REMARK    7  A    between atoms: C_17  and  C_18
REMARK    8  A    between atoms: C_18  and  C_19
REMARK    9  A    between atoms: C_20  and  C_30
REMARK   10  A    between atoms: C_21  and  C_28
REMARK   11  A    between atoms: C_26  and  C_27
REMARK                            x       y       z     vdW  Elec       q    Type
REMARK                         _______ _______ _______ _____ _____    ______ ____
ROOT
ATOM      1  N   UNL     1       2.387  -6.645  -3.786  0.00  0.00    -0.285 N 
ATOM      2  C   UNL     1       3.174  -7.548  -4.403  0.00  0.00    +0.218 C 
ATOM      3  O   UNL     1       3.454  -7.409  -5.575  0.00  0.00    -0.275 OA
ATOM      4  H   UNL     1       2.228  -6.712  -2.832  0.00  0.00    +0.155 HD
ENDROOT
BRANCH   1  11
ATOM      5  N   UNL     1       1.407  -2.502  -2.487  0.00  0.00    +0.385 N 
ATOM      6  C   UNL     1       0.575  -2.254  -3.687  0.00  0.00    -0.042 C 
ATOM      7  C   UNL     1       0.858  -3.406  -4.624  0.00  0.00    -0.061 A 
ATOM      8  C   UNL     1       0.636  -3.566  -5.979  0.00  0.00    +0.002 A 
ATOM      9  C   UNL     1       0.994  -4.744  -6.608  0.00  0.00    +0.002 A 
ATOM     10  C   UNL     1       1.575  -5.766  -5.884  0.00  0.00    +0.023 A 
ATOM     11  C   UNL     1       1.799  -5.611  -4.523  0.00  0.00    +0.035 A 
ATOM     12  C   UNL     1       1.439  -4.427  -3.893  0.00  0.00    -0.041 A 
ATOM     13  C   UNL     1       1.556  -3.974  -2.456  0.00  0.00    -0.040 C 
ATOM     14  H   UNL     1       2.308  -2.057  -2.581  0.00  0.00    -0.081 HD
BRANCH   5  15
ATOM     15  C   UNL     1       0.721  -2.027  -1.278  0.00  0.00    -0.078 C 
BRANCH  15  16
ATOM     16  C   UNL     1       0.692  -0.497  -1.275  0.00  0.00    -0.019 C 
BRANCH  16  18
ATOM     17  C   UNL     1      -0.052   1.527  -0.014  0.00  0.00    +0.004 C 
ATOM     18  C   UNL     1      -0.023  -0.003  -0.016  0.00  0.00    -0.005 C 
ENDBRANCH  16  18
ENDBRANCH  15  16
ENDBRANCH   5  15
ENDBRANCH   1  11
BRANCH   2  19
ATOM     19  C   UNL     1       3.706  -8.732  -3.637  0.00  0.00    +0.101 C 
BRANCH  19  20
ATOM     20  C   UNL     1       4.565  -9.595  -4.564  0.00  0.00    +0.046 C 
BRANCH  20  21
ATOM     21  C   UNL     1       5.097 -10.779  -3.798  0.00  0.00    -0.024 A 
ATOM     22  C   UNL     1       6.264 -10.653  -3.044  0.00  0.00    -0.023 A 
ATOM     23  C   UNL     1       6.738 -11.759  -2.344  0.00  0.00    +0.119 A 
ATOM     24  C   UNL     1       6.016 -12.979  -2.421  0.00  0.00    +0.267 A 
ATOM     25  O   UNL     1       6.409 -13.962  -1.817  0.00  0.00    -0.266 OA
ATOM     26  N   UNL     1       4.894 -13.046  -3.164  0.00  0.00    -0.325 N 
ATOM     27  H   UNL     1       4.405 -13.882  -3.214  0.00  0.00    +0.169 HD
ATOM     28  C   UNL     1       4.437 -11.964  -3.838  0.00  0.00    +0.019 A 
ATOM     29  C   UNL     1       3.174 -12.079  -4.652  0.00  0.00    +0.063 C 
ATOM     30  C   UNL     1       7.001  -9.339  -2.988  0.00  0.00    +0.045 C 
BRANCH  23  31
ATOM     31  C   UNL     1       7.933 -11.669  -1.559  0.00  0.00    +0.105 C 
ATOM     32  N   UNL     1       8.880 -11.597  -0.937  0.00  0.00    -0.191 NA
ENDBRANCH  23  31
ENDBRANCH  20  21
ENDBRANCH  19  20
ENDBRANCH   2  19
TORSDOF 8
