REMARK  Name = ZINC64988025
REMARK  4 active torsions:
REMARK  status: ('A' for Active; 'I' for Inactive)
REMARK    1  A    between atoms: C_4  and  C_7
REMARK    2  A    between atoms: C_10  and  C_12
REMARK    3  A    between atoms: C_14  and  S_19
REMARK    4  A    between atoms: S_19  and  N_22
REMARK                            x       y       z     vdW  Elec       q    Type
REMARK                         _______ _______ _______ _____ _____    ______ ____
ROOT
ATOM      1  C   UNL     1       5.869  -3.550  -0.082  0.00  0.00    +0.059 A 
ATOM      2  C   UNL     1       7.264  -3.624  -0.087  0.00  0.00    +0.043 A 
ATOM      3  C   UNL     1       7.887  -4.854  -0.104  0.00  0.00    +0.106 A 
ATOM      4  C   UNL     1       7.133  -6.015  -0.116  0.00  0.00    +0.030 A 
ATOM      5  C   UNL     1       5.752  -5.951  -0.111  0.00  0.00    +0.022 A 
ATOM      6  C   UNL     1       5.115  -4.726  -0.088  0.00  0.00    +0.053 A 
ATOM      7 CL   UNL     1       3.381  -4.647  -0.074  0.00  0.00    -0.083 Cl
ENDROOT
BRANCH   1  11
ATOM      8  C   UNL     1       3.695  -0.684  -0.038  0.00  0.00    +0.249 A 
ATOM      9  N   UNL     1       4.889  -0.136  -0.042  0.00  0.00    -0.107 NA
ATOM     10  N   UNL     1       5.783  -1.061  -0.057  0.00  0.00    -0.107 NA
ATOM     11  C   UNL     1       5.196  -2.236  -0.064  0.00  0.00    +0.250 A 
ATOM     12  O   UNL     1       3.864  -2.022  -0.047  0.00  0.00    -0.416 OA
BRANCH   8  16
ATOM     13  C   UNL     1      -0.017   1.379   0.010  0.00  0.00    +0.000 A 
ATOM     14  C   UNL     1       1.168   2.094   0.002  0.00  0.00    +0.001 A 
ATOM     15  C   UNL     1       2.377   1.430  -0.013  0.00  0.00    +0.013 A 
ATOM     16  C   UNL     1       2.404   0.034  -0.021  0.00  0.00    +0.038 A 
ATOM     17  C   UNL     1       1.204  -0.681  -0.013  0.00  0.00    +0.013 A 
ATOM     18  C   UNL     1       0.002  -0.004   0.002  0.00  0.00    +0.001 A 
ENDBRANCH   8  16
ENDBRANCH   1  11
BRANCH   3  19
ATOM     19  S   UNL     1       9.646  -4.948  -0.110  0.00  0.00    +0.061 S 
ATOM     20  O   UNL     1       9.983  -6.207  -0.677  0.00  0.00    -0.153 OA
ATOM     21  O   UNL     1      10.117  -3.720  -0.648  0.00  0.00    -0.153 OA
BRANCH  19  22
ATOM     22  N   UNL     1      10.140  -4.993   1.470  0.00  0.00    -0.175 NA
ATOM     23  C   UNL     1      10.418  -3.742   2.176  0.00  0.00    +0.120 C 
ATOM     24  C   UNL     1       9.397  -3.555   3.305  0.00  0.00    +0.086 C 
ATOM     25  S   UNL     1       9.476  -5.000   4.406  0.00  0.00    -0.158 S 
ATOM     26  C   UNL     1       9.257  -6.400   3.267  0.00  0.00    +0.086 C 
ATOM     27  C   UNL     1      10.287  -6.284   2.144  0.00  0.00    +0.120 C 
ENDBRANCH  19  22
ENDBRANCH   3  19
TORSDOF 4
