REMARK  Name = ZINC59786172
REMARK  7 active torsions:
REMARK  status: ('A' for Active; 'I' for Inactive)
REMARK    1  A    between atoms: C_3  and  C_8
REMARK    2  A    between atoms: C_8  and  C_10
REMARK    3  A    between atoms: C_8  and  N_24
REMARK    4  A    between atoms: C_10  and  C_11
REMARK    5  A    between atoms: N_13  and  C_14
REMARK    6  A    between atoms: C_14  and  C_15
REMARK    7  A    between atoms: C_18  and  N_21
REMARK                            x       y       z     vdW  Elec       q    Type
REMARK                         _______ _______ _______ _____ _____    ______ ____
ROOT
ATOM      1  C   UNL     1       3.672   2.183  -0.022  0.00  0.00    +0.113 C 
ENDROOT
BRANCH   1   4
ATOM      2  C   UNL     1      -0.041   1.606  -0.388  0.00  0.00    +0.001 A 
ATOM      3  C   UNL     1       1.183   2.239  -0.284  0.00  0.00    +0.005 A 
ATOM      4  C   UNL     1       2.337   1.493  -0.136  0.00  0.00    -0.026 A 
ATOM      5  C   UNL     1       2.267   0.113  -0.092  0.00  0.00    +0.020 A 
ATOM      6  C   UNL     1       1.042  -0.521  -0.196  0.00  0.00    +0.018 A 
ATOM      7  C   UNL     1      -0.112   0.227  -0.344  0.00  0.00    +0.015 A 
ATOM      8 BR   UNL     1       0.946  -2.409  -0.136  0.00  0.00    -0.050 Br
ENDBRANCH   1   4
BRANCH   1   9
ATOM      9  N   UNL     1       4.663   1.466  -0.828  0.00  0.00    -0.292 N 
ATOM     10  C   UNL     1       4.766   1.716  -2.148  0.00  0.00    +0.298 C 
ATOM     11  O   UNL     1       4.102   2.600  -2.654  0.00  0.00    -0.253 OA
ATOM     12  N   UNL     1       5.606   0.987  -2.909  0.00  0.00    -0.313 N 
ATOM     13  H   UNL     1       5.245   0.811  -0.412  0.00  0.00    +0.151 HD
ATOM     14  H   UNL     1       6.137   0.281  -2.506  0.00  0.00    +0.146 HD
ATOM     15  H   UNL     1       5.681   1.167  -3.859  0.00  0.00    +0.146 HD
ENDBRANCH   1   9
BRANCH   1  16
ATOM     16  C   UNL     1       4.117   2.196   1.442  0.00  0.00    +0.123 C 
BRANCH  16  17
ATOM     17  C   UNL     1       5.390   2.992   1.573  0.00  0.00    +0.215 C 
ATOM     18  O   UNL     1       5.891   3.500   0.592  0.00  0.00    -0.276 OA
ATOM     19  N   UNL     1       5.971   3.140   2.780  0.00  0.00    -0.311 N 
ATOM     20  H   UNL     1       5.570   2.733   3.564  0.00  0.00    +0.149 HD
BRANCH  19  21
ATOM     21  C   UNL     1       7.208   3.914   2.908  0.00  0.00    +0.139 C 
BRANCH  21  22
ATOM     22  C   UNL     1       7.646   3.926   4.349  0.00  0.00    -0.030 A 
ATOM     23  C   UNL     1       7.202   4.922   5.199  0.00  0.00    +0.007 A 
ATOM     24  C   UNL     1       7.604   4.933   6.521  0.00  0.00    +0.033 A 
ATOM     25  C   UNL     1       8.451   3.947   6.994  0.00  0.00    +0.126 A 
ATOM     26  C   UNL     1       8.894   2.951   6.145  0.00  0.00    +0.033 A 
ATOM     27  C   UNL     1       8.489   2.938   4.824  0.00  0.00    +0.007 A 
BRANCH  25  28
ATOM     28  N   UNL     1       8.882   3.960   8.410  0.00  0.00    +0.056 N 
ATOM     29  O   UNL     1       8.494   4.831   9.153  0.00  0.00    -0.126 OA
ATOM     30  O   UNL     1       9.622   3.098   8.824  0.00  0.00    -0.126 OA
ENDBRANCH  25  28
ENDBRANCH  21  22
ENDBRANCH  19  21
ENDBRANCH  16  17
ENDBRANCH   1  16
TORSDOF 7
