REMARK  Name = ZINC04807899
REMARK  2 active torsions:
REMARK  status: ('A' for Active; 'I' for Inactive)
REMARK    1  A    between atoms: C_5  and  N_7
REMARK    2  A    between atoms: C_14  and  C_16
REMARK                            x       y       z     vdW  Elec       q    Type
REMARK                         _______ _______ _______ _____ _____    ______ ____
ROOT
ATOM      1  N   UNL     1      -1.974  -0.118   1.240  0.00  0.00    -0.268 N 
ATOM      2  C   UNL     1      -0.954  -0.735   0.610  0.00  0.00    +0.308 C 
ATOM      3  O   UNL     1      -0.905  -1.949   0.578  0.00  0.00    -0.252 OA
ATOM      4  N   UNL     1       0.011  -0.005   0.016  0.00  0.00    -0.266 N 
ATOM      5  C   UNL     1      -0.006   1.455   0.028  0.00  0.00    +0.121 C 
ATOM      6  C   UNL     1       1.443   2.025   0.029  0.00  0.00    +0.090 C 
ATOM      7  S   UNL     1       2.216   0.801  -1.122  0.00  0.00    -0.129 S 
ATOM      8  C   UNL     1       1.146  -0.634  -0.685  0.00  0.00    +0.202 C 
ATOM      9  H   UNL     1      -1.980   0.849   1.322  0.00  0.00    +0.156 HD
ENDROOT
BRANCH   1  14
ATOM     10  C   UNL     1      -3.812  -2.867   2.849  0.00  0.00    +0.002 A 
ATOM     11  C   UNL     1      -5.101  -2.364   2.836  0.00  0.00    +0.001 A 
ATOM     12  C   UNL     1      -5.354  -1.117   2.294  0.00  0.00    +0.017 A 
ATOM     13  C   UNL     1      -4.318  -0.367   1.769  0.00  0.00    +0.039 A 
ATOM     14  C   UNL     1      -3.024  -0.872   1.776  0.00  0.00    +0.049 A 
ATOM     15  C   UNL     1      -2.774  -2.125   2.321  0.00  0.00    +0.024 A 
ATOM     16 BR   UNL     1      -4.664   1.341   1.035  0.00  0.00    -0.048 Br
ENDBRANCH   1  14
BRANCH   8  17
ATOM     17  C   UNL     1       0.676  -1.346  -1.928  0.00  0.00    +0.135 A 
ATOM     18  C   UNL     1       1.245  -2.436  -2.473  0.00  0.00    +0.047 A 
ATOM     19  C   UNL     1       0.485  -2.764  -3.619  0.00  0.00    +0.041 A 
ATOM     20  C   UNL     1      -0.503  -1.855  -3.706  0.00  0.00    +0.195 A 
ATOM     21  O   UNL     1      -0.386  -1.002  -2.676  0.00  0.00    -0.465 OA
ENDBRANCH   8  17
TORSDOF 2
