REMARK  Name = ZINC09614037
REMARK  3 active torsions:
REMARK  status: ('A' for Active; 'I' for Inactive)
REMARK    1  A    between atoms: C_3  and  C_6
REMARK    2  A    between atoms: C_8  and  C_11
REMARK    3  A    between atoms: C_11  and  N_12
REMARK                            x       y       z     vdW  Elec       q    Type
REMARK                         _______ _______ _______ _____ _____    ______ ____
ROOT
ATOM      1  N   UNL     1       6.624   1.652   1.330  0.00  0.00    -0.215 N 
ATOM      2  C   UNL     1       7.132   0.619   2.035  0.00  0.00    +0.252 C 
ATOM      3  O   UNL     1       7.265  -0.528   1.665  0.00  0.00    -0.272 OA
ATOM      4  C   UNL     1       7.498   1.195   3.381  0.00  0.00    +0.139 C 
ATOM      5  C   UNL     1       8.986   1.036   3.658  0.00  0.00    +0.040 C 
ATOM      6  C   UNL     1       9.319  -0.436   3.926  0.00  0.00    +0.008 C 
ATOM      7  C   UNL     1       8.697  -0.849   5.268  0.00  0.00    +0.043 C 
ATOM      8  C   UNL     1       7.275  -0.393   5.294  0.00  0.00    -0.005 A 
ATOM      9  C   UNL     1       6.684   0.519   4.472  0.00  0.00    -0.005 A 
ATOM     10  C   UNL     1       5.332   0.775   4.698  0.00  0.00    +0.014 A 
ATOM     11  C   UNL     1       4.677   0.133   5.691  0.00  0.00    +0.046 A 
ATOM     12  S   UNL     1       5.967  -0.895   6.378  0.00  0.00    -0.101 S 
ATOM     13  N   UNL     1       7.127   2.610   3.283  0.00  0.00    -0.281 N 
ATOM     14  C   UNL     1       6.628   2.785   2.043  0.00  0.00    +0.310 C 
ATOM     15  O   UNL     1       6.224   3.851   1.622  0.00  0.00    -0.252 OA
ATOM     16  H   UNL     1       7.223   3.285   3.972  0.00  0.00    +0.152 HD
ENDROOT
BRANCH   1  17
ATOM     17  C   UNL     1       6.135   1.548  -0.047  0.00  0.00    +0.216 C 
BRANCH  17  20
ATOM     18  C   UNL     1       2.549   1.296  -0.015  0.00  0.00    +0.209 A 
ATOM     19  N   UNL     1       3.671   2.053  -0.027  0.00  0.00    -0.190 NA
ATOM     20  C   UNL     1       4.668   1.204  -0.035  0.00  0.00    +0.246 A 
ATOM     21  O   UNL     1       4.141  -0.024  -0.037  0.00  0.00    -0.336 OA
ATOM     22  N   UNL     1       2.930   0.042  -0.025  0.00  0.00    -0.055 NA
BRANCH  18  25
ATOM     23  C   UNL     1      -1.206   1.761   0.017  0.00  0.00    +0.008 A 
ATOM     24  C   UNL     1      -0.013   1.076   0.008  0.00  0.00    +0.019 A 
ATOM     25  C   UNL     1       1.157   1.790   0.001  0.00  0.00    +0.060 A 
ATOM     26  S   UNL     1       0.560   3.472   0.015  0.00  0.00    -0.093 S 
ATOM     27  C   UNL     1      -1.190   3.119   0.030  0.00  0.00    +0.046 A 
ENDBRANCH  18  25
ENDBRANCH  17  20
ENDBRANCH   1  17
TORSDOF 3
