REMARK  Name = ZINC57585165
REMARK  11 active torsions:
REMARK  status: ('A' for Active; 'I' for Inactive)
REMARK    1  A    between atoms: C_1  and  C_2
REMARK    2  A    between atoms: C_2  and  C_3
REMARK    3  A    between atoms: C_3  and  N_4
REMARK    4  A    between atoms: C_8  and  S_24
REMARK    5  A    between atoms: C_12  and  C_13
REMARK    6  A    between atoms: C_13  and  N_14
REMARK    7  A    between atoms: C_16  and  C_23
REMARK    8  A    between atoms: C_19  and  C_22
REMARK    9  A    between atoms: S_24  and  N_27
REMARK   10  A    between atoms: N_27  and  C_28
REMARK   11  A    between atoms: N_27  and  C_29
REMARK                            x       y       z     vdW  Elec       q    Type
REMARK                         _______ _______ _______ _____ _____    ______ ____
ROOT
ATOM      1  N   UNL     1      -1.413  -1.998   0.005  0.00  0.00    -0.329 N 
ATOM      2  C   UNL     1      -1.407  -2.811  -1.112  0.00  0.00    +0.069 A 
ATOM      3  C   UNL     1      -1.416  -2.574  -2.479  0.00  0.00    +0.030 A 
ATOM      4  C   UNL     1      -1.405  -3.637  -3.357  0.00  0.00    +0.030 A 
ATOM      5  C   UNL     1      -1.386  -4.941  -2.881  0.00  0.00    +0.108 A 
ATOM      6  C   UNL     1      -1.377  -5.193  -1.539  0.00  0.00    +0.058 A 
ATOM      7  C   UNL     1      -1.387  -4.131  -0.631  0.00  0.00    +0.091 A 
ATOM      8  N   UNL     1      -1.383  -4.058   0.725  0.00  0.00    -0.234 NA
ATOM      9  C   UNL     1      -1.392  -2.811   1.096  0.00  0.00    +0.094 A 
ENDROOT
BRANCH   5  10
ATOM     10  S   UNL     1      -1.373  -6.285  -4.021  0.00  0.00    +0.060 S 
ATOM     11  O   UNL     1      -1.906  -7.407  -3.332  0.00  0.00    -0.153 OA
ATOM     12  O   UNL     1      -1.935  -5.796  -5.231  0.00  0.00    -0.153 OA
BRANCH  10  13
ATOM     13  N   UNL     1       0.213  -6.637  -4.344  0.00  0.00    -0.183 NA
ATOM     14  C   UNL     1       0.929  -7.614  -3.519  0.00  0.00    +0.131 C 
ATOM     15  C   UNL     1       0.899  -5.973  -5.455  0.00  0.00    +0.131 C 
ENDBRANCH  10  13
ENDBRANCH   5  10
BRANCH   1  16
ATOM     16  C   UNL     1      -1.433  -0.534   0.013  0.00  0.00    +0.123 C 
BRANCH  16  18
ATOM     17  C   UNL     1      -0.019   1.526   0.010  0.00  0.00    +0.005 C 
ATOM     18  C   UNL     1       0.002  -0.004   0.002  0.00  0.00    +0.018 C 
ENDBRANCH  16  18
ENDBRANCH   1  16
BRANCH   9  19
ATOM     19  C   UNL     1      -1.384  -2.335   2.526  0.00  0.00    -0.003 C 
BRANCH  19  20
ATOM     20  N   UNL     1      -2.766  -2.199   3.004  0.00  0.00    +0.385 N 
ATOM     21  C   UNL     1      -3.445  -1.146   2.240  0.00  0.00    -0.075 C 
ATOM     22  C   UNL     1      -4.909  -1.055   2.678  0.00  0.00    -0.031 C 
ATOM     23  C   UNL     1      -4.969  -0.723   4.172  0.00  0.00    +0.003 C 
ATOM     24  C   UNL     1      -4.194  -1.788   4.953  0.00  0.00    -0.031 C 
ATOM     25  C   UNL     1      -2.757  -1.852   4.431  0.00  0.00    -0.075 C 
ATOM     26  C   UNL     1      -4.182  -1.424   6.439  0.00  0.00    +0.005 C 
ATOM     27  C   UNL     1      -5.614   0.045   1.881  0.00  0.00    +0.005 C 
ATOM     28  H   UNL     1      -3.254  -3.073   2.875  0.00  0.00    -0.081 HD
ENDBRANCH  19  20
ENDBRANCH   9  19
TORSDOF 6
