REMARK  Name = ZINC12760133
REMARK  3 active torsions:
REMARK  status: ('A' for Active; 'I' for Inactive)
REMARK    1  A    between atoms: C_1  and  C_2
REMARK    2  A    between atoms: N_7  and  C_10
REMARK    3  A    between atoms: C_12  and  C_13
REMARK                            x       y       z     vdW  Elec       q    Type
REMARK                         _______ _______ _______ _____ _____    ______ ____
ROOT
ATOM      1  C   UNL     1       3.730   1.298   0.003  0.00  0.00    +0.046 C 
ATOM      2  C   UNL     1       2.245   1.042   0.003  0.00  0.00    -0.017 A 
ATOM      3  C   UNL     1       1.350   2.114   0.018  0.00  0.00    +0.076 A 
ATOM      4  C   UNL     1      -0.021   1.771   0.017  0.00  0.00    +0.116 A 
ATOM      5  N   UNL     1      -0.974   2.695   0.035  0.00  0.00    -0.230 NA
ATOM      6  C   UNL     1      -0.691   3.969   0.046  0.00  0.00    +0.203 A 
ATOM      7  N   UNL     1       0.588   4.420   0.049  0.00  0.00    -0.302 N 
ATOM      8  C   UNL     1       1.631   3.568   0.036  0.00  0.00    +0.262 A 
ATOM      9  O   UNL     1       2.777   3.983   0.039  0.00  0.00    -0.267 OA
ATOM     10  C   UNL     1       0.840   5.863   0.067  0.00  0.00    +0.153 C 
ATOM     11  S   UNL     1       0.002  -0.003  -0.006  0.00  0.00    -0.064 S 
ATOM     12  C   UNL     1       1.772  -0.237  -0.012  0.00  0.00    +0.080 A 
ENDROOT
BRANCH  12  13
ATOM     13  C   UNL     1       2.529  -1.493  -0.030  0.00  0.00    +0.258 C 
ATOM     14  O   UNL     1       3.741  -1.471  -0.137  0.00  0.00    -0.269 OA
ATOM     15  N   UNL     1       1.882  -2.671   0.072  0.00  0.00    -0.266 N 
ATOM     16  C   UNL     1       0.426  -2.830   0.103  0.00  0.00    +0.119 C 
ATOM     17  C   UNL     1       0.188  -4.344   0.223  0.00  0.00    +0.056 C 
ATOM     18  C   UNL     1       1.575  -4.945   0.262  0.00  0.00    -0.024 A 
ATOM     19  C   UNL     1       2.502  -3.919   0.170  0.00  0.00    +0.040 A 
ATOM     20  C   UNL     1       3.863  -4.233   0.184  0.00  0.00    +0.024 A 
ATOM     21  C   UNL     1       4.273  -5.545   0.289  0.00  0.00    +0.002 A 
ATOM     22  C   UNL     1       3.339  -6.561   0.380  0.00  0.00    +0.000 A 
ATOM     23  C   UNL     1       1.990  -6.258   0.366  0.00  0.00    +0.005 A 
ENDBRANCH  12  13
TORSDOF 1
