REMARK  Name = ZINC45717089
REMARK  8 active torsions:
REMARK  status: ('A' for Active; 'I' for Inactive)
REMARK    1  A    between atoms: C_1  and  C_2
REMARK    2  A    between atoms: C_4  and  C_7
REMARK    3  A    between atoms: C_7  and  N_13
REMARK    4  A    between atoms: C_14  and  C_16
REMARK    5  A    between atoms: C_16  and  O_17
REMARK    6  A    between atoms: O_17  and  C_18
REMARK    7  A    between atoms: C_25  and  C_27
REMARK    8  A    between atoms: C_25  and  C_28
REMARK                            x       y       z     vdW  Elec       q    Type
REMARK                         _______ _______ _______ _____ _____    ______ ____
ROOT
ATOM      1  N   UNL     1      -2.507  -3.159   1.129  0.00  0.00    -0.300 N 
ATOM      2  C   UNL     1      -3.336  -2.103   1.238  0.00  0.00    +0.251 C 
ATOM      3  O   UNL     1      -3.321  -1.230   0.396  0.00  0.00    -0.272 OA
ATOM      4  H   UNL     1      -2.519  -3.857   1.802  0.00  0.00    +0.150 HD
ENDROOT
BRANCH   1   5
ATOM      5  C   UNL     1      -1.588  -3.254  -0.008  0.00  0.00    +0.097 C 
ATOM      6  C   UNL     1      -2.389  -3.276  -1.311  0.00  0.00    +0.034 C 
ATOM      7  C   UNL     1      -3.328  -4.483  -1.313  0.00  0.00    +0.003 C 
ATOM      8  C   UNL     1      -2.506  -5.769  -1.198  0.00  0.00    +0.000 C 
ATOM      9  C   UNL     1      -1.705  -5.747   0.105  0.00  0.00    +0.003 C 
ATOM     10  C   UNL     1      -0.766  -4.540   0.107  0.00  0.00    +0.034 C 
BRANCH   5  14
ATOM     11  C   UNL     1      -0.018   1.503   0.010  0.00  0.00    +0.112 C 
ATOM     12  C   UNL     1       0.002  -0.004   0.002  0.00  0.00    +0.224 A 
ATOM     13  N   UNL     1      -1.044  -0.783   0.003  0.00  0.00    -0.194 NA
ATOM     14  C   UNL     1      -0.663  -2.065  -0.006  0.00  0.00    +0.195 A 
ATOM     15  N   UNL     1       0.638  -2.118  -0.012  0.00  0.00    -0.059 NA
ATOM     16  O   UNL     1       1.097  -0.774  -0.013  0.00  0.00    -0.338 OA
ENDBRANCH   5  14
ENDBRANCH   1   5
BRANCH   2  17
ATOM     17  C   UNL     1      -4.282  -2.005   2.408  0.00  0.00    +0.324 C 
BRANCH  17  18
ATOM     18  O   UNL     1      -5.050  -0.804   2.300  0.00  0.00    -0.479 OA
BRANCH  18  19
ATOM     19  C   UNL     1      -5.958  -0.562   3.283  0.00  0.00    +0.163 A 
ATOM     20  C   UNL     1      -6.100  -1.459   4.328  0.00  0.00    +0.049 A 
ATOM     21  C   UNL     1      -7.022  -1.221   5.330  0.00  0.00    +0.004 A 
ATOM     22  C   UNL     1      -7.807  -0.083   5.286  0.00  0.00    +0.007 A 
ATOM     23  C   UNL     1      -7.671   0.811   4.246  0.00  0.00    +0.002 A 
ATOM     24  C   UNL     1      -6.741   0.593   3.239  0.00  0.00    +0.166 A 
ATOM     25  O   UNL     1      -6.750   1.608   2.330  0.00  0.00    -0.482 OA
ATOM     26  C   UNL     1      -7.985   2.336   2.447  0.00  0.00    +0.109 C 
ATOM     27  C   UNL     1      -8.380   2.112   3.922  0.00  0.00    +0.086 C 
ATOM     28  C   UNL     1      -9.050   1.750   1.518  0.00  0.00    +0.056 C 
ATOM     29  C   UNL     1      -7.767   3.822   2.156  0.00  0.00    +0.056 C 
ENDBRANCH  18  19
ENDBRANCH  17  18
ENDBRANCH   2  17
TORSDOF 5
