REMARK  Name = ZINC12140867
REMARK  8 active torsions:
REMARK  status: ('A' for Active; 'I' for Inactive)
REMARK    1  A    between atoms: C_1  and  C_2
REMARK    2  A    between atoms: C_2  and  N_53
REMARK    3  A    between atoms: C_3  and  C_4
REMARK    4  A    between atoms: C_3  and  N_53
REMARK    5  A    between atoms: C_5  and  C_6
REMARK    6  A    between atoms: C_5  and  N_53
REMARK    7  A    between atoms: C_6  and  N_7
REMARK    8  A    between atoms: C_18  and  C_20
REMARK                            x       y       z     vdW  Elec       q    Type
REMARK                         _______ _______ _______ _____ _____    ______ ____
ROOT
ATOM      1  N   UNL     1      -3.544   1.835   0.612  0.00  0.00    -0.248 N 
ATOM      2  C   UNL     1      -2.305   1.606   0.038  0.00  0.00    +0.168 A 
ATOM      3  N   UNL     1      -1.282   2.422  -0.067  0.00  0.00    -0.221 NA
ATOM      4  C   UNL     1      -0.124   2.062  -0.663  0.00  0.00    +0.115 A 
ATOM      5  C   UNL     1       1.044   2.842  -0.846  0.00  0.00    +0.150 A 
ATOM      6  C   UNL     1       2.145   2.316  -1.473  0.00  0.00    +0.040 A 
ATOM      7  C   UNL     1       2.156   1.012  -1.946  0.00  0.00    +0.004 A 
ATOM      8  C   UNL     1       1.032   0.223  -1.784  0.00  0.00    +0.017 A 
ATOM      9  C   UNL     1      -0.076   0.740  -1.158  0.00  0.00    +0.044 A 
ATOM     10  S   UNL     1      -1.688   0.120  -0.742  0.00  0.00    -0.052 S 
ATOM     11  F   UNL     1       1.073   4.116  -0.399  0.00  0.00    -0.203 F 
ATOM     12  C   UNL     1      -4.506   0.894   0.536  0.00  0.00    +0.259 C 
ATOM     13  O   UNL     1      -4.275  -0.170  -0.006  0.00  0.00    -0.269 OA
ENDROOT
BRANCH  12  14
ATOM     14  C   UNL     1      -5.837   1.155   1.108  0.00  0.00    +0.122 A 
ATOM     15  C   UNL     1      -6.362   2.436   1.117  0.00  0.00    +0.031 A 
ATOM     16  C   UNL     1      -7.649   2.641   1.674  0.00  0.00    +0.018 A 
ATOM     17  C   UNL     1      -8.213   3.925   1.694  0.00  0.00    +0.011 A 
ATOM     18  C   UNL     1      -9.451   4.116   2.238  0.00  0.00    +0.001 A 
ATOM     19  C   UNL     1     -10.158   3.047   2.771  0.00  0.00    +0.004 A 
ATOM     20  C   UNL     1      -9.623   1.776   2.762  0.00  0.00    +0.047 A 
ATOM     21  C   UNL     1      -8.364   1.556   2.214  0.00  0.00    +0.139 A 
ATOM     22  O   UNL     1      -7.842   0.311   2.206  0.00  0.00    -0.422 OA
ATOM     23  C   UNL     1      -6.629   0.062   1.685  0.00  0.00    +0.350 A 
ATOM     24  O   UNL     1      -6.186  -1.071   1.692  0.00  0.00    -0.244 OA
ENDBRANCH  12  14
BRANCH   1  25
ATOM     25  C   UNL     1      -3.808   3.099   1.302  0.00  0.00    +0.097 C 
BRANCH  25  26
ATOM     26  C   UNL     1      -3.953   4.222   0.273  0.00  0.00    -0.059 C 
BRANCH  26  27
ATOM     27  N   UNL     1      -4.355   5.460   0.972  0.00  0.00    +0.380 N 
ATOM     28  H   UNL     1      -5.159   5.256   1.577  0.00  0.00    -0.082 HD
BRANCH  27  30
ATOM     29  C   UNL     1      -3.750   7.099   2.685  0.00  0.00    -0.017 C 
ATOM     30  C   UNL     1      -3.240   5.955   1.806  0.00  0.00    -0.082 C 
ENDBRANCH  27  30
BRANCH  27  31
ATOM     31  C   UNL     1      -4.745   6.492  -0.012  0.00  0.00    -0.082 C 
ATOM     32  C   UNL     1      -6.147   6.168  -0.533  0.00  0.00    -0.017 C 
ENDBRANCH  27  31
ENDBRANCH  26  27
ENDBRANCH  25  26
ENDBRANCH   1  25
TORSDOF 6
