REMARK  Name = ZINC62539793
REMARK  7 active torsions:
REMARK  status: ('A' for Active; 'I' for Inactive)
REMARK    1  A    between atoms: C_1  and  C_2
REMARK    2  A    between atoms: N_7  and  C_20
REMARK    3  A    between atoms: C_10  and  C_16
REMARK    4  A    between atoms: C_12  and  N_15
REMARK    5  A    between atoms: C_16  and  C_17
REMARK    6  A    between atoms: C_16  and  C_18
REMARK    7  A    between atoms: C_16  and  C_19
REMARK                            x       y       z     vdW  Elec       q    Type
REMARK                         _______ _______ _______ _____ _____    ______ ____
ROOT
ATOM      1  C   UNL     1      -0.019   1.526   0.010  0.00  0.00    +0.052 C 
ATOM      2  C   UNL     1       0.002  -0.004   0.002  0.00  0.00    +0.179 C 
ATOM      3  C   UNL     1       0.709  -0.493  -1.260  0.00  0.00    +0.140 C 
ATOM      4  C   UNL     1       1.084  -1.945  -1.114  0.00  0.00    +0.223 C 
ATOM      5  O   UNL     1       0.458  -2.798  -1.708  0.00  0.00    -0.275 OA
ATOM      6  N   UNL     1       2.120  -2.292  -0.319  0.00  0.00    -0.271 N 
ATOM      7  C   UNL     1       2.783  -1.300   0.416  0.00  0.00    +0.080 A 
ATOM      8  C   UNL     1       4.167  -1.216   0.402  0.00  0.00    +0.031 A 
ATOM      9  C   UNL     1       4.808  -0.235   1.136  0.00  0.00    -0.038 A 
ATOM     10  C   UNL     1       4.073   0.664   1.886  0.00  0.00    +0.030 A 
ATOM     11  C   UNL     1       2.687   0.589   1.905  0.00  0.00    +0.069 A 
ATOM     12  C   UNL     1       2.038  -0.394   1.166  0.00  0.00    +0.163 A 
ATOM     13  O   UNL     1       0.684  -0.473   1.163  0.00  0.00    -0.485 OA
ATOM     14  C   UNL     1       2.547  -3.690  -0.228  0.00  0.00    +0.138 C 
ENDROOT
BRANCH   9  15
ATOM     15  C   UNL     1       6.312  -0.146   1.119  0.00  0.00    -0.013 C 
ATOM     16  C   UNL     1       6.793   0.089  -0.314  0.00  0.00    +0.015 C 
ATOM     17  C   UNL     1       6.765   1.015   2.006  0.00  0.00    +0.015 C 
ATOM     18  C   UNL     1       6.906  -1.453   1.648  0.00  0.00    +0.015 C 
ENDBRANCH   9  15
BRANCH  11  19
ATOM     19  N   UNL     1       1.944   1.500   2.665  0.00  0.00    -0.355 N 
ATOM     20  H   UNL     1       2.398   2.186   3.180  0.00  0.00    +0.142 HD
ATOM     21  H   UNL     1       0.976   1.446   2.677  0.00  0.00    +0.142 HD
ENDBRANCH  11  19
TORSDOF 2
