REMARK  Name = ZINC18148871
REMARK  4 active torsions:
REMARK  status: ('A' for Active; 'I' for Inactive)
REMARK    1  A    between atoms: C_5  and  C_7
REMARK    2  A    between atoms: C_7  and  O_9
REMARK    3  A    between atoms: O_9  and  C_10
REMARK    4  A    between atoms: C_15  and  N_16
REMARK                            x       y       z     vdW  Elec       q    Type
REMARK                         _______ _______ _______ _____ _____    ______ ____
ROOT
ATOM      1  C   UNL     1       0.274  -4.202  -0.018  0.00  0.00    +0.154 A 
ATOM      2  C   UNL     1       1.552  -4.735   0.031  0.00  0.00    +0.048 A 
ATOM      3  C   UNL     1       1.731  -6.106   0.028  0.00  0.00    +0.004 A 
ATOM      4  C   UNL     1       0.636  -6.949  -0.024  0.00  0.00    +0.002 A 
ATOM      5  C   UNL     1      -0.642  -6.426  -0.072  0.00  0.00    +0.027 A 
ATOM      6  C   UNL     1      -0.829  -5.051  -0.064  0.00  0.00    +0.086 A 
ENDROOT
BRANCH   6   7
ATOM      7  N   UNL     1      -2.126  -4.518  -0.107  0.00  0.00    -0.206 N 
ATOM      8  C   UNL     1      -2.765  -4.236  -1.256  0.00  0.00    +0.230 C 
ATOM      9  O   UNL     1      -2.391  -4.531  -2.371  0.00  0.00    -0.274 OA
ATOM     10  C   UNL     1      -4.045  -3.480  -0.907  0.00  0.00    +0.088 C 
ATOM     11  C   UNL     1      -3.800  -2.005  -1.159  0.00  0.00    +0.013 C 
ATOM     12  C   UNL     1      -4.691  -1.111  -0.308  0.00  0.00    +0.001 C 
ATOM     13  C   UNL     1      -4.418  -1.419   1.169  0.00  0.00    +0.001 C 
ATOM     14  C   UNL     1      -4.880  -2.844   1.450  0.00  0.00    +0.013 C 
ATOM     15  C   UNL     1      -4.241  -3.875   0.550  0.00  0.00    +0.088 C 
ATOM     16  C   UNL     1      -2.845  -4.246   0.999  0.00  0.00    +0.230 C 
ATOM     17  O   UNL     1      -2.447  -4.290   2.143  0.00  0.00    -0.274 OA
ENDBRANCH   6   7
BRANCH   1  18
ATOM     18  O   UNL     1       0.097  -2.854  -0.016  0.00  0.00    -0.420 OA
BRANCH  18  19
ATOM     19  C   UNL     1      -0.086  -2.242   1.171  0.00  0.00    +0.347 C 
ATOM     20  O   UNL     1      -0.173  -2.902   2.187  0.00  0.00    -0.244 OA
BRANCH  19  25
ATOM     21  C   UNL     1      -0.167   1.365   0.136  0.00  0.00    +0.001 A 
ATOM     22  C   UNL     1      -0.355   1.992   1.357  0.00  0.00    +0.003 A 
ATOM     23  C   UNL     1      -0.456   1.247   2.516  0.00  0.00    +0.039 A 
ATOM     24  C   UNL     1      -0.370  -0.132   2.465  0.00  0.00    +0.137 A 
ATOM     25  C   UNL     1      -0.180  -0.771   1.235  0.00  0.00    +0.094 A 
ATOM     26  C   UNL     1      -0.079  -0.009   0.069  0.00  0.00    +0.018 A 
ATOM     27  F   UNL     1      -0.468  -0.860   3.599  0.00  0.00    -0.205 F 
ENDBRANCH  19  25
ENDBRANCH  18  19
ENDBRANCH   1  18
TORSDOF 4
