REMARK  Name = ZINC39523064
REMARK  5 active torsions:
REMARK  status: ('A' for Active; 'I' for Inactive)
REMARK    1  A    between atoms: C_1  and  O_2
REMARK    2  A    between atoms: O_2  and  C_3
REMARK    3  A    between atoms: C_13  and  S_17
REMARK    4  A    between atoms: N_15  and  O_16
REMARK    5  A    between atoms: S_17  and  C_18
REMARK                            x       y       z     vdW  Elec       q    Type
REMARK                         _______ _______ _______ _____ _____    ______ ____
ROOT
ATOM      1  C   UNL     1       0.673  -0.582   1.123  0.00  0.00    +0.120 C 
ATOM      2  C   UNL     1      -0.329  -0.810   2.256  0.00  0.00    +0.032 C 
ATOM      3  C   UNL     1       0.389  -1.429   3.457  0.00  0.00    +0.004 C 
ATOM      4  C   UNL     1       1.008  -2.767   3.046  0.00  0.00    +0.025 C 
ATOM      5  C   UNL     1       2.011  -2.539   1.914  0.00  0.00    +0.050 C 
ATOM      6  C   UNL     1       1.291  -1.921   0.713  0.00  0.00    +0.056 C 
ATOM      7  C   UNL     1       3.111  -1.589   2.392  0.00  0.00    +0.025 C 
ATOM      8  C   UNL     1       3.843  -2.220   3.579  0.00  0.00    +0.004 C 
ATOM      9  C   UNL     1       4.413  -3.576   3.156  0.00  0.00    +0.032 C 
ATOM     10  C   UNL     1       3.275  -4.468   2.656  0.00  0.00    +0.141 C 
ATOM     11  N   UNL     1       2.607  -3.822   1.520  0.00  0.00    -0.172 NA
ENDROOT
BRANCH   1  13
ATOM     12  C   UNL     1      -0.017   1.425   0.010  0.00  0.00    +0.194 C 
ATOM     13  O   UNL     1       0.002  -0.004   0.002  0.00  0.00    -0.380 OA
ENDBRANCH   1  13
BRANCH  11  14
ATOM     14  O   UNL     1       1.603  -4.707   0.929  0.00  0.00    -0.311 OA
ATOM     15  H   UNL     1       1.949  -5.567   0.654  0.00  0.00    +0.237 HD
ENDBRANCH  11  14
BRANCH  10  16
ATOM     16  S   UNL     1       3.948  -6.069   2.131  0.00  0.00    -0.143 S 
ATOM     17  C   UNL     1       4.173  -6.981   3.683  0.00  0.00    +0.086 C 
ENDBRANCH  10  16
TORSDOF 3
