REMARK  Name = ZINC36829989
REMARK  4 active torsions:
REMARK  status: ('A' for Active; 'I' for Inactive)
REMARK    1  A    between atoms: C_1  and  N_2
REMARK    2  A    between atoms: N_7  and  C_8
REMARK    3  A    between atoms: C_8  and  C_10
REMARK    4  A    between atoms: C_10  and  N_11
REMARK                            x       y       z     vdW  Elec       q    Type
REMARK                         _______ _______ _______ _____ _____    ______ ____
ROOT
ATOM      1  N   UNL     1       0.081  -1.657   5.799  0.00  0.00    -0.233 N 
ATOM      2  C   UNL     1      -1.033  -2.227   6.272  0.00  0.00    +0.227 C 
ATOM      3  O   UNL     1      -2.164  -1.899   5.986  0.00  0.00    -0.275 OA
ATOM      4  C   UNL     1      -0.662  -3.346   7.219  0.00  0.00    +0.095 C 
ATOM      5  C   UNL     1      -1.044  -2.908   8.668  0.00  0.00    +0.025 C 
ATOM      6  C   UNL     1       0.112  -3.589   9.487  0.00  0.00    +0.016 C 
ATOM      7  C   UNL     1       1.242  -2.853   8.678  0.00  0.00    +0.025 C 
ATOM      8  C   UNL     1       0.895  -3.322   7.208  0.00  0.00    +0.095 C 
ATOM      9  C   UNL     1       1.218  -2.195   6.254  0.00  0.00    +0.227 C 
ATOM     10  O   UNL     1       2.334  -1.833   5.951  0.00  0.00    -0.275 OA
ATOM     11  C   UNL     1       0.722  -1.412   8.754  0.00  0.00    -0.027 C 
ATOM     12  C   UNL     1      -0.616  -1.438   8.741  0.00  0.00    -0.027 C 
ENDROOT
BRANCH   1  13
ATOM     13  C   UNL     1       0.057  -0.537   4.854  0.00  0.00    +0.214 C 
BRANCH  13  14
ATOM     14  C   UNL     1       0.050  -1.070   3.444  0.00  0.00    +0.256 C 
ATOM     15  O   UNL     1       0.064  -2.271   3.248  0.00  0.00    -0.272 OA
BRANCH  14  22
ATOM     16  C   UNL     1      -0.018   1.461   0.010  0.00  0.00    +0.150 C 
ATOM     17  N   UNL     1       0.002  -0.004   0.002  0.00  0.00    -0.331 N 
ATOM     18  C   UNL     1       0.006  -0.689  -1.173  0.00  0.00    +0.094 A 
ATOM     19  C   UNL     1       0.024  -2.025  -1.103  0.00  0.00    +0.066 A 
ATOM     20  S   UNL     1       0.036  -2.304   0.658  0.00  0.00    -0.061 S 
ATOM     21  C   UNL     1       0.023  -0.702   1.169  0.00  0.00    +0.165 A 
ATOM     22  N   UNL     1       0.029  -0.230   2.418  0.00  0.00    -0.155 NA
ENDBRANCH  14  22
ENDBRANCH  13  14
ENDBRANCH   1  13
TORSDOF 3
