REMARK  Name = ZINC51330264
REMARK  3 active torsions:
REMARK  status: ('A' for Active; 'I' for Inactive)
REMARK    1  A    between atoms: C_5  and  C_7
REMARK    2  A    between atoms: C_10  and  C_11
REMARK    3  A    between atoms: C_10  and  C_13
REMARK                            x       y       z     vdW  Elec       q    Type
REMARK                         _______ _______ _______ _____ _____    ______ ____
ROOT
ATOM      1  C   UNL     1       1.229  -2.186  -0.022  0.00  0.00    +0.050 C 
ATOM      2  C   UNL     1      -0.101  -2.912   0.194  0.00  0.00    +0.040 C 
ATOM      3  C   UNL     1       0.546  -2.895  -1.193  0.00  0.00    +0.122 C 
ENDROOT
BRANCH   3   4
ATOM      4  C   UNL     1      -0.095  -2.033  -2.250  0.00  0.00    +0.129 A 
ATOM      5  N   UNL     1      -0.487  -2.467  -3.478  0.00  0.00    -0.341 N 
ATOM      6  H   UNL     1      -0.404  -3.371  -3.822  0.00  0.00    +0.167 HD
ATOM      7  C   UNL     1      -1.024  -1.385  -4.145  0.00  0.00    +0.066 A 
ATOM      8  C   UNL     1      -1.580  -1.203  -5.404  0.00  0.00    +0.028 A 
ATOM      9  C   UNL     1      -2.037   0.043  -5.775  0.00  0.00    +0.002 A 
ATOM     10  C   UNL     1      -1.945   1.116  -4.899  0.00  0.00    +0.002 A 
ATOM     11  C   UNL     1      -1.401   0.956  -3.656  0.00  0.00    +0.030 A 
ATOM     12  C   UNL     1      -0.931  -0.298  -3.258  0.00  0.00    +0.089 A 
ATOM     13  N   UNL     1      -0.360  -0.766  -2.119  0.00  0.00    -0.231 NA
ENDBRANCH   3   4
BRANCH   1  18
ATOM     14  C   UNL     1      -0.017   1.378   0.010  0.00  0.00    +0.000 A 
ATOM     15  C   UNL     1       1.171   2.086   0.002  0.00  0.00    +0.001 A 
ATOM     16  C   UNL     1       2.377   1.412  -0.013  0.00  0.00    +0.020 A 
ATOM     17  C   UNL     1       2.397   0.029  -0.021  0.00  0.00    +0.044 A 
ATOM     18  C   UNL     1       1.208  -0.679  -0.013  0.00  0.00    -0.024 A 
ATOM     19  C   UNL     1       0.002  -0.004   0.002  0.00  0.00    +0.005 A 
ATOM     20 CL   UNL     1       3.912  -0.818  -0.041  0.00  0.00    -0.083 Cl
ENDBRANCH   1  18
BRANCH   3  21
ATOM     21  C   UNL     1       1.151  -4.147  -1.676  0.00  0.00    +0.078 C 
ATOM     22  N   UNL     1       1.618  -5.113  -2.049  0.00  0.00    -0.196 NA
ENDBRANCH   3  21
TORSDOF 3
