REMARK  Name = ZINC20830534
REMARK  6 active torsions:
REMARK  status: ('A' for Active; 'I' for Inactive)
REMARK    1  A    between atoms: C_6  and  C_7
REMARK    2  A    between atoms: C_10  and  S_13
REMARK    3  A    between atoms: N_11  and  N_12
REMARK    4  A    between atoms: S_13  and  C_14
REMARK    5  A    between atoms: C_14  and  C_15
REMARK    6  A    between atoms: C_18  and  C_20
REMARK                            x       y       z     vdW  Elec       q    Type
REMARK                         _______ _______ _______ _____ _____    ______ ____
ROOT
ATOM      1  C   UNL     1       0.002  -0.004   0.002  0.00  0.00    +0.182 A 
ATOM      2  N   UNL     1       1.035  -0.772   0.262  0.00  0.00    -0.127 NA
ATOM      3  N   UNL     1       0.698  -2.008   0.164  0.00  0.00    -0.121 NA
ATOM      4  C   UNL     1      -0.571  -2.106  -0.164  0.00  0.00    +0.209 A 
ATOM      5  N   UNL     1      -1.060  -0.835  -0.273  0.00  0.00    -0.224 N 
ENDROOT
BRANCH   1  11
ATOM      6  C   UNL     1      -1.234   2.158   0.020  0.00  0.00    +0.013 A 
ATOM      7  C   UNL     1      -1.247   3.538   0.033  0.00  0.00    +0.016 A 
ATOM      8  C   UNL     1      -0.056   4.243   0.025  0.00  0.00    +0.018 A 
ATOM      9  C   UNL     1       1.154   3.570   0.010  0.00  0.00    +0.016 A 
ATOM     10  C   UNL     1       1.179   2.191   0.003  0.00  0.00    +0.013 A 
ATOM     11  C   UNL     1      -0.018   1.474   0.010  0.00  0.00    +0.021 A 
ATOM     12 BR   UNL     1      -0.081   6.134   0.034  0.00  0.00    -0.050 Br
ENDBRANCH   1  11
BRANCH   5  13
ATOM     13  N   UNL     1      -2.335  -0.466  -0.593  0.00  0.00    -0.295 N 
ATOM     14  H   UNL     1      -3.097  -1.234  -0.792  0.00  0.00    +0.163 HD
ATOM     15  H   UNL     1      -2.601   0.600  -0.651  0.00  0.00    +0.163 HD
ENDBRANCH   5  13
BRANCH   4  16
ATOM     16  S   UNL     1      -1.476  -3.598  -0.409  0.00  0.00    -0.075 S 
BRANCH  16  17
ATOM     17  C   UNL     1      -0.173  -4.812  -0.085  0.00  0.00    +0.175 C 
BRANCH  17  18
ATOM     18  C   UNL     1      -0.733  -6.202  -0.241  0.00  0.00    +0.228 A 
ATOM     19  N   UNL     1      -0.756  -6.905  -1.338  0.00  0.00    -0.111 NA
ATOM     20  N   UNL     1      -1.306  -8.044  -1.103  0.00  0.00    -0.103 NA
ATOM     21  C   UNL     1      -1.652  -8.107   0.152  0.00  0.00    +0.322 A 
ATOM     22  O   UNL     1      -1.293  -6.947   0.727  0.00  0.00    -0.416 OA
BRANCH  21  23
ATOM     23  C   UNL     1      -2.325  -9.270   0.834  0.00  0.00    +0.471 C 
ATOM     24  F   UNL     1      -2.429 -10.340  -0.062  0.00  0.00    -0.162 F 
ATOM     25  F   UNL     1      -1.568  -9.662   1.943  0.00  0.00    -0.162 F 
ATOM     26  F   UNL     1      -3.604  -8.887   1.254  0.00  0.00    -0.162 F 
ENDBRANCH  21  23
ENDBRANCH  17  18
ENDBRANCH  16  17
ENDBRANCH   4  16
TORSDOF 6
