REMARK  Name = ZINC39793489
REMARK  4 active torsions:
REMARK  status: ('A' for Active; 'I' for Inactive)
REMARK    1  A    between atoms: C_1  and  C_2
REMARK    2  A    between atoms: C_2  and  C_4
REMARK    3  A    between atoms: C_2  and  C_12
REMARK    4  A    between atoms: N_14  and  C_15
REMARK                            x       y       z     vdW  Elec       q    Type
REMARK                         _______ _______ _______ _____ _____    ______ ____
ROOT
ATOM      1  C   UNL     1       0.734  -0.500   1.223  0.00  0.00    +0.222 C 
ATOM      2  O   UNL     1       1.726  -1.187   1.099  0.00  0.00    -0.275 OA
ATOM      3  N   UNL     1       0.278  -0.191   2.453  0.00  0.00    -0.285 N 
ATOM      4  H   UNL     1      -0.476   0.412   2.554  0.00  0.00    +0.155 HD
ENDROOT
BRANCH   3   5
ATOM      5  C   UNL     1       0.890  -0.738   3.582  0.00  0.00    +0.041 A 
ATOM      6  C   UNL     1       2.250  -0.962   3.596  0.00  0.00    +0.024 A 
ATOM      7  C   UNL     1       2.870  -1.507   4.717  0.00  0.00    +0.002 A 
ATOM      8  C   UNL     1       2.153  -1.832   5.828  0.00  0.00    +0.008 A 
ATOM      9  C   UNL     1       0.765  -1.619   5.855  0.00  0.00    -0.016 A 
ATOM     10  C   UNL     1       0.123  -1.060   4.722  0.00  0.00    +0.003 A 
ATOM     11  C   UNL     1      -1.264  -0.844   4.752  0.00  0.00    +0.010 A 
ATOM     12  C   UNL     1      -1.972  -1.167   5.868  0.00  0.00    +0.001 A 
ATOM     13  C   UNL     1      -1.341  -1.712   6.985  0.00  0.00    +0.001 A 
ATOM     14  C   UNL     1      -0.001  -1.946   6.988  0.00  0.00    +0.008 A 
ENDBRANCH   3   5
BRANCH   1  16
ATOM     15  C   UNL     1      -0.002   1.538   0.017  0.00  0.00    +0.019 C 
ATOM     16  C   UNL     1       0.011   0.008   0.002  0.00  0.00    +0.094 C 
BRANCH  16  17
ATOM     17  C   UNL     1       0.730  -0.482  -1.257  0.00  0.00    +0.153 C 
ATOM     18  C   UNL     1       0.047   0.027  -2.518  0.00  0.00    +0.234 C 
ATOM     19  O   UNL     1      -0.039   1.208  -2.777  0.00  0.00    -0.274 OA
ATOM     20  N   UNL     1      -0.446  -0.909  -3.313  0.00  0.00    -0.246 N 
ATOM     21  C   UNL     1      -0.363  -2.226  -3.049  0.00  0.00    +0.279 C 
ATOM     22  O   UNL     1      -0.782  -3.152  -3.715  0.00  0.00    -0.263 OA
ATOM     23  S   UNL     1       0.510  -2.296  -1.489  0.00  0.00    -0.054 S 
ATOM     24  H   UNL     1      -0.890  -0.631  -4.129  0.00  0.00    +0.158 HD
ENDBRANCH  16  17
ENDBRANCH   1  16
TORSDOF 3
