REMARK  Name = ZINC58647318
REMARK  7 active torsions:
REMARK  status: ('A' for Active; 'I' for Inactive)
REMARK    1  A    between atoms: C_1  and  C_2
REMARK    2  A    between atoms: C_2  and  C_4
REMARK    3  A    between atoms: C_2  and  N_13
REMARK    4  A    between atoms: C_7  and  O_11
REMARK    5  A    between atoms: O_11  and  C_12
REMARK    6  A    between atoms: N_13  and  S_14
REMARK    7  A    between atoms: S_14  and  C_17
REMARK                            x       y       z     vdW  Elec       q    Type
REMARK                         _______ _______ _______ _____ _____    ______ ____
ROOT
ATOM      1  S   UNL     1       2.322  -0.861   1.097  0.00  0.00    +0.059 S 
ATOM      2  O   UNL     1       2.719  -1.271   2.398  0.00  0.00    -0.153 OA
ATOM      3  O   UNL     1       2.483  -1.690  -0.045  0.00  0.00    -0.153 OA
ENDROOT
BRANCH   1   4
ATOM      4  C   UNL     1       3.183   0.638   0.757  0.00  0.00    +0.106 A 
ATOM      5  C   UNL     1       3.401   1.024  -0.557  0.00  0.00    +0.030 A 
ATOM      6  C   UNL     1       4.074   2.195  -0.844  0.00  0.00    +0.028 A 
ATOM      7  C   UNL     1       4.537   2.994   0.190  0.00  0.00    +0.056 A 
ATOM      8  C   UNL     1       4.317   2.603   1.522  0.00  0.00    +0.065 A 
ATOM      9  C   UNL     1       3.632   1.422   1.798  0.00  0.00    +0.043 A 
ATOM     10  C   UNL     1       4.822   3.476   2.598  0.00  0.00    +0.262 A 
ATOM     11  O   UNL     1       4.658   3.184   3.767  0.00  0.00    -0.267 OA
ATOM     12  N   UNL     1       5.471   4.609   2.251  0.00  0.00    -0.275 N 
ATOM     13  H   UNL     1       5.810   5.194   2.945  0.00  0.00    +0.173 HD
ATOM     14  C   UNL     1       5.657   4.938   0.963  0.00  0.00    +0.327 A 
ATOM     15  O   UNL     1       6.248   5.969   0.706  0.00  0.00    -0.247 OA
ATOM     16  N   UNL     1       5.217   4.178  -0.055  0.00  0.00    -0.307 N 
ATOM     17  H   UNL     1       5.376   4.460  -0.969  0.00  0.00    +0.170 HD
ENDBRANCH   1   4
BRANCH   1  18
ATOM     18  N   UNL     1       0.711  -0.489   1.189  0.00  0.00    -0.183 NA
ATOM     19  H   UNL     1       0.236  -0.593   2.029  0.00  0.00    +0.149 HD
BRANCH  18  21
ATOM     20  C   UNL     1      -0.019   1.526   0.010  0.00  0.00    +0.031 C 
ATOM     21  C   UNL     1       0.002  -0.004   0.002  0.00  0.00    +0.103 C 
BRANCH  21  22
ATOM     22  C   UNL     1      -1.412  -0.526   0.013  0.00  0.00    -0.028 A 
ATOM     23  C   UNL     1      -2.122  -0.570   1.198  0.00  0.00    +0.009 A 
ATOM     24  C   UNL     1      -3.418  -1.048   1.211  0.00  0.00    +0.047 A 
ATOM     25  C   UNL     1      -4.008  -1.484   0.034  0.00  0.00    +0.134 A 
ATOM     26  C   UNL     1      -3.293  -1.438  -1.155  0.00  0.00    +0.060 A 
ATOM     27  C   UNL     1      -1.998  -0.953  -1.164  0.00  0.00    +0.024 A 
ATOM     28 BR   UNL     1      -4.092  -2.030  -2.764  0.00  0.00    -0.047 Br
BRANCH  25  29
ATOM     29  O   UNL     1      -5.282  -1.955   0.044  0.00  0.00    -0.494 OA
ATOM     30  C   UNL     1      -5.957  -1.974   1.304  0.00  0.00    +0.277 C 
ENDBRANCH  25  29
ENDBRANCH  21  22
ENDBRANCH  18  21
ENDBRANCH   1  18
TORSDOF 5
