REMARK  Name = ZINC23135707
REMARK  5 active torsions:
REMARK  status: ('A' for Active; 'I' for Inactive)
REMARK    1  A    between atoms: C_1  and  N_2
REMARK    2  A    between atoms: C_3  and  N_10
REMARK    3  A    between atoms: C_11  and  C_13
REMARK    4  A    between atoms: N_16  and  S_19
REMARK    5  A    between atoms: S_19  and  C_22
REMARK                            x       y       z     vdW  Elec       q    Type
REMARK                         _______ _______ _______ _____ _____    ______ ____
ROOT
ATOM      1  C   UNL     1       2.214   0.221  -1.140  0.00  0.00    +0.078 C 
ATOM      2  C   UNL     1       0.808  -0.366  -1.279  0.00  0.00    +0.030 C 
ATOM      3  C   UNL     1      -0.058   0.112  -0.109  0.00  0.00    +0.110 C 
ATOM      4  N   UNL     1      -0.018   1.580  -0.060  0.00  0.00    -0.176 NA
ATOM      5  C   UNL     1       1.288   2.250  -0.017  0.00  0.00    +0.110 C 
ATOM      6  C   UNL     1       2.139   1.748  -1.188  0.00  0.00    +0.030 C 
ENDROOT
BRANCH   1   8
ATOM      7  N   UNL     1       4.366   0.113  -2.355  0.00  0.00    -0.270 N 
ATOM      8  C   UNL     1       3.079  -0.275  -2.271  0.00  0.00    +0.221 C 
ATOM      9  O   UNL     1       2.615  -1.023  -3.106  0.00  0.00    -0.275 OA
ATOM     10  H   UNL     1       4.766   0.850  -1.643  0.00  0.00    +0.156 HD
BRANCH   7  13
ATOM     11  C   UNL     1       7.387  -0.149  -2.157  0.00  0.00    +0.174 C 
ATOM     12  N   UNL     1       6.536  -0.545  -3.282  0.00  0.00    -0.253 N 
ATOM     13  C   UNL     1       5.192  -0.418  -3.346  0.00  0.00    +0.126 A 
ATOM     14  C   UNL     1       4.789  -0.909  -4.551  0.00  0.00    +0.015 A 
ATOM     15  C   UNL     1       5.926  -1.337  -5.241  0.00  0.00    +0.068 A 
ATOM     16  N   UNL     1       6.972  -1.123  -4.480  0.00  0.00    -0.175 NA
ATOM     17  C   UNL     1       5.521  -1.886  -6.592  0.00  0.00    +0.058 C 
ATOM     18  C   UNL     1       4.097  -1.345  -6.839  0.00  0.00    +0.011 C 
ATOM     19  C   UNL     1       3.562  -1.136  -5.406  0.00  0.00    +0.041 C 
ENDBRANCH   7  13
ENDBRANCH   1   8
BRANCH   4  20
ATOM     20  S   UNL     1      -1.419   2.462  -0.061  0.00  0.00    +0.067 S 
ATOM     21  O   UNL     1      -1.089   3.750  -0.563  0.00  0.00    -0.152 OA
ATOM     22  O   UNL     1      -2.415   1.644  -0.660  0.00  0.00    -0.152 OA
BRANCH  20  23
ATOM     23  C   UNL     1      -1.896   2.685   1.621  0.00  0.00    +0.144 A 
ATOM     24  C   UNL     1      -1.566   3.683   2.476  0.00  0.00    +0.038 A 
ATOM     25  C   UNL     1      -2.062   3.652   3.767  0.00  0.00    +0.030 A 
ATOM     26  C   UNL     1      -2.865   2.623   4.137  0.00  0.00    +0.080 A 
ATOM     27  S   UNL     1      -2.944   1.658   2.638  0.00  0.00    -0.057 S 
ATOM     28 CL   UNL     1      -3.623   2.326   5.670  0.00  0.00    -0.076 Cl
ENDBRANCH  20  23
ENDBRANCH   4  20
TORSDOF 4
