REMARK  Name = ZINC67571581
REMARK  4 active torsions:
REMARK  status: ('A' for Active; 'I' for Inactive)
REMARK    1  A    between atoms: C_5  and  C_8
REMARK    2  A    between atoms: C_11  and  C_13
REMARK    3  A    between atoms: C_18  and  C_21
REMARK    4  A    between atoms: C_28  and  C_30
REMARK                            x       y       z     vdW  Elec       q    Type
REMARK                         _______ _______ _______ _____ _____    ______ ____
ROOT
ATOM      1  C   UNL     1       5.471   0.670  -1.489  0.00  0.00    +0.076 C 
ATOM      2  C   UNL     1       6.227   1.431  -0.398  0.00  0.00    +0.013 C 
ATOM      3  C   UNL     1       6.453   0.510   0.803  0.00  0.00    +0.001 C 
ATOM      4  C   UNL     1       7.274  -0.705   0.367  0.00  0.00    +0.013 C 
ATOM      5  C   UNL     1       6.518  -1.466  -0.724  0.00  0.00    +0.076 C 
ATOM      6  C   UNL     1       6.292  -0.545  -1.925  0.00  0.00    +0.025 C 
ENDROOT
BRANCH   1  13
ATOM      7  C   UNL     1       1.532   2.945   0.659  0.00  0.00    +0.004 C 
ATOM      8  C   UNL     1       2.974   3.302   0.291  0.00  0.00    +0.019 C 
ATOM      9  C   UNL     1       3.378   2.537  -0.973  0.00  0.00    +0.108 C 
ATOM     10  N   UNL     1       3.150   1.102  -0.750  0.00  0.00    -0.290 N 
ATOM     11  C   UNL     1       1.822   0.659  -0.306  0.00  0.00    +0.162 C 
ATOM     12  C   UNL     1       1.435   1.445   0.951  0.00  0.00    +0.032 C 
ATOM     13  C   UNL     1       4.141   0.210  -0.951  0.00  0.00    +0.219 C 
ATOM     14  O   UNL     1       3.961  -0.962  -0.699  0.00  0.00    -0.275 OA
BRANCH  11  15
ATOM     15  C   UNL     1       1.860  -0.814   0.009  0.00  0.00    +0.231 C 
ATOM     16  O   UNL     1       2.514  -1.217   0.947  0.00  0.00    -0.274 OA
ATOM     17  N   UNL     1       1.168  -1.684  -0.753  0.00  0.00    -0.328 N 
ATOM     18  H   UNL     1       0.645  -1.362  -1.504  0.00  0.00    +0.145 HD
ATOM     19  H   UNL     1       1.193  -2.633  -0.551  0.00  0.00    +0.145 HD
ENDBRANCH  11  15
ENDBRANCH   1  13
BRANCH   5  20
ATOM     20  C   UNL     1       7.327  -2.663  -1.154  0.00  0.00    +0.219 C 
ATOM     21  O   UNL     1       7.805  -2.703  -2.268  0.00  0.00    -0.275 OA
ATOM     22  N   UNL     1       7.518  -3.688  -0.300  0.00  0.00    -0.290 N 
ATOM     23  C   UNL     1       6.842  -3.713   1.004  0.00  0.00    +0.108 C 
ATOM     24  C   UNL     1       6.090  -5.040   1.144  0.00  0.00    +0.019 C 
ATOM     25  C   UNL     1       7.064  -6.200   0.919  0.00  0.00    +0.004 C 
ATOM     26  C   UNL     1       7.638  -6.117  -0.497  0.00  0.00    +0.032 C 
ATOM     27  C   UNL     1       8.403  -4.805  -0.659  0.00  0.00    +0.162 C 
BRANCH  27  28
ATOM     28  C   UNL     1       8.850  -4.656  -2.091  0.00  0.00    +0.231 C 
ATOM     29  O   UNL     1       8.045  -4.764  -2.991  0.00  0.00    -0.274 OA
ATOM     30  N   UNL     1      10.144  -4.404  -2.370  0.00  0.00    -0.328 N 
ATOM     31  H   UNL     1      10.788  -4.318  -1.649  0.00  0.00    +0.145 HD
ATOM     32  H   UNL     1      10.431  -4.308  -3.291  0.00  0.00    +0.145 HD
ENDBRANCH  27  28
ENDBRANCH   5  20
TORSDOF 4
