REMARK  Name = ZINC05415065
REMARK  8 active torsions:
REMARK  status: ('A' for Active; 'I' for Inactive)
REMARK    1  A    between atoms: C_1  and  C_2
REMARK    2  A    between atoms: C_5  and  N_9
REMARK    3  A    between atoms: C_6  and  C_8
REMARK    4  A    between atoms: C_10  and  S_14
REMARK    5  A    between atoms: S_14  and  C_15
REMARK    6  A    between atoms: C_15  and  C_16
REMARK    7  A    between atoms: N_18  and  C_19
REMARK    8  A    between atoms: C_24  and  C_25
REMARK                            x       y       z     vdW  Elec       q    Type
REMARK                         _______ _______ _______ _____ _____    ______ ____
ROOT
ATOM      1  S   UNL     1       3.317   7.814   0.060  0.00  0.00    -0.075 S 
ENDROOT
BRANCH   1   3
ATOM      2  N   UNL     1       5.269   9.706  -0.572  0.00  0.00    -0.187 N 
ATOM      3  C   UNL     1       4.931   8.419  -0.305  0.00  0.00    +0.214 A 
ATOM      4  N   UNL     1       6.035   7.707  -0.377  0.00  0.00    -0.101 NA
ATOM      5  N   UNL     1       7.037   8.458  -0.664  0.00  0.00    -0.022 NA
ATOM      6  N   UNL     1       6.657   9.682  -0.795  0.00  0.00    -0.038 NA
BRANCH   2  11
ATOM      7  C   UNL     1       1.824  14.213  -0.742  0.00  0.00    +0.044 C 
ATOM      8  C   UNL     1       2.739  13.016  -0.697  0.00  0.00    -0.050 A 
ATOM      9  C   UNL     1       2.390  11.856  -1.364  0.00  0.00    +0.005 A 
ATOM     10  C   UNL     1       3.229  10.759  -1.329  0.00  0.00    +0.028 A 
ATOM     11  C   UNL     1       4.418  10.819  -0.614  0.00  0.00    +0.073 A 
ATOM     12  C   UNL     1       4.765  11.985   0.055  0.00  0.00    -0.025 A 
ATOM     13  C   UNL     1       3.924  13.080   0.011  0.00  0.00    +0.008 A 
ATOM     14  C   UNL     1       6.057  12.056   0.827  0.00  0.00    +0.046 C 
ENDBRANCH   2  11
ENDBRANCH   1   3
BRANCH   1  15
ATOM     15  C   UNL     1       3.682   6.055   0.279  0.00  0.00    +0.173 C 
BRANCH  15  16
ATOM     16  C   UNL     1       2.411   5.316   0.608  0.00  0.00    +0.227 C 
ATOM     17  O   UNL     1       1.361   5.918   0.687  0.00  0.00    -0.275 OA
ATOM     18  N   UNL     1       2.440   3.984   0.815  0.00  0.00    -0.285 N 
ATOM     19  H   UNL     1       3.288   3.514   0.830  0.00  0.00    +0.155 HD
BRANCH  18  20
ATOM     20  C   UNL     1       1.247   3.280   1.008  0.00  0.00    +0.038 A 
ATOM     21  C   UNL     1       0.041   3.825   0.587  0.00  0.00    +0.043 A 
ATOM     22  C   UNL     1      -1.136   3.126   0.778  0.00  0.00    +0.043 A 
ATOM     23  C   UNL     1      -1.113   1.882   1.383  0.00  0.00    +0.020 A 
ATOM     24  C   UNL     1       0.086   1.339   1.808  0.00  0.00    +0.006 A 
ATOM     25  C   UNL     1       1.266   2.033   1.619  0.00  0.00    -0.029 A 
ATOM     26  C   UNL     1       2.572   1.438   2.077  0.00  0.00    +0.045 C 
ATOM     27 CL   UNL     1      -2.644   3.807   0.252  0.00  0.00    -0.083 Cl
ENDBRANCH  18  20
ENDBRANCH  15  16
ENDBRANCH   1  15
TORSDOF 5
