REMARK  Name = ZINC51995606
REMARK  4 active torsions:
REMARK  status: ('A' for Active; 'I' for Inactive)
REMARK    1  A    between atoms: C_1  and  C_2
REMARK    2  A    between atoms: C_8  and  N_10
REMARK    3  A    between atoms: C_11  and  C_13
REMARK    4  A    between atoms: C_13  and  N_14
REMARK                            x       y       z     vdW  Elec       q    Type
REMARK                         _______ _______ _______ _____ _____    ______ ____
ROOT
ATOM      1  N   UNL     1       2.116  -0.004   1.231  0.00  0.00    -0.311 N 
ATOM      2  C   UNL     1       2.795   0.128   2.388  0.00  0.00    +0.227 C 
ATOM      3  O   UNL     1       2.268  -0.174   3.438  0.00  0.00    -0.274 OA
ATOM      4  H   UNL     1       2.538   0.237   0.392  0.00  0.00    +0.149 HD
ENDROOT
BRANCH   1  11
ATOM      5  C   UNL     1      -0.019   1.526   0.010  0.00  0.00    +0.009 C 
ATOM      6  C   UNL     1       0.002  -0.004   0.002  0.00  0.00    +0.006 C 
ATOM      7  C   UNL     1      -1.433  -0.534   0.013  0.00  0.00    +0.005 C 
ATOM      8  C   UNL     1      -1.413  -2.063   0.004  0.00  0.00    +0.000 C 
ATOM      9  C   UNL     1      -0.673  -2.570   1.244  0.00  0.00    +0.002 C 
ATOM     10  C   UNL     1       0.763  -2.041   1.233  0.00  0.00    +0.022 C 
ATOM     11  C   UNL     1       0.742  -0.511   1.242  0.00  0.00    +0.076 C 
ENDBRANCH   1  11
BRANCH   2  12
ATOM     12  C   UNL     1       4.209   0.649   2.377  0.00  0.00    +0.180 C 
BRANCH  12  13
ATOM     13  N   UNL     1       4.723   0.698   3.753  0.00  0.00    -0.286 NA
ATOM     14  C   UNL     1       4.869  -0.656   4.309  0.00  0.00    +0.113 C 
ATOM     15  C   UNL     1       5.360  -0.562   5.756  0.00  0.00    +0.175 C 
ATOM     16  O   UNL     1       6.583   0.179   5.798  0.00  0.00    -0.374 OA
ATOM     17  C   UNL     1       6.465   1.501   5.268  0.00  0.00    +0.135 C 
ATOM     18  C   UNL     1       6.002   1.418   3.811  0.00  0.00    +0.086 C 
ATOM     19  C   UNL     1       5.836   2.832   3.253  0.00  0.00    +0.021 C 
ATOM     20  C   UNL     1       7.182   3.559   3.314  0.00  0.00    +0.002 C 
ATOM     21  C   UNL     1       7.663   3.631   4.765  0.00  0.00    +0.003 C 
ATOM     22  C   UNL     1       7.816   2.215   5.326  0.00  0.00    +0.033 C 
ENDBRANCH  12  13
ENDBRANCH   2  12
TORSDOF 3
