REMARK  Name = ZINC16874826
REMARK  11 active torsions:
REMARK  status: ('A' for Active; 'I' for Inactive)
REMARK    1  A    between atoms: C_1  and  N_2
REMARK    2  A    between atoms: C_3  and  C_23
REMARK    3  A    between atoms: N_5  and  C_8
REMARK    4  A    between atoms: C_8  and  N_57
REMARK    5  A    between atoms: C_9  and  N_57
REMARK    6  A    between atoms: C_10  and  C_11
REMARK    7  A    between atoms: C_10  and  N_57
REMARK    8  A    between atoms: C_16  and  O_21
REMARK    9  A    between atoms: O_21  and  C_22
REMARK   10  A    between atoms: C_23  and  O_24
REMARK   11  A    between atoms: O_24  and  C_25
REMARK                            x       y       z     vdW  Elec       q    Type
REMARK                         _______ _______ _______ _____ _____    ______ ____
ROOT
ATOM      1  C   UNL     1      -1.257  -3.290  -0.753  0.00  0.00    +0.072 C 
ENDROOT
BRANCH   1   6
ATOM      2  C   UNL     1       2.194  -0.313   1.221  0.00  0.00    +0.152 C 
ATOM      3  N   UNL     1       0.988  -0.793   0.542  0.00  0.00    -0.307 N 
ATOM      4  C   UNL     1       0.002  -0.004   0.002  0.00  0.00    +0.170 A 
ATOM      5  N   UNL     1      -0.904  -0.767  -0.520  0.00  0.00    -0.154 NA
ATOM      6  N   UNL     1      -0.520  -2.100  -0.321  0.00  0.00    -0.257 N 
ATOM      7  C   UNL     1       0.655  -2.084   0.344  0.00  0.00    +0.176 A 
ATOM      8  S   UNL     1       1.559  -3.451   0.837  0.00  0.00    -0.011 S 
BRANCH   4   9
ATOM      9  C   UNL     1      -0.018   1.503   0.010  0.00  0.00    +0.305 C 
BRANCH   9  10
ATOM     10  O   UNL     1      -0.687   1.964   1.186  0.00  0.00    -0.483 OA
BRANCH  10  11
ATOM     11  C   UNL     1      -0.793   3.309   1.349  0.00  0.00    +0.139 A 
ATOM     12  C   UNL     1      -0.259   4.168   0.399  0.00  0.00    +0.047 A 
ATOM     13  C   UNL     1      -0.373   5.535   0.563  0.00  0.00    +0.004 A 
ATOM     14  C   UNL     1      -1.008   6.048   1.679  0.00  0.00    +0.002 A 
ATOM     15  C   UNL     1      -1.537   5.195   2.630  0.00  0.00    +0.023 A 
ATOM     16  C   UNL     1      -1.431   3.826   2.468  0.00  0.00    +0.083 A 
ATOM     17 CL   UNL     1      -2.094   2.755   3.663  0.00  0.00    -0.080 Cl
ENDBRANCH  10  11
ENDBRANCH   9  10
ENDBRANCH   4   9
ENDBRANCH   1   6
BRANCH   1  19
ATOM     18  C   UNL     1      -1.201  -2.648  -3.087  0.00  0.00    -0.093 C 
ATOM     19  N   UNL     1      -0.793  -3.673  -2.103  0.00  0.00    +0.394 N 
ATOM     20  H   UNL     1       0.232  -3.741  -2.097  0.00  0.00    -0.079 HD
BRANCH  19  21
ATOM     21  C   UNL     1      -1.359  -4.986  -2.478  0.00  0.00    -0.041 C 
BRANCH  21  22
ATOM     22  C   UNL     1      -0.702  -5.453  -3.751  0.00  0.00    -0.063 A 
ATOM     23  C   UNL     1      -1.278  -5.130  -4.979  0.00  0.00    +0.002 A 
ATOM     24  C   UNL     1      -0.708  -5.532  -6.147  0.00  0.00    +0.009 A 
ATOM     25  C   UNL     1       0.474  -6.293  -6.119  0.00  0.00    -0.014 A 
ATOM     26  C   UNL     1       1.087  -6.730  -7.305  0.00  0.00    +0.054 A 
ATOM     27  C   UNL     1       2.235  -7.468  -7.239  0.00  0.00    +0.121 A 
ATOM     28  C   UNL     1       2.808  -7.795  -6.006  0.00  0.00    +0.046 A 
ATOM     29  C   UNL     1       2.238  -7.387  -4.841  0.00  0.00    +0.012 A 
ATOM     30  C   UNL     1       1.057  -6.626  -4.871  0.00  0.00    -0.017 A 
ATOM     31  C   UNL     1       0.442  -6.188  -3.686  0.00  0.00    +0.010 A 
BRANCH  27  32
ATOM     32  O   UNL     1       2.827  -7.889  -8.387  0.00  0.00    -0.495 OA
ATOM     33  C   UNL     1       4.025  -8.658  -8.255  0.00  0.00    +0.277 C 
ENDBRANCH  27  32
ENDBRANCH  21  22
ENDBRANCH  19  21
ENDBRANCH   1  19
TORSDOF 8
