REMARK  Name = ZINC00262338
REMARK  5 active torsions:
REMARK  status: ('A' for Active; 'I' for Inactive)
REMARK    1  A    between atoms: C_3  and  O_26
REMARK    2  A    between atoms: C_6  and  C_7
REMARK    3  A    between atoms: C_16  and  C_24
REMARK    4  A    between atoms: C_18  and  C_19
REMARK    5  A    between atoms: C_18  and  C_21
REMARK                            x       y       z     vdW  Elec       q    Type
REMARK                         _______ _______ _______ _____ _____    ______ ____
ROOT
ATOM      1  C   UNL     1      -1.636   0.503  -1.829  0.00  0.00    +0.066 C 
ATOM      2  C   UNL     1      -0.805   1.503  -1.023  0.00  0.00    +0.027 C 
ATOM      3  C   UNL     1      -0.285   0.899   0.261  0.00  0.00    +0.009 C 
ATOM      4  C   UNL     1      -1.147   1.288   1.461  0.00  0.00    +0.005 C 
ATOM      5  C   UNL     1      -1.153   2.818   1.577  0.00  0.00    +0.027 C 
ATOM      6  C   UNL     1      -1.763   3.371   0.315  0.00  0.00    -0.026 C 
ATOM      7  C   UNL     1      -1.615   2.752  -0.840  0.00  0.00    -0.047 C 
ATOM      8  C   UNL     1      -2.325   3.274  -2.038  0.00  0.00    +0.164 C 
ATOM      9  C   UNL     1      -2.459   2.480  -3.130  0.00  0.00    +0.065 C 
ATOM     10  C   UNL     1      -1.908   1.089  -3.215  0.00  0.00    +0.188 C 
ATOM     11  N   UNL     1      -3.135   2.974  -4.210  0.00  0.00    -0.304 NA
ATOM     12  H   UNL     1      -3.247   2.428  -5.004  0.00  0.00    +0.186 HD
ENDROOT
BRANCH   1  18
ATOM     13  C   UNL     1       0.468  -0.771  -2.292  0.00  0.00    +0.007 A 
ATOM     14  C   UNL     1       1.168  -1.956  -2.411  0.00  0.00    +0.045 A 
ATOM     15  C   UNL     1       0.519  -3.167  -2.214  0.00  0.00    +0.117 A 
ATOM     16  C   UNL     1      -0.830  -3.184  -1.892  0.00  0.00    +0.045 A 
ATOM     17  C   UNL     1      -1.525  -1.996  -1.768  0.00  0.00    +0.007 A 
ATOM     18  C   UNL     1      -0.876  -0.791  -1.965  0.00  0.00    -0.041 A 
BRANCH  15  19
ATOM     19  O   UNL     1       1.204  -4.334  -2.337  0.00  0.00    -0.507 OA
ATOM     20  H   UNL     1       1.198  -4.701  -3.231  0.00  0.00    +0.292 HD
ENDBRANCH  15  19
ENDBRANCH   1  18
BRANCH  10  21
ATOM     21  C   UNL     1      -0.650   1.117  -3.979  0.00  0.00    +0.091 C 
ATOM     22  N   UNL     1       0.321   1.139  -4.569  0.00  0.00    -0.195 NA
ENDBRANCH  10  21
BRANCH  10  23
ATOM     23  C   UNL     1      -2.877   0.231  -3.917  0.00  0.00    +0.091 C 
ATOM     24  N   UNL     1      -3.624  -0.430  -4.458  0.00  0.00    -0.195 NA
ENDBRANCH  10  23
BRANCH   8  25
ATOM     25  C   UNL     1      -2.860   4.602  -2.040  0.00  0.00    +0.076 C 
ATOM     26  N   UNL     1      -3.285   5.656  -2.041  0.00  0.00    -0.196 NA
ENDBRANCH   8  25
TORSDOF 5
