REMARK  Name = ZINC19800109
REMARK  9 active torsions:
REMARK  status: ('A' for Active; 'I' for Inactive)
REMARK    1  A    between atoms: C_1  and  C_2
REMARK    2  A    between atoms: N_5  and  C_10
REMARK    3  A    between atoms: N_8  and  C_9
REMARK    4  A    between atoms: C_10  and  C_11
REMARK    5  A    between atoms: C_14  and  S_23
REMARK    6  A    between atoms: N_15  and  C_16
REMARK    7  A    between atoms: C_16  and  C_17
REMARK    8  A    between atoms: S_23  and  C_26
REMARK    9  A    between atoms: C_26  and  C_27
REMARK                            x       y       z     vdW  Elec       q    Type
REMARK                         _______ _______ _______ _____ _____    ______ ____
ROOT
ATOM      1  C   UNL     1       0.041   1.226   0.015  0.00  0.00    +0.054 A 
ATOM      2  C   UNL     1       0.259  -0.094  -0.142  0.00  0.00    +0.137 A 
ATOM      3  N   UNL     1       1.582  -0.306  -0.081  0.00  0.00    -0.220 NA
ATOM      4  C   UNL     1       2.192   0.832   0.107  0.00  0.00    +0.251 A 
ATOM      5  N   UNL     1       1.268   1.813   0.172  0.00  0.00    -0.312 N 
ENDROOT
BRANCH   4   6
ATOM      6  S   UNL     1       3.935   1.051   0.251  0.00  0.00    +0.030 S 
ATOM      7  O   UNL     1       4.089   2.233   1.023  0.00  0.00    -0.166 OA
ATOM      8  O   UNL     1       4.418  -0.196   0.731  0.00  0.00    -0.166 OA
BRANCH   6   9
ATOM      9  C   UNL     1       4.511   1.333  -1.446  0.00  0.00    +0.179 C 
BRANCH   9  10
ATOM     10  C   UNL     1       6.027   1.538  -1.442  0.00  0.00    +0.011 C 
ATOM     11  C   UNL     1       6.557   2.900  -1.895  0.00  0.00    +0.005 C 
ATOM     12  C   UNL     1       6.725   1.675  -2.797  0.00  0.00    +0.005 C 
ENDBRANCH   9  10
ENDBRANCH   6   9
ENDBRANCH   4   6
BRANCH   1  13
ATOM     13  C   UNL     1      -1.295   1.923   0.010  0.00  0.00    +0.139 C 
BRANCH  13  17
ATOM     14  C   UNL     1       0.115   4.800  -3.724  0.00  0.00    -0.012 C 
ATOM     15  C   UNL     1      -0.970   3.852  -3.208  0.00  0.00    -0.058 C 
ATOM     16  C   UNL     1      -0.575   3.330  -1.825  0.00  0.00    +0.069 C 
ATOM     17  N   UNL     1      -1.599   2.389  -1.349  0.00  0.00    -0.300 NA
ATOM     18  C   UNL     1      -1.742   1.257  -2.275  0.00  0.00    +0.066 C 
ATOM     19  C   UNL     1      -2.136   1.779  -3.658  0.00  0.00    -0.063 C 
ATOM     20  N   UNL     1      -1.112   2.720  -4.134  0.00  0.00    +0.381 N 
ATOM     21  C   UNL     1      -1.416   3.186  -5.494  0.00  0.00    -0.096 C 
ATOM     22  H   UNL     1      -0.150   2.186  -4.169  0.00  0.00    -0.082 HD
ENDBRANCH  13  17
ENDBRANCH   1  13
BRANCH   5  23
ATOM     23  C   UNL     1       1.528   3.241   0.374  0.00  0.00    +0.128 C 
BRANCH  23  24
ATOM     24  C   UNL     1       1.662   3.529   1.871  0.00  0.00    +0.009 C 
ATOM     25  C   UNL     1       0.319   3.278   2.560  0.00  0.00    +0.005 C 
ATOM     26  C   UNL     1       0.452   3.565   4.057  0.00  0.00    +0.000 C 
ATOM     27  C   UNL     1       0.866   5.024   4.261  0.00  0.00    +0.000 C 
ATOM     28  C   UNL     1       2.208   5.275   3.572  0.00  0.00    +0.000 C 
ATOM     29  C   UNL     1       2.075   4.987   2.075  0.00  0.00    +0.005 C 
ENDBRANCH  23  24
ENDBRANCH   5  23
TORSDOF 7
