REMARK  Name = ZINC37552424
REMARK  7 active torsions:
REMARK  status: ('A' for Active; 'I' for Inactive)
REMARK    1  A    between atoms: C_1  and  C_2
REMARK    2  A    between atoms: N_8  and  S_9
REMARK    3  A    between atoms: S_9  and  N_12
REMARK    4  A    between atoms: N_12  and  C_13
REMARK    5  A    between atoms: C_16  and  C_19
REMARK    6  A    between atoms: C_20  and  C_21
REMARK    7  A    between atoms: C_21  and  O_22
REMARK                            x       y       z     vdW  Elec       q    Type
REMARK                         _______ _______ _______ _____ _____    ______ ____
ROOT
ATOM      1  N   UNL     1       0.175   0.891   3.499  0.00  0.00    -0.206 N 
ATOM      2  H   UNL     1       0.401   0.637   4.407  0.00  0.00    +0.175 HD
ENDROOT
BRANCH   1   3
ATOM      3  C   UNL     1      -1.097   1.385   3.207  0.00  0.00    +0.049 A 
ATOM      4  C   UNL     1      -1.236   2.519   2.416  0.00  0.00    +0.026 A 
ATOM      5  C   UNL     1      -2.491   3.009   2.126  0.00  0.00    +0.018 A 
ATOM      6  C   UNL     1      -3.624   2.365   2.628  0.00  0.00    +0.025 A 
ATOM      7  C   UNL     1      -3.481   1.226   3.422  0.00  0.00    +0.018 A 
ATOM      8  C   UNL     1      -2.223   0.738   3.704  0.00  0.00    +0.026 A 
BRANCH   6   9
ATOM      9  C   UNL     1      -4.929   2.872   2.329  0.00  0.00    -0.064 C 
ATOM     10  C   UNL     1      -6.000   3.287   2.084  0.00  0.00    -0.069 C 
BRANCH  10  11
ATOM     11  C   UNL     1      -7.342   3.808   1.776  0.00  0.00    +0.244 C 
BRANCH  11  12
ATOM     12  O   UNL     1      -8.327   2.982   2.400  0.00  0.00    -0.383 OA
ATOM     13  H   UNL     1      -9.237   3.267   2.239  0.00  0.00    +0.211 HD
ENDBRANCH  11  12
ENDBRANCH  10  11
ENDBRANCH   6   9
ENDBRANCH   1   3
BRANCH   1  14
ATOM     14  S   UNL     1       1.300   0.738   2.293  0.00  0.00    +0.112 S 
ATOM     15  O   UNL     1       2.430   0.098   2.871  0.00  0.00    -0.138 OA
ATOM     16  O   UNL     1       1.385   2.004   1.653  0.00  0.00    -0.138 OA
BRANCH  14  23
ATOM     17  C   UNL     1       1.362  -2.053   2.765  0.00  0.00    +0.026 C 
ATOM     18  C   UNL     1       0.632  -1.758   1.453  0.00  0.00    +0.078 C 
ATOM     19  C   UNL     1       1.317  -2.507   0.305  0.00  0.00    +0.020 C 
ATOM     20  C   UNL     1       0.671  -2.100  -1.021  0.00  0.00    +0.003 C 
ATOM     21  C   UNL     1       0.860  -0.598  -1.243  0.00  0.00    +0.017 C 
ATOM     22  C   UNL     1       0.170   0.172  -0.113  0.00  0.00    +0.111 C 
ATOM     23  N   UNL     1       0.680  -0.316   1.176  0.00  0.00    -0.161 NA
ENDBRANCH  14  23
ENDBRANCH   1  14
TORSDOF 6
