REMARK  Name = ZINC13149259
REMARK  8 active torsions:
REMARK  status: ('A' for Active; 'I' for Inactive)
REMARK    1  A    between atoms: C_1  and  C_2
REMARK    2  A    between atoms: C_5  and  C_30
REMARK    3  A    between atoms: C_6  and  S_8
REMARK    4  A    between atoms: S_8  and  N_11
REMARK    5  A    between atoms: C_15  and  O_29
REMARK    6  A    between atoms: N_25  and  C_26
REMARK    7  A    between atoms: C_26  and  C_27
REMARK    8  A    between atoms: C_27  and  O_28
REMARK                            x       y       z     vdW  Elec       q    Type
REMARK                         _______ _______ _______ _____ _____    ______ ____
ROOT
ATOM      1  N   UNL     1      -1.366  -3.816   2.801  0.00  0.00    -0.128 NA
ATOM      2  C   UNL     1      -1.573  -4.645   3.793  0.00  0.00    +0.095 C 
ATOM      3  C   UNL     1      -2.772  -5.515   3.878  0.00  0.00    +0.054 C 
ATOM      4  C   UNL     1      -3.302  -5.691   5.116  0.00  0.00    +0.073 C 
ATOM      5  C   UNL     1      -2.693  -4.982   6.287  0.00  0.00    +0.235 C 
ATOM      6  C   UNL     1      -1.197  -4.980   6.201  0.00  0.00    +0.026 A 
ATOM      7  C   UNL     1      -0.619  -4.798   4.931  0.00  0.00    +0.011 A 
ATOM      8  C   UNL     1       0.754  -4.766   4.775  0.00  0.00    +0.010 A 
ATOM      9  C   UNL     1       1.564  -4.934   5.885  0.00  0.00    +0.001 A 
ATOM     10  C   UNL     1       1.001  -5.130   7.133  0.00  0.00    +0.000 A 
ATOM     11  C   UNL     1      -0.384  -5.148   7.296  0.00  0.00    +0.010 A 
ATOM     12  O   UNL     1      -3.188  -5.366   7.538  0.00  0.00    -0.339 OA
ATOM     13  C   UNL     1      -3.929  -6.562   7.667  0.00  0.00    +0.183 C 
ATOM     14  C   UNL     1      -4.992  -6.691   6.583  0.00  0.00    +0.133 C 
ATOM     15  N   UNL     1      -4.377  -6.525   5.267  0.00  0.00    -0.324 N 
ENDROOT
BRANCH   1  16
ATOM     16  S   UNL     1      -0.092  -2.760   2.856  0.00  0.00    +0.099 S 
ATOM     17  O   UNL     1       1.001  -3.408   2.220  0.00  0.00    -0.146 OA
ATOM     18  O   UNL     1      -0.020  -2.279   4.192  0.00  0.00    -0.146 OA
BRANCH  16  24
ATOM     19  C   UNL     1      -1.198   2.313   2.248  0.00  0.00    +0.044 C 
ATOM     20  C   UNL     1      -1.017   0.952   1.626  0.00  0.00    -0.049 A 
ATOM     21  C   UNL     1      -1.183   0.787   0.263  0.00  0.00    +0.004 A 
ATOM     22  C   UNL     1      -1.016  -0.461  -0.307  0.00  0.00    +0.005 A 
ATOM     23  C   UNL     1      -0.683  -1.544   0.485  0.00  0.00    -0.024 A 
ATOM     24  C   UNL     1      -0.516  -1.379   1.847  0.00  0.00    +0.116 A 
ATOM     25  C   UNL     1      -0.678  -0.130   2.417  0.00  0.00    +0.032 A 
ATOM     26  C   UNL     1      -0.502  -2.905  -0.137  0.00  0.00    +0.046 C 
ENDBRANCH  16  24
ENDBRANCH   1  16
BRANCH   5  27
ATOM     27  O   UNL     1      -3.082  -3.614   6.145  0.00  0.00    -0.356 OA
ATOM     28  H   UNL     1      -2.750  -3.036   6.846  0.00  0.00    +0.213 HD
ENDBRANCH   5  27
BRANCH  15  29
ATOM     29  C   UNL     1      -4.912  -7.250   4.112  0.00  0.00    +0.133 C 
BRANCH  29  30
ATOM     30  C   UNL     1      -4.207  -8.602   3.986  0.00  0.00    +0.174 C 
BRANCH  30  31
ATOM     31  O   UNL     1      -4.524  -9.411   5.120  0.00  0.00    -0.393 OA
ATOM     32  H   UNL     1      -4.110 -10.285   5.108  0.00  0.00    +0.209 HD
ENDBRANCH  30  31
ENDBRANCH  29  30
ENDBRANCH  15  29
TORSDOF 6
