REMARK  Name = ZINC25020048
REMARK  7 active torsions:
REMARK  status: ('A' for Active; 'I' for Inactive)
REMARK    1  A    between atoms: C_1  and  C_2
REMARK    2  A    between atoms: C_7  and  N_12
REMARK    3  A    between atoms: C_9  and  C_11
REMARK    4  A    between atoms: C_13  and  C_15
REMARK    5  A    between atoms: C_15  and  C_17
REMARK    6  A    between atoms: C_15  and  S_18
REMARK    7  A    between atoms: S_18  and  C_19
REMARK                            x       y       z     vdW  Elec       q    Type
REMARK                         _______ _______ _______ _____ _____    ______ ____
ROOT
ATOM      1  C   UNL     1       3.906   1.759   2.893  0.00  0.00    +0.137 C 
ATOM      2  C   UNL     1       4.959   0.732   2.473  0.00  0.00    +0.029 C 
ENDROOT
BRANCH   1   4
ATOM      3  N   UNL     1       2.125   1.570   1.186  0.00  0.00    -0.311 N 
ATOM      4  C   UNL     1       3.177   2.259   1.672  0.00  0.00    +0.226 C 
ATOM      5  O   UNL     1       3.538   3.280   1.126  0.00  0.00    -0.275 OA
ATOM      6  H   UNL     1       1.799   0.644   1.681  0.00  0.00    +0.149 HD
BRANCH   3  12
ATOM      7  C   UNL     1      -1.433  -0.534   0.013  0.00  0.00    +0.008 C 
ATOM      8  C   UNL     1       0.002  -0.004   0.002  0.00  0.00    -0.009 C 
ATOM      9  C   UNL     1       0.718  -0.497  -1.257  0.00  0.00    +0.003 C 
ATOM     10  C   UNL     1       2.154   0.032  -1.268  0.00  0.00    +0.002 C 
ATOM     11  C   UNL     1       2.133   1.562  -1.259  0.00  0.00    +0.022 C 
ATOM     12  C   UNL     1       1.417   2.055  -0.000  0.00  0.00    +0.076 C 
ATOM     13  C   UNL     1      -0.019   1.526   0.010  0.00  0.00    +0.009 C 
ATOM     14  C   UNL     1      -0.735   2.019   1.269  0.00  0.00    +0.009 C 
ENDBRANCH   3  12
ENDBRANCH   1   4
BRANCH   1  15
ATOM     15  S   UNL     1       4.718   3.152   3.724  0.00  0.00    -0.073 S 
BRANCH  15  16
ATOM     16  C   UNL     1       5.391   2.441   5.189  0.00  0.00    +0.198 A 
ATOM     17  N   UNL     1       5.293   1.185   5.541  0.00  0.00    -0.121 NA
ATOM     18  N   UNL     1       5.958   1.025   6.764  0.00  0.00    -0.121 NA
ATOM     19  C   UNL     1       6.433   2.185   7.107  0.00  0.00    +0.202 A 
ATOM     20  N   UNL     1       6.117   3.119   6.156  0.00  0.00    -0.264 N 
ATOM     21  C   UNL     1       6.543   4.440   6.361  0.00  0.00    +0.065 A 
ATOM     22  C   UNL     1       6.315   5.533   5.510  0.00  0.00    +0.027 A 
ATOM     23  C   UNL     1       6.795   6.783   5.825  0.00  0.00    +0.002 A 
ATOM     24  C   UNL     1       7.515   7.003   6.987  0.00  0.00    +0.001 A 
ATOM     25  C   UNL     1       7.755   5.943   7.843  0.00  0.00    +0.017 A 
ATOM     26  C   UNL     1       7.274   4.694   7.526  0.00  0.00    +0.040 A 
ATOM     27  S   UNL     1       7.350   3.106   8.319  0.00  0.00    -0.048 S 
ENDBRANCH  15  16
ENDBRANCH   1  15
TORSDOF 4
