REMARK  Name = ZINC05000193
REMARK  7 active torsions:
REMARK  status: ('A' for Active; 'I' for Inactive)
REMARK    1  A    between atoms: C_1  and  C_2
REMARK    2  A    between atoms: C_2  and  O_3
REMARK    3  A    between atoms: O_3  and  C_4
REMARK    4  A    between atoms: C_7  and  N_10
REMARK    5  A    between atoms: C_11  and  C_13
REMARK    6  A    between atoms: C_16  and  O_30
REMARK    7  A    between atoms: N_22  and  C_23
REMARK                            x       y       z     vdW  Elec       q    Type
REMARK                         _______ _______ _______ _____ _____    ______ ____
ROOT
ATOM      1  C   UNL     1       0.154  -0.070  -0.044  0.00  0.00    +0.166 C 
ATOM      2  C   UNL     1       1.635  -0.504  -0.023  0.00  0.00    +0.065 C 
ATOM      3  C   UNL     1       2.350   0.731   0.585  0.00  0.00    +0.134 C 
ATOM      4  C   UNL     1       1.518   1.895  -0.007  0.00  0.00    +0.141 C 
ATOM      5  N   UNL     1       0.130   1.400  -0.018  0.00  0.00    -0.271 N 
ATOM      6  C   UNL     1      -0.978   2.167  -0.011  0.00  0.00    +0.307 C 
ATOM      7  O   UNL     1      -2.077   1.647  -0.027  0.00  0.00    -0.252 OA
ATOM      8  N   UNL     1      -0.868   3.510   0.014  0.00  0.00    -0.267 N 
ATOM      9  H   UNL     1       0.005   3.926  -0.056  0.00  0.00    +0.156 HD
ENDROOT
BRANCH   8  10
ATOM     10  C   UNL     1      -2.014   4.304   0.141  0.00  0.00    +0.070 A 
ATOM     11  C   UNL     1      -3.156   3.788   0.739  0.00  0.00    +0.026 A 
ATOM     12  C   UNL     1      -4.283   4.576   0.868  0.00  0.00    +0.002 A 
ATOM     13  C   UNL     1      -4.281   5.874   0.392  0.00  0.00    +0.003 A 
ATOM     14  C   UNL     1      -3.148   6.391  -0.209  0.00  0.00    +0.040 A 
ATOM     15  C   UNL     1      -2.014   5.610  -0.337  0.00  0.00    +0.145 A 
ATOM     16  F   UNL     1      -0.907   6.115  -0.925  0.00  0.00    -0.204 F 
ENDBRANCH   8  10
BRANCH   1  18
ATOM     17  N   UNL     1      -0.939  -1.847  -1.372  0.00  0.00    -0.284 N 
ATOM     18  C   UNL     1      -0.512  -0.571  -1.300  0.00  0.00    +0.238 C 
ATOM     19  O   UNL     1      -0.663   0.174  -2.245  0.00  0.00    -0.273 OA
ATOM     20  H   UNL     1      -0.758  -2.462  -0.644  0.00  0.00    +0.155 HD
BRANCH  17  24
ATOM     21  C   UNL     1      -3.043  -3.154  -4.728  0.00  0.00    +0.121 A 
ATOM     22  C   UNL     1      -2.025  -2.221  -4.867  0.00  0.00    +0.047 A 
ATOM     23  C   UNL     1      -1.328  -1.788  -3.756  0.00  0.00    +0.027 A 
ATOM     24  C   UNL     1      -1.646  -2.286  -2.500  0.00  0.00    +0.034 A 
ATOM     25  C   UNL     1      -2.661  -3.224  -2.362  0.00  0.00    +0.027 A 
ATOM     26  C   UNL     1      -3.361  -3.652  -3.473  0.00  0.00    +0.047 A 
BRANCH  21  27
ATOM     27  O   UNL     1      -3.728  -3.580  -5.822  0.00  0.00    -0.492 OA
BRANCH  27  29
ATOM     28  C   UNL     1      -5.417  -4.897  -6.942  0.00  0.00    +0.048 C 
ATOM     29  C   UNL     1      -4.763  -4.541  -5.605  0.00  0.00    +0.225 C 
ENDBRANCH  27  29
ENDBRANCH  21  27
ENDBRANCH  17  24
ENDBRANCH   1  18
BRANCH   3  30
ATOM     30  O   UNL     1       3.710   0.801   0.151  0.00  0.00    -0.390 OA
ATOM     31  H   UNL     1       4.198   1.557   0.506  0.00  0.00    +0.210 HD
ENDBRANCH   3  30
TORSDOF 6
