REMARK  Name = ZINC44592156
REMARK  5 active torsions:
REMARK  status: ('A' for Active; 'I' for Inactive)
REMARK    1  A    between atoms: C_1  and  N_2
REMARK    2  A    between atoms: C_6  and  C_8
REMARK    3  A    between atoms: C_8  and  C_9
REMARK    4  A    between atoms: C_9  and  N_10
REMARK    5  A    between atoms: C_18  and  C_20
REMARK                            x       y       z     vdW  Elec       q    Type
REMARK                         _______ _______ _______ _____ _____    ______ ____
ROOT
ATOM      1  N   UNL     1      -3.691  -6.236   0.004  0.00  0.00    +0.392 N 
ATOM      2  C   UNL     1      -3.080  -6.705  -1.248  0.00  0.00    -0.072 C 
ATOM      3  C   UNL     1      -2.759  -8.203  -1.115  0.00  0.00    +0.024 C 
ATOM      4  C   UNL     1      -3.969  -8.874  -0.550  0.00  0.00    -0.010 A 
ATOM      5  C   UNL     1      -5.042  -8.260   0.023  0.00  0.00    -0.040 A 
ATOM      6  C   UNL     1      -6.064  -9.090   0.477  0.00  0.00    +0.010 A 
ATOM      7  C   UNL     1      -5.956 -10.432   0.342  0.00  0.00    +0.045 A 
ATOM      8  S   UNL     1      -4.366 -10.597  -0.457  0.00  0.00    -0.101 S 
ATOM      9  C   UNL     1      -5.063  -6.739   0.135  0.00  0.00    +0.078 C 
ATOM     10  H   UNL     1      -3.141  -6.565   0.783  0.00  0.00    -0.080 HD
ENDROOT
BRANCH   9  11
ATOM     11  C   UNL     1      -5.622  -6.339   1.476  0.00  0.00    +0.347 C 
ATOM     12  O   UNL     1      -6.807  -6.497   1.715  0.00  0.00    -0.248 OA
ATOM     13  O   UNL     1      -4.888  -5.857   2.323  0.00  0.00    -0.248 OA
ENDBRANCH   9  11
BRANCH   1  14
ATOM     14  C   UNL     1      -3.710  -4.768   0.012  0.00  0.00    -0.068 C 
BRANCH  14  15
ATOM     15  C   UNL     1      -2.275  -4.238   0.001  0.00  0.00    +0.078 C 
BRANCH  15  21
ATOM     16  C   UNL     1      -0.018   1.461   0.010  0.00  0.00    +0.129 C 
ATOM     17  N   UNL     1       0.002  -0.004   0.002  0.00  0.00    -0.302 N 
ATOM     18  C   UNL     1      -1.156  -0.694   0.009  0.00  0.00    +0.306 C 
ATOM     19  O   UNL     1      -2.216  -0.101   0.023  0.00  0.00    -0.252 OA
ATOM     20  N   UNL     1      -1.137  -2.041   0.002  0.00  0.00    -0.240 N 
ATOM     21  C   UNL     1      -2.295  -2.731   0.009  0.00  0.00    +0.219 C 
ATOM     22  O   UNL     1      -3.353  -2.139   0.023  0.00  0.00    -0.275 OA
ATOM     23  H   UNL     1       0.849  -0.478  -0.009  0.00  0.00    +0.150 HD
ATOM     24  H   UNL     1      -0.291  -2.515  -0.009  0.00  0.00    +0.159 HD
ENDBRANCH  15  21
ENDBRANCH  14  15
ENDBRANCH   1  14
TORSDOF 4
