REMARK  Name = ZINC65406801
REMARK  6 active torsions:
REMARK  status: ('A' for Active; 'I' for Inactive)
REMARK    1  A    between atoms: C_1  and  C_2
REMARK    2  A    between atoms: C_2  and  C_3
REMARK    3  A    between atoms: C_2  and  C_4
REMARK    4  A    between atoms: C_2  and  C_5
REMARK    5  A    between atoms: N_8  and  C_10
REMARK    6  A    between atoms: C_15  and  C_17
REMARK                            x       y       z     vdW  Elec       q    Type
REMARK                         _______ _______ _______ _____ _____    ______ ____
ROOT
ATOM      1  C   UNL     1       0.455  -0.762  -0.892  0.00  0.00    +0.074 A 
ATOM      2  C   UNL     1      -0.049  -1.980  -1.327  0.00  0.00    +0.026 A 
ATOM      3  C   UNL     1       0.288  -2.129  -2.646  0.00  0.00    +0.127 A 
ATOM      4  N   UNL     1       0.985  -1.044  -3.014  0.00  0.00    -0.253 N 
ATOM      5  N   UNL     1       1.071  -0.192  -1.901  0.00  0.00    -0.174 NA
ATOM      6  C   UNL     1       1.551  -0.792  -4.341  0.00  0.00    +0.174 C 
ATOM      7  N   UNL     1      -0.095  -3.251  -3.381  0.00  0.00    -0.270 N 
ATOM      8  C   UNL     1      -0.981  -4.104  -2.825  0.00  0.00    +0.219 C 
ATOM      9  O   UNL     1      -1.182  -5.174  -3.359  0.00  0.00    -0.275 OA
ATOM     10  C   UNL     1      -1.726  -3.770  -1.563  0.00  0.00    +0.111 C 
ATOM     11  C   UNL     1      -0.830  -3.023  -0.569  0.00  0.00    +0.088 C 
ATOM     12  H   UNL     1       0.265  -3.414  -4.267  0.00  0.00    +0.156 HD
ENDROOT
BRANCH  11  13
ATOM     13  C   UNL     1      -1.681  -2.358   0.481  0.00  0.00    +0.087 A 
ATOM     14  N   UNL     1      -2.706  -1.562   0.313  0.00  0.00    -0.248 NA
ATOM     15  C   UNL     1      -3.372  -1.041   1.337  0.00  0.00    +0.052 A 
ATOM     16  C   UNL     1      -2.904  -1.399   2.562  0.00  0.00    +0.013 A 
ATOM     17  S   UNL     1      -1.549  -2.465   2.158  0.00  0.00    -0.076 S 
ATOM     18  C   UNL     1      -3.427  -0.983   3.895  0.00  0.00    +0.044 C 
ATOM     19  C   UNL     1      -4.366   0.217   3.688  0.00  0.00    +0.006 C 
ATOM     20  C   UNL     1      -5.327  -0.100   2.538  0.00  0.00    +0.006 C 
ATOM     21  C   UNL     1      -4.571  -0.112   1.208  0.00  0.00    +0.056 C 
ENDBRANCH  11  13
BRANCH   1  23
ATOM     22  C   UNL     1      -1.092   0.391   0.665  0.00  0.00    +0.017 C 
ATOM     23  C   UNL     1       0.313  -0.191   0.495  0.00  0.00    +0.007 C 
ATOM     24  C   UNL     1       1.351   0.914   0.700  0.00  0.00    +0.017 C 
ATOM     25  C   UNL     1       0.535  -1.297   1.528  0.00  0.00    +0.017 C 
ENDBRANCH   1  23
TORSDOF 2
