REMARK  Name = ZINC48961494
REMARK  4 active torsions:
REMARK  status: ('A' for Active; 'I' for Inactive)
REMARK    1  A    between atoms: C_1  and  C_2
REMARK    2  A    between atoms: C_5  and  S_7
REMARK    3  A    between atoms: S_7  and  N_10
REMARK    4  A    between atoms: C_18  and  C_23
REMARK                            x       y       z     vdW  Elec       q    Type
REMARK                         _______ _______ _______ _____ _____    ______ ____
ROOT
ATOM      1  N   UNL     1       1.277  -5.003  -1.082  0.00  0.00    -0.173 NA
ATOM      2  C   UNL     1       0.037  -5.711  -1.435  0.00  0.00    +0.110 C 
ATOM      3  C   UNL     1       0.393  -7.068  -2.049  0.00  0.00    +0.017 C 
ATOM      4  C   UNL     1       1.364  -6.868  -3.217  0.00  0.00    +0.006 C 
ATOM      5  C   UNL     1       2.641  -6.208  -2.700  0.00  0.00    +0.008 C 
ATOM      6  C   UNL     1       2.295  -4.826  -2.123  0.00  0.00    +0.086 C 
ATOM      7  C   UNL     1       3.558  -4.196  -1.539  0.00  0.00    +0.005 C 
ATOM      8  C   UNL     1       4.591  -4.022  -2.656  0.00  0.00    +0.005 C 
ATOM      9  C   UNL     1       4.926  -5.381  -3.270  0.00  0.00    +0.001 C 
ATOM     10  C   UNL     1       3.653  -6.030  -3.831  0.00  0.00    +0.005 C 
ATOM     11  C   UNL     1       3.217  -2.831  -0.937  0.00  0.00    +0.009 C 
ENDROOT
BRANCH   1  12
ATOM     12  S   UNL     1       1.515  -4.415   0.448  0.00  0.00    +0.067 S 
ATOM     13  O   UNL     1       2.917  -4.238   0.602  0.00  0.00    -0.152 OA
ATOM     14  O   UNL     1       0.750  -5.234   1.321  0.00  0.00    -0.152 OA
BRANCH  12  19
ATOM     15  C   UNL     1       0.032   1.307   0.679  0.00  0.00    +0.051 C 
ATOM     16  C   UNL     1       0.139  -0.194   0.613  0.00  0.00    -0.011 A 
ATOM     17  C   UNL     1      -0.851  -1.118   0.547  0.00  0.00    +0.013 A 
ATOM     18  C   UNL     1      -0.514  -2.458   0.492  0.00  0.00    +0.036 A 
ATOM     19  C   UNL     1       0.795  -2.808   0.506  0.00  0.00    +0.143 A 
ATOM     20  S   UNL     1       1.602  -1.217   0.592  0.00  0.00    -0.074 S 
ENDBRANCH  12  19
ENDBRANCH   1  12
TORSDOF 2
