REMARK  Name = ZINC37974614
REMARK  5 active torsions:
REMARK  status: ('A' for Active; 'I' for Inactive)
REMARK    1  A    between atoms: C_1  and  C_2
REMARK    2  A    between atoms: C_2  and  C_3
REMARK    3  A    between atoms: C_7  and  C_23
REMARK    4  A    between atoms: C_11  and  C_13
REMARK    5  A    between atoms: C_15  and  N_20
REMARK                            x       y       z     vdW  Elec       q    Type
REMARK                         _______ _______ _______ _____ _____    ______ ____
ROOT
ATOM      1  C   UNL     1      -1.253  -0.326   0.069  0.00  0.00    +0.102 C 
ATOM      2  C   UNL     1      -0.960  -1.831   0.081  0.00  0.00    +0.182 C 
ATOM      3  O   UNL     1      -0.276  -2.168   1.290  0.00  0.00    -0.373 OA
ATOM      4  C   UNL     1      -1.032  -1.924   2.479  0.00  0.00    +0.133 C 
ATOM      5  C   UNL     1      -1.329  -0.424   2.590  0.00  0.00    +0.139 C 
ATOM      6  N   UNL     1      -1.935   0.025   1.325  0.00  0.00    -0.290 N 
ATOM      7  C   UNL     1      -3.081   0.734   1.317  0.00  0.00    +0.248 C 
ATOM      8  O   UNL     1      -3.527   1.156   0.269  0.00  0.00    -0.270 OA
ATOM      9  C   UNL     1      -0.228  -2.379   3.699  0.00  0.00    +0.039 C 
ENDROOT
BRANCH   7  10
ATOM     10  C   UNL     1      -3.794   0.999   2.584  0.00  0.00    +0.057 A 
ATOM     11  C   UNL     1      -3.117   1.565   3.666  0.00  0.00    +0.047 A 
ATOM     12  C   UNL     1      -3.788   1.810   4.845  0.00  0.00    +0.127 A 
ATOM     13  C   UNL     1      -5.132   1.496   4.959  0.00  0.00    +0.034 A 
ATOM     14  C   UNL     1      -5.810   0.935   3.892  0.00  0.00    +0.023 A 
ATOM     15  C   UNL     1      -5.151   0.690   2.703  0.00  0.00    +0.053 A 
ATOM     16 CL   UNL     1      -6.006  -0.008   1.363  0.00  0.00    -0.083 Cl
BRANCH  12  17
ATOM     17  N   UNL     1      -3.071   2.410   5.992  0.00  0.00    +0.056 N 
ATOM     18  O   UNL     1      -1.898   2.685   5.895  0.00  0.00    -0.126 OA
ATOM     19  O   UNL     1      -3.659   2.626   7.027  0.00  0.00    -0.126 OA
ENDBRANCH  12  17
ENDBRANCH   7  10
BRANCH   1  21
ATOM     20  C   UNL     1      -0.244   1.948  -0.163  0.00  0.00    +0.006 C 
ATOM     21  C   UNL     1       0.059   0.453  -0.039  0.00  0.00    +0.021 C 
ENDBRANCH   1  21
TORSDOF 3
