REMARK  Name = ZINC42630912
REMARK  9 active torsions:
REMARK  status: ('A' for Active; 'I' for Inactive)
REMARK    1  A    between atoms: C_1  and  C_2
REMARK    2  A    between atoms: N_5  and  S_11
REMARK    3  A    between atoms: C_7  and  C_10
REMARK    4  A    between atoms: S_11  and  C_14
REMARK    5  A    between atoms: C_16  and  C_21
REMARK    6  A    between atoms: N_23  and  C_24
REMARK    7  A    between atoms: C_24  and  C_25
REMARK    8  A    between atoms: C_24  and  C_26
REMARK    9  A    between atoms: C_24  and  C_27
REMARK                            x       y       z     vdW  Elec       q    Type
REMARK                         _______ _______ _______ _____ _____    ______ ____
ROOT
ATOM      1  C   UNL     1       3.234   2.438  -1.842  0.00  0.00    +0.124 A 
ATOM      2  C   UNL     1       4.437   3.074  -1.617  0.00  0.00    +0.043 A 
ATOM      3  C   UNL     1       4.455   4.428  -1.281  0.00  0.00    +0.039 A 
ATOM      4  C   UNL     1       3.253   5.132  -1.175  0.00  0.00    +0.014 A 
ATOM      5  C   UNL     1       2.057   4.485  -1.403  0.00  0.00    +0.023 A 
ATOM      6  C   UNL     1       2.046   3.142  -1.741  0.00  0.00    +0.067 A 
ATOM      7 CL   UNL     1       0.536   2.336  -2.034  0.00  0.00    -0.082 Cl
ENDROOT
BRANCH   3   8
ATOM      8  C   UNL     1       5.741   5.116  -1.038  0.00  0.00    +0.245 C 
ATOM      9  O   UNL     1       6.785   4.501  -1.131  0.00  0.00    -0.270 OA
ATOM     10  N   UNL     1       5.755   6.424  -0.714  0.00  0.00    -0.307 N 
ATOM     11  H   UNL     1       4.921   6.914  -0.641  0.00  0.00    +0.150 HD
BRANCH  10  12
ATOM     12  C   UNL     1       7.029   7.105  -0.473  0.00  0.00    +0.026 C 
ATOM     13  C   UNL     1       7.895   7.026  -1.732  0.00  0.00    +0.031 C 
ATOM     14  C   UNL     1       6.766   8.572  -0.126  0.00  0.00    +0.031 C 
ATOM     15  C   UNL     1       7.757   6.428   0.690  0.00  0.00    +0.031 C 
ENDBRANCH  10  12
ENDBRANCH   3   8
BRANCH   1  16
ATOM     16  S   UNL     1       3.210   0.728  -2.266  0.00  0.00    +0.062 S 
ATOM     17  O   UNL     1       4.564   0.298  -2.301  0.00  0.00    -0.153 OA
ATOM     18  O   UNL     1       2.340   0.598  -3.382  0.00  0.00    -0.153 OA
BRANCH  16  22
ATOM     19  C   UNL     1       3.628  -2.792  -0.661  0.00  0.00    +0.039 C 
ATOM     20  C   UNL     1       3.009  -1.952   0.458  0.00  0.00    +0.131 C 
ATOM     21  C   UNL     1       3.261  -0.466   0.182  0.00  0.00    +0.140 C 
ATOM     22  N   UNL     1       2.490  -0.078  -1.010  0.00  0.00    -0.172 NA
ATOM     23  C   UNL     1       1.061  -0.426  -1.053  0.00  0.00    +0.140 C 
ATOM     24  C   UNL     1       0.916  -1.914  -0.717  0.00  0.00    +0.131 C 
ATOM     25  O   UNL     1       1.600  -2.190   0.509  0.00  0.00    -0.371 OA
ATOM     26  C   UNL     1      -0.567  -2.261  -0.565  0.00  0.00    +0.039 C 
ENDBRANCH  16  22
ENDBRANCH   1  16
TORSDOF 4
