REMARK  Name = ZINC15866196
REMARK  2 active torsions:
REMARK  status: ('A' for Active; 'I' for Inactive)
REMARK    1  A    between atoms: C_6  and  C_7
REMARK    2  A    between atoms: C_10  and  C_18
REMARK                            x       y       z     vdW  Elec       q    Type
REMARK                         _______ _______ _______ _____ _____    ______ ____
ROOT
ATOM      1  C   UNL     1      -1.760   0.123   2.305  0.00  0.00    +0.144 C 
ATOM      2  C   UNL     1      -1.661  -1.147   1.450  0.00  0.00    +0.059 C 
ATOM      3  C   UNL     1      -1.293  -0.775   0.010  0.00  0.00    +0.109 C 
ATOM      4  N   UNL     1      -2.370   0.061  -0.556  0.00  0.00    -0.305 N 
ATOM      5  C   UNL     1      -2.871   1.056   0.277  0.00  0.00    +0.236 A 
ATOM      6  N   UNL     1      -2.593   1.097   1.605  0.00  0.00    -0.206 N 
ATOM      7  N   UNL     1      -3.257   2.224   2.090  0.00  0.00    -0.042 NA
ATOM      8  N   UNL     1      -3.862   2.758   1.079  0.00  0.00    -0.021 NA
ATOM      9  N   UNL     1      -3.638   2.074   0.009  0.00  0.00    -0.092 NA
ATOM     10  H   UNL     1      -2.708  -0.078  -1.455  0.00  0.00    +0.150 HD
ENDROOT
BRANCH   3  11
ATOM     11  C   UNL     1       0.002  -0.004   0.002  0.00  0.00    +0.008 A 
ATOM     12  C   UNL     1      -0.017   1.378   0.010  0.00  0.00    +0.011 A 
ATOM     13  C   UNL     1       1.170   2.086   0.002  0.00  0.00    +0.039 A 
ATOM     14  C   UNL     1       2.379   1.412  -0.013  0.00  0.00    +0.126 A 
ATOM     15  C   UNL     1       2.399   0.028  -0.021  0.00  0.00    +0.077 A 
ATOM     16  C   UNL     1       1.210  -0.680  -0.013  0.00  0.00    +0.131 A 
ATOM     17  F   UNL     1       1.228  -2.031  -0.021  0.00  0.00    -0.205 F 
ATOM     18  F   UNL     1       3.539   2.104  -0.020  0.00  0.00    -0.205 F 
ENDBRANCH   3  11
BRANCH   1  24
ATOM     19  C   UNL     1      -3.660  -0.741   3.687  0.00  0.00    +0.008 A 
ATOM     20  C   UNL     1      -4.232  -1.053   4.906  0.00  0.00    +0.038 A 
ATOM     21  C   UNL     1      -3.530  -0.823   6.077  0.00  0.00    +0.123 A 
ATOM     22  C   UNL     1      -2.255  -0.287   6.025  0.00  0.00    +0.038 A 
ATOM     23  C   UNL     1      -1.683   0.018   4.805  0.00  0.00    +0.008 A 
ATOM     24  C   UNL     1      -2.385  -0.211   3.636  0.00  0.00    -0.023 A 
ATOM     25  F   UNL     1      -4.090  -1.122   7.270  0.00  0.00    -0.205 F 
ENDBRANCH   1  24
TORSDOF 2
