REMARK  Name = ZINC15080379
REMARK  5 active torsions:
REMARK  status: ('A' for Active; 'I' for Inactive)
REMARK    1  A    between atoms: C_1  and  C_2
REMARK    2  A    between atoms: C_3  and  C_8
REMARK    3  A    between atoms: C_4  and  C_7
REMARK    4  A    between atoms: C_14  and  C_17
REMARK    5  A    between atoms: C_17  and  C_18
REMARK                            x       y       z     vdW  Elec       q    Type
REMARK                         _______ _______ _______ _____ _____    ______ ____
ROOT
ATOM      1  C   UNL     1      -0.014   1.212   0.009  0.00  0.00    +0.252 C 
ATOM      2  O   UNL     1       0.002  -0.004   0.002  0.00  0.00    -0.270 OA
ATOM      3  N   UNL     1       1.143   1.902   0.001  0.00  0.00    -0.293 N 
ATOM      4  C   UNL     1       1.149   3.373   0.003  0.00  0.00    +0.136 C 
ATOM      5  C   UNL     1       2.064   3.859  -1.121  0.00  0.00    +0.179 C 
ATOM      6  O   UNL     1       3.337   3.219  -1.003  0.00  0.00    -0.373 OA
ATOM      7  C   UNL     1       3.292   1.797  -1.143  0.00  0.00    +0.136 C 
ATOM      8  C   UNL     1       2.440   1.205  -0.015  0.00  0.00    +0.139 C 
ENDROOT
BRANCH   1  11
ATOM      9  C   UNL     1      -1.768   2.186   2.634  0.00  0.00    +0.070 C 
ATOM     10  C   UNL     1      -2.096   2.373   1.175  0.00  0.00    +0.093 A 
ATOM     11  C   UNL     1      -1.301   1.931   0.019  0.00  0.00    +0.101 A 
ATOM     12  C   UNL     1      -2.050   2.361  -1.049  0.00  0.00    +0.147 A 
ATOM     13  O   UNL     1      -3.129   2.957  -0.536  0.00  0.00    -0.359 OA
ATOM     14  N   UNL     1      -3.140   2.959   0.670  0.00  0.00    -0.083 NA
ATOM     15  C   UNL     1      -1.722   2.190  -2.510  0.00  0.00    +0.090 C 
ENDBRANCH   1  11
BRANCH   7  16
ATOM     16  C   UNL     1       4.711   1.230  -1.063  0.00  0.00    +0.036 C 
BRANCH  16  17
ATOM     17  C   UNL     1       5.526   1.722  -2.261  0.00  0.00    -0.008 C 
ATOM     18  C   UNL     1       4.934   1.151  -3.550  0.00  0.00    +0.003 C 
ATOM     19  C   UNL     1       5.748   1.644  -4.748  0.00  0.00    +0.000 C 
ATOM     20  C   UNL     1       7.199   1.180  -4.604  0.00  0.00    +0.000 C 
ATOM     21  C   UNL     1       7.791   1.751  -3.314  0.00  0.00    +0.000 C 
ATOM     22  C   UNL     1       6.976   1.258  -2.116  0.00  0.00    +0.003 C 
ENDBRANCH  16  17
ENDBRANCH   7  16
TORSDOF 3
