REMARK  Name = ZINC16401680
REMARK  7 active torsions:
REMARK  status: ('A' for Active; 'I' for Inactive)
REMARK    1  A    between atoms: C_1  and  C_2
REMARK    2  A    between atoms: C_2  and  C_4
REMARK    3  A    between atoms: C_2  and  N_14
REMARK    4  A    between atoms: C_15  and  C_17
REMARK    5  A    between atoms: C_17  and  N_18
REMARK    6  A    between atoms: C_21  and  C_25
REMARK    7  A    between atoms: C_21  and  C_26
REMARK                            x       y       z     vdW  Elec       q    Type
REMARK                         _______ _______ _______ _____ _____    ______ ____
ROOT
ATOM      1  N   UNL     1       0.711  -0.489   1.189  0.00  0.00    -0.307 N 
ATOM      2  C   UNL     1       2.054  -0.600   1.174  0.00  0.00    +0.231 C 
ATOM      3  O   UNL     1       2.676  -0.297   0.177  0.00  0.00    -0.274 OA
ATOM      4  H   UNL     1       0.213  -0.731   1.986  0.00  0.00    +0.149 HD
ENDROOT
BRANCH   1   6
ATOM      5  C   UNL     1      -0.019   1.526   0.010  0.00  0.00    +0.033 C 
ATOM      6  C   UNL     1       0.002  -0.004   0.002  0.00  0.00    +0.100 C 
BRANCH   6   7
ATOM      7  C   UNL     1      -1.412  -0.526   0.013  0.00  0.00    -0.027 A 
ATOM      8  C   UNL     1      -2.119  -0.567   1.213  0.00  0.00    +0.006 A 
ATOM      9  C   UNL     1      -3.397  -1.032   1.257  0.00  0.00    +0.009 A 
ATOM     10  C   UNL     1      -4.016  -1.479   0.077  0.00  0.00    -0.018 A 
ATOM     11  C   UNL     1      -5.334  -1.966   0.084  0.00  0.00    +0.008 A 
ATOM     12  C   UNL     1      -5.901  -2.389  -1.079  0.00  0.00    +0.001 A 
ATOM     13  C   UNL     1      -5.194  -2.348  -2.279  0.00  0.00    +0.001 A 
ATOM     14  C   UNL     1      -3.916  -1.883  -2.324  0.00  0.00    +0.008 A 
ATOM     15  C   UNL     1      -3.297  -1.437  -1.143  0.00  0.00    -0.018 A 
ATOM     16  C   UNL     1      -1.980  -0.944  -1.151  0.00  0.00    +0.014 A 
ENDBRANCH   6   7
ENDBRANCH   1   6
BRANCH   2  17
ATOM     17  C   UNL     1       2.783  -1.099   2.395  0.00  0.00    +0.213 C 
BRANCH  17  18
ATOM     18  N   UNL     1       4.223  -1.127   2.126  0.00  0.00    -0.215 N 
ATOM     19  C   UNL     1       4.875  -2.187   1.609  0.00  0.00    +0.254 C 
ATOM     20  O   UNL     1       4.400  -3.255   1.289  0.00  0.00    -0.272 OA
ATOM     21  C   UNL     1       6.328  -1.764   1.508  0.00  0.00    +0.168 C 
ATOM     22  N   UNL     1       6.324  -0.386   2.029  0.00  0.00    -0.279 N 
ATOM     23  C   UNL     1       5.051  -0.103   2.359  0.00  0.00    +0.310 C 
ATOM     24  O   UNL     1       4.694   0.963   2.821  0.00  0.00    -0.252 OA
ATOM     25  C   UNL     1       7.212  -2.664   2.373  0.00  0.00    +0.050 C 
ATOM     26  H   UNL     1       7.090   0.203   2.115  0.00  0.00    +0.152 HD
BRANCH  21  27
ATOM     27  C   UNL     1       6.788  -1.786   0.073  0.00  0.00    +0.137 A 
ATOM     28  C   UNL     1       7.735  -0.995  -0.462  0.00  0.00    +0.047 A 
ATOM     29  C   UNL     1       7.846  -1.353  -1.825  0.00  0.00    +0.041 A 
ATOM     30  C   UNL     1       6.960  -2.341  -2.042  0.00  0.00    +0.195 A 
ATOM     31  O   UNL     1       6.326  -2.604  -0.887  0.00  0.00    -0.465 OA
ENDBRANCH  21  27
ENDBRANCH  17  18
ENDBRANCH   2  17
TORSDOF 5
