REMARK  Name = ZINC39314997
REMARK  8 active torsions:
REMARK  status: ('A' for Active; 'I' for Inactive)
REMARK    1  A    between atoms: C_1  and  C_2
REMARK    2  A    between atoms: C_2  and  C_3
REMARK    3  A    between atoms: C_2  and  C_4
REMARK    4  A    between atoms: C_2  and  C_5
REMARK    5  A    between atoms: C_8  and  C_18
REMARK    6  A    between atoms: N_10  and  C_12
REMARK    7  A    between atoms: N_20  and  N_21
REMARK    8  A    between atoms: C_22  and  C_23
REMARK                            x       y       z     vdW  Elec       q    Type
REMARK                         _______ _______ _______ _____ _____    ______ ____
ROOT
ATOM      1  C   UNL     1       0.155  -0.464  -1.338  0.00  0.00    +0.081 C 
ATOM      2  C   UNL     1       0.314  -2.008  -1.315  0.00  0.00    +0.054 C 
ATOM      3  C   UNL     1       1.671  -2.180  -2.039  0.00  0.00    +0.180 C 
ATOM      4  N   UNL     1       2.335  -0.870  -1.942  0.00  0.00    -0.255 N 
ATOM      5  N   UNL     1       1.563  -0.010  -1.203  0.00  0.00    -0.236 NA
ATOM      6  H   UNL     1       1.669   0.940  -1.525  0.00  0.00    +0.145 HD
ENDROOT
BRANCH   4   7
ATOM      7  C   UNL     1       3.567  -0.550  -2.517  0.00  0.00    +0.045 A 
ATOM      8  C   UNL     1       4.260  -1.502  -3.252  0.00  0.00    +0.024 A 
ATOM      9  C   UNL     1       5.478  -1.182  -3.820  0.00  0.00    +0.002 A 
ATOM     10  C   UNL     1       6.008   0.085  -3.655  0.00  0.00    +0.000 A 
ATOM     11  C   UNL     1       5.320   1.035  -2.924  0.00  0.00    +0.002 A 
ATOM     12  C   UNL     1       4.099   0.724  -2.358  0.00  0.00    +0.024 A 
ENDBRANCH   4   7
BRANCH   1  14
ATOM     13  C   UNL     1      -0.761   1.545  -0.168  0.00  0.00    +0.012 C 
ATOM     14  C   UNL     1      -0.691   0.017  -0.156  0.00  0.00    -0.021 C 
ATOM     15  C   UNL     1      -0.052  -0.454   1.152  0.00  0.00    +0.012 C 
ATOM     16  C   UNL     1      -2.103  -0.560  -0.271  0.00  0.00    +0.012 C 
ENDBRANCH   1  14
BRANCH   3  17
ATOM     17  C   UNL     1       1.449  -2.548  -3.484  0.00  0.00    +0.254 C 
ATOM     18  O   UNL     1       1.531  -1.699  -4.346  0.00  0.00    -0.272 OA
ATOM     19  N   UNL     1       1.159  -3.821  -3.818  0.00  0.00    -0.205 N 
ATOM     20  H   UNL     1       1.093  -4.500  -3.128  0.00  0.00    +0.177 HD
BRANCH  19  21
ATOM     21  N   UNL     1       0.952  -4.163  -5.160  0.00  0.00    -0.188 NA
ATOM     22  C   UNL     1       0.780  -5.417  -5.497  0.00  0.00    +0.136 C 
BRANCH  22  23
ATOM     23  C   UNL     1       0.743  -6.410  -4.508  0.00  0.00    +0.000 C 
ATOM     24  C   UNL     1       0.583  -7.781  -4.697  0.00  0.00    +0.004 A 
ATOM     25  C   UNL     1       0.415  -8.572  -5.855  0.00  0.00    +0.010 A 
ATOM     26  C   UNL     1       0.278  -9.916  -5.738  0.00  0.00    +0.001 A 
ATOM     27  C   UNL     1       0.299 -10.549  -4.491  0.00  0.00    +0.002 A 
ATOM     28  C   UNL     1       0.456  -9.854  -3.339  0.00  0.00    +0.026 A 
ATOM     29  C   UNL     1       0.605  -8.442  -3.381  0.00  0.00    +0.043 A 
ATOM     30  N   UNL     1       0.768  -7.555  -2.422  0.00  0.00    -0.380 N 
ATOM     31  C   UNL     1       0.877  -6.218  -3.014  0.00  0.00    +0.150 C 
ATOM     32  H   UNL     1       0.814  -7.755  -1.474  0.00  0.00    +0.160 HD
ENDBRANCH  22  23
ENDBRANCH  19  21
ENDBRANCH   3  17
TORSDOF 5
