REMARK  Name = ZINC08716349
REMARK  8 active torsions:
REMARK  status: ('A' for Active; 'I' for Inactive)
REMARK    1  A    between atoms: C_1  and  C_2
REMARK    2  A    between atoms: C_9  and  C_14
REMARK    3  A    between atoms: C_14  and  O_16
REMARK    4  A    between atoms: O_16  and  C_17
REMARK    5  A    between atoms: C_17  and  C_19
REMARK    6  A    between atoms: C_17  and  C_20
REMARK    7  A    between atoms: N_22  and  C_23
REMARK    8  A    between atoms: C_23  and  C_29
REMARK                            x       y       z     vdW  Elec       q    Type
REMARK                         _______ _______ _______ _____ _____    ______ ____
ROOT
ATOM      1  C   UNL     1       5.292   2.483   2.661  0.00  0.00    +0.340 C 
ATOM      2  O   UNL     1       5.549   3.542   2.124  0.00  0.00    -0.245 OA
ENDROOT
BRANCH   1  10
ATOM      3  C   UNL     1      10.801   1.538   8.536  0.00  0.00    +0.029 C 
ATOM      4  C   UNL     1      10.005   1.526   7.230  0.00  0.00    +0.134 C 
ATOM      5  C   UNL     1       9.791   2.938   6.757  0.00  0.00    +0.230 C 
ATOM      6  O   UNL     1      10.589   3.785   7.100  0.00  0.00    -0.274 OA
ATOM      7  N   UNL     1       8.774   3.310   5.983  0.00  0.00    -0.284 N 
ATOM      8  C   UNL     1       7.773   2.481   5.484  0.00  0.00    +0.048 A 
ATOM      9  C   UNL     1       7.063   2.873   4.361  0.00  0.00    +0.039 A 
ATOM     10  C   UNL     1       6.048   2.059   3.853  0.00  0.00    +0.061 A 
ATOM     11  C   UNL     1       5.751   0.840   4.470  0.00  0.00    +0.016 A 
ATOM     12  C   UNL     1       6.460   0.446   5.583  0.00  0.00    +0.017 A 
ATOM     13  C   UNL     1       7.467   1.257   6.090  0.00  0.00    +0.030 A 
ATOM     14  S   UNL     1       8.385   0.750   7.510  0.00  0.00    -0.111 S 
ATOM     15  H   UNL     1       8.727   4.248   5.744  0.00  0.00    +0.155 HD
ENDBRANCH   1  10
BRANCH   1  16
ATOM     16  O   UNL     1       4.316   1.696   2.167  0.00  0.00    -0.449 OA
BRANCH  16  17
ATOM     17  C   UNL     1       3.614   2.177   0.990  0.00  0.00    +0.259 C 
ATOM     18  C   UNL     1       4.330   1.683  -0.269  0.00  0.00    +0.062 C 
BRANCH  17  19
ATOM     19  C   UNL     1       2.200   1.655   1.001  0.00  0.00    +0.255 C 
ATOM     20  O   UNL     1       1.822   0.948   1.910  0.00  0.00    -0.272 OA
ATOM     21  N   UNL     1       1.357   1.975  -0.000  0.00  0.00    -0.294 N 
ATOM     22  H   UNL     1       1.659   2.541  -0.728  0.00  0.00    +0.150 HD
BRANCH  21  23
ATOM     23  C   UNL     1      -0.018   1.468   0.010  0.00  0.00    +0.121 C 
ATOM     24  C   UNL     1      -0.734   1.961   1.269  0.00  0.00    +0.041 C 
ATOM     25  C   UNL     1      -2.169   1.432   1.280  0.00  0.00    +0.003 C 
ATOM     26  C   UNL     1      -2.909   1.938   0.040  0.00  0.00    +0.000 C 
ATOM     27  C   UNL     1      -2.193   1.445  -1.219  0.00  0.00    +0.003 C 
ATOM     28  C   UNL     1      -0.758   1.975  -1.229  0.00  0.00    +0.041 C 
BRANCH  23  29
ATOM     29  C   UNL     1       0.002  -0.004   0.002  0.00  0.00    +0.088 C 
ATOM     30  N   UNL     1       0.018  -1.140  -0.004  0.00  0.00    -0.194 NA
ENDBRANCH  23  29
ENDBRANCH  21  23
ENDBRANCH  17  19
ENDBRANCH  16  17
ENDBRANCH   1  16
TORSDOF 6
