REMARK  Name = ZINC02732509
REMARK  6 active torsions:
REMARK  status: ('A' for Active; 'I' for Inactive)
REMARK    1  A    between atoms: C_1  and  C_2
REMARK    2  A    between atoms: C_3  and  S_8
REMARK    3  A    between atoms: N_6  and  C_7
REMARK    4  A    between atoms: S_8  and  N_11
REMARK    5  A    between atoms: C_15  and  C_18
REMARK    6  A    between atoms: N_20  and  C_21
REMARK                            x       y       z     vdW  Elec       q    Type
REMARK                         _______ _______ _______ _____ _____    ______ ____
ROOT
ATOM      1  N   UNL     1      -0.018   1.465   0.010  0.00  0.00    -0.176 NA
ATOM      2  C   UNL     1       1.261   2.189   0.002  0.00  0.00    +0.109 C 
ATOM      3  C   UNL     1       2.103   1.689  -1.177  0.00  0.00    +0.018 C 
ATOM      4  C   UNL     1       2.242   0.168  -1.090  0.00  0.00    +0.015 C 
ATOM      5  C   UNL     1       0.858  -0.479  -1.176  0.00  0.00    +0.091 C 
ATOM      6  C   UNL     1       0.002  -0.004   0.002  0.00  0.00    +0.122 C 
ENDROOT
BRANCH   5   7
ATOM      7  C   UNL     1       0.999  -1.978  -1.123  0.00  0.00    +0.218 C 
ATOM      8  O   UNL     1       0.469  -2.606  -0.232  0.00  0.00    -0.275 OA
ATOM      9  N   UNL     1       1.716  -2.622  -2.066  0.00  0.00    -0.312 N 
ATOM     10  H   UNL     1       2.140  -2.120  -2.779  0.00  0.00    +0.149 HD
BRANCH   9  11
ATOM     11  C   UNL     1       1.853  -4.079  -2.015  0.00  0.00    +0.079 C 
ATOM     12  C   UNL     1       3.014  -4.450  -1.089  0.00  0.00    +0.010 C 
ATOM     13  C   UNL     1       3.157  -5.972  -1.035  0.00  0.00    +0.009 C 
ATOM     14  C   UNL     1       3.434  -6.508  -2.441  0.00  0.00    -0.010 C 
ATOM     15  C   UNL     1       4.729  -5.893  -2.976  0.00  0.00    +0.007 C 
ATOM     16  C   UNL     1       4.586  -4.370  -3.030  0.00  0.00    -0.010 C 
ATOM     17  C   UNL     1       4.309  -3.834  -1.624  0.00  0.00    +0.009 C 
ATOM     18  C   UNL     1       3.425  -4.000  -3.955  0.00  0.00    +0.009 C 
ATOM     19  C   UNL     1       2.130  -4.616  -3.421  0.00  0.00    +0.010 C 
ATOM     20  C   UNL     1       2.274  -6.138  -3.366  0.00  0.00    +0.009 C 
ENDBRANCH   9  11
ENDBRANCH   5   7
BRANCH   1  21
ATOM     21  S   UNL     1      -1.454   2.289   0.021  0.00  0.00    +0.064 S 
ATOM     22  O   UNL     1      -1.189   3.575  -0.524  0.00  0.00    -0.153 OA
ATOM     23  O   UNL     1      -2.429   1.414  -0.530  0.00  0.00    -0.153 OA
BRANCH  21  26
ATOM     24  C   UNL     1      -2.248   0.090   2.329  0.00  0.00    +0.067 C 
ATOM     25  C   UNL     1      -2.214   1.572   2.600  0.00  0.00    +0.062 A 
ATOM     26  C   UNL     1      -1.898   2.539   1.708  0.00  0.00    +0.146 A 
ATOM     27  C   UNL     1      -1.992   3.773   2.360  0.00  0.00    +0.163 A 
ATOM     28  N   UNL     1      -2.346   3.554   3.600  0.00  0.00    -0.178 NA
ATOM     29  N   UNL     1      -2.489   2.172   3.777  0.00  0.00    -0.270 N 
ATOM     30  C   UNL     1      -2.875   1.497   5.019  0.00  0.00    +0.172 C 
ENDBRANCH  21  26
ENDBRANCH   1  21
TORSDOF 4
