REMARK  Name = ZINC32780809
REMARK  1 active torsions:
REMARK  status: ('A' for Active; 'I' for Inactive)
REMARK    1  A    between atoms: C_12  and  C_14
REMARK                            x       y       z     vdW  Elec       q    Type
REMARK                         _______ _______ _______ _____ _____    ______ ____
ROOT
ATOM      1  C   UNL     1       3.337  -2.322   0.663  0.00  0.00    +0.002 A 
ATOM      2  C   UNL     1       2.943  -1.649  -0.479  0.00  0.00    +0.002 A 
ATOM      3  C   UNL     1       1.864  -0.784  -0.439  0.00  0.00    +0.025 A 
ATOM      4  C   UNL     1       1.177  -0.599   0.744  0.00  0.00    +0.058 A 
ATOM      5  C   UNL     1       1.577  -1.271   1.903  0.00  0.00    +0.055 A 
ATOM      6  C   UNL     1       2.658  -2.137   1.853  0.00  0.00    +0.025 A 
ATOM      7  N   UNL     1       0.879  -1.066   3.098  0.00  0.00    -0.283 N 
ATOM      8  C   UNL     1      -0.322  -0.457   3.098  0.00  0.00    +0.235 C 
ATOM      9  O   UNL     1      -0.889  -0.250   4.150  0.00  0.00    -0.274 OA
ATOM     10  C   UNL     1      -0.971  -0.030   1.806  0.00  0.00    +0.210 C 
ATOM     11  N   UNL     1       0.078   0.270   0.819  0.00  0.00    -0.257 N 
ATOM     12  C   UNL     1      -0.016   1.344   0.009  0.00  0.00    +0.254 C 
ATOM     13  O   UNL     1       0.909   1.635  -0.724  0.00  0.00    -0.270 OA
ATOM     14  H   UNL     1       1.311  -1.403   4.052  0.00  0.00    +0.155 HD
ENDROOT
BRANCH  12  15
ATOM     15  C   UNL     1      -1.245   2.162   0.009  0.00  0.00    +0.074 A 
ATOM     16  C   UNL     1      -2.498   1.548   0.071  0.00  0.00    +0.036 A 
ATOM     17  C   UNL     1      -3.642   2.319   0.075  0.00  0.00    +0.042 A 
ATOM     18  C   UNL     1      -3.552   3.700   0.007  0.00  0.00    +0.023 A 
ATOM     19  C   UNL     1      -2.317   4.316  -0.061  0.00  0.00    +0.040 A 
ATOM     20  C   UNL     1      -1.161   3.556  -0.061  0.00  0.00    +0.136 A 
ATOM     21  F   UNL     1       0.046   4.159  -0.127  0.00  0.00    -0.205 F 
ATOM     22 CL   UNL     1      -5.199   1.556   0.160  0.00  0.00    -0.084 Cl
ENDBRANCH  12  15
TORSDOF 1
