REMARK  Name = ZINC00577970
REMARK  3 active torsions:
REMARK  status: ('A' for Active; 'I' for Inactive)
REMARK    1  A    between atoms: C_3  and  N_10
REMARK    2  A    between atoms: C_5  and  N_7
REMARK    3  A    between atoms: C_11  and  C_13
REMARK                            x       y       z     vdW  Elec       q    Type
REMARK                         _______ _______ _______ _____ _____    ______ ____
ROOT
ATOM      1  N   UNL     1      -0.069   5.241   0.029  0.00  0.00    -0.281 N 
ATOM      2  C   UNL     1       1.085   5.930   0.123  0.00  0.00    +0.250 C 
ATOM      3  O   UNL     1       2.148   5.340   0.110  0.00  0.00    -0.270 OA
ATOM      4  H   UNL     1      -0.913   5.715  -0.037  0.00  0.00    +0.155 HD
ENDROOT
BRANCH   2   5
ATOM      5  C   UNL     1       1.059   7.402   0.241  0.00  0.00    +0.057 A 
ATOM      6  C   UNL     1      -0.160   8.083   0.257  0.00  0.00    +0.034 A 
ATOM      7  C   UNL     1      -0.177   9.459   0.368  0.00  0.00    +0.042 A 
ATOM      8  C   UNL     1       1.011  10.164   0.465  0.00  0.00    +0.021 A 
ATOM      9  C   UNL     1       2.222   9.496   0.450  0.00  0.00    +0.022 A 
ATOM     10  C   UNL     1       2.254   8.119   0.344  0.00  0.00    +0.053 A 
ATOM     11 CL   UNL     1       3.775   7.282   0.333  0.00  0.00    -0.083 Cl
ATOM     12 CL   UNL     1      -1.692  10.307   0.388  0.00  0.00    -0.084 Cl
ENDBRANCH   2   5
BRANCH   1  15
ATOM     13  C   UNL     1      -0.969   1.753  -0.708  0.00  0.00    +0.004 A 
ATOM     14  C   UNL     1      -0.990   3.135  -0.710  0.00  0.00    +0.023 A 
ATOM     15  C   UNL     1      -0.051   3.842   0.029  0.00  0.00    +0.036 A 
ATOM     16  C   UNL     1       0.907   3.159   0.767  0.00  0.00    +0.056 A 
ATOM     17  C   UNL     1       0.918   1.778   0.769  0.00  0.00    +0.128 A 
ATOM     18  C   UNL     1      -0.015   1.076   0.028  0.00  0.00    +0.033 A 
BRANCH  17  19
ATOM     19  N   UNL     1       1.934   1.048   1.561  0.00  0.00    +0.056 N 
ATOM     20  O   UNL     1       1.948  -0.170   1.560  0.00  0.00    -0.126 OA
ATOM     21  O   UNL     1       2.756   1.666   2.214  0.00  0.00    -0.126 OA
ENDBRANCH  17  19
ENDBRANCH   1  15
TORSDOF 3
