REMARK  Name = ZINC40166823
REMARK  2 active torsions:
REMARK  status: ('A' for Active; 'I' for Inactive)
REMARK    1  A    between atoms: N_10  and  C_11
REMARK    2  A    between atoms: C_11  and  C_12
REMARK                            x       y       z     vdW  Elec       q    Type
REMARK                         _______ _______ _______ _____ _____    ______ ____
ROOT
ATOM      1  C   UNL     1       2.749  -1.703   1.826  0.00  0.00    +0.002 C 
ATOM      2  C   UNL     1       1.577  -2.393   1.134  0.00  0.00    +0.002 C 
ATOM      3  C   UNL     1       0.257  -2.029   1.670  0.00  0.00    +0.019 C 
ATOM      4  C   UNL     1      -0.010  -0.518   1.460  0.00  0.00    +0.109 C 
ATOM      5  N   UNL     1       0.832   0.252   2.348  0.00  0.00    -0.286 N 
ATOM      6  C   UNL     1       2.176   0.725   1.962  0.00  0.00    +0.109 C 
ATOM      7  C   UNL     1       2.973  -0.349   1.199  0.00  0.00    +0.019 C 
ATOM      8  C   UNL     1       0.371   0.549   3.579  0.00  0.00    +0.302 C 
ATOM      9  O   UNL     1       1.092   1.118   4.377  0.00  0.00    -0.253 OA
ATOM     10  N   UNL     1      -0.888   0.216   3.926  0.00  0.00    -0.299 N 
ATOM     11  H   UNL     1      -1.437  -0.302   3.318  0.00  0.00    +0.150 HD
ENDROOT
BRANCH  10  12
ATOM     12  C   UNL     1      -1.426   0.638   5.221  0.00  0.00    +0.111 C 
BRANCH  12  13
ATOM     13  C   UNL     1      -2.864   0.134   5.365  0.00  0.00    +0.029 C 
ATOM     14  C   UNL     1      -2.862  -1.403   5.416  0.00  0.00    +0.029 C 
ATOM     15  C   UNL     1      -4.273  -1.874   5.873  0.00  0.00    +0.166 C 
ATOM     16  S   UNL     1      -4.636  -0.630   7.183  0.00  0.00    -0.031 S 
ATOM     17  O   UNL     1      -4.213  -1.144   8.438  0.00  0.00    -0.174 OA
ATOM     18  O   UNL     1      -5.972  -0.172   7.028  0.00  0.00    -0.174 OA
ATOM     19  C   UNL     1      -3.481   0.704   6.665  0.00  0.00    +0.171 C 
ENDBRANCH  12  13
ENDBRANCH  10  12
TORSDOF 2
