REMARK  Name = ZINC26772275
REMARK  6 active torsions:
REMARK  status: ('A' for Active; 'I' for Inactive)
REMARK    1  A    between atoms: C_1  and  C_2
REMARK    2  A    between atoms: C_6  and  C_8
REMARK    3  A    between atoms: N_27  and  C_30
REMARK    4  A    between atoms: C_30  and  C_31
REMARK    5  A    between atoms: C_31  and  C_32
REMARK    6  A    between atoms: C_31  and  C_33
REMARK                            x       y       z     vdW  Elec       q    Type
REMARK                         _______ _______ _______ _____ _____    ______ ____
ROOT
ATOM      1  C   UNL     1      -2.887   1.039   0.296  0.00  0.00    +0.154 C 
ATOM      2  C   UNL     1      -3.259   0.685  -1.126  0.00  0.00    +0.046 A 
ATOM      3  C   UNL     1      -3.108  -0.550  -1.651  0.00  0.00    -0.015 A 
ATOM      4  C   UNL     1      -3.568  -0.486  -3.023  0.00  0.00    +0.003 A 
ATOM      5  C   UNL     1      -3.647  -1.442  -4.042  0.00  0.00    +0.010 A 
ATOM      6  C   UNL     1      -4.150  -1.021  -5.248  0.00  0.00    +0.001 A 
ATOM      7  C   UNL     1      -4.562   0.284  -5.460  0.00  0.00    +0.002 A 
ATOM      8  C   UNL     1      -4.495   1.250  -4.470  0.00  0.00    +0.026 A 
ATOM      9  C   UNL     1      -3.989   0.852  -3.234  0.00  0.00    +0.047 A 
ATOM     10  N   UNL     1      -3.787   1.530  -2.067  0.00  0.00    -0.356 N 
ATOM     11  H   UNL     1      -3.981   2.582  -1.813  0.00  0.00    +0.166 HD
ATOM     12  C   UNL     1      -2.559  -1.739  -0.904  0.00  0.00    +0.069 C 
ATOM     13  C   UNL     1      -1.818  -1.241   0.345  0.00  0.00    +0.167 C 
ATOM     14  N   UNL     1      -2.632  -0.228   1.014  0.00  0.00    -0.276 N 
ATOM     15  C   UNL     1      -3.152  -0.397   2.232  0.00  0.00    +0.234 C 
ATOM     16  O   UNL     1      -3.871   0.478   2.667  0.00  0.00    -0.274 OA
ATOM     17  C   UNL     1      -2.908  -1.591   3.096  0.00  0.00    +0.203 C 
ATOM     18  N   UNL     1      -2.007  -2.544   2.468  0.00  0.00    -0.291 N 
ATOM     19  C   UNL     1      -1.512  -2.397   1.241  0.00  0.00    +0.237 C 
ATOM     20  O   UNL     1      -0.764  -3.256   0.824  0.00  0.00    -0.274 OA
ENDROOT
BRANCH   1  26
ATOM     21  C   UNL     1      -0.488   5.192   1.726  0.00  0.00    +0.044 C 
ATOM     22  C   UNL     1      -0.497   3.878   0.987  0.00  0.00    -0.050 A 
ATOM     23  C   UNL     1       0.634   3.457   0.312  0.00  0.00    +0.003 A 
ATOM     24  C   UNL     1       0.626   2.252  -0.365  0.00  0.00    +0.001 A 
ATOM     25  C   UNL     1      -0.512   1.468  -0.367  0.00  0.00    +0.006 A 
ATOM     26  C   UNL     1      -1.644   1.891   0.303  0.00  0.00    -0.021 A 
ATOM     27  C   UNL     1      -1.635   3.094   0.984  0.00  0.00    +0.009 A 
ENDBRANCH   1  26
BRANCH  18  28
ATOM     28  C   UNL     1      -1.623  -3.735   3.230  0.00  0.00    +0.111 C 
BRANCH  28  29
ATOM     29  C   UNL     1      -0.446  -3.396   4.147  0.00  0.00    +0.000 C 
ATOM     30  C   UNL     1      -0.133  -4.597   5.041  0.00  0.00    +0.009 C 
ATOM     31  C   UNL     1       0.782  -3.060   3.297  0.00  0.00    +0.009 C 
ENDBRANCH  28  29
ENDBRANCH  18  28
TORSDOF 3
