REMARK  Name = ZINC35375277
REMARK  6 active torsions:
REMARK  status: ('A' for Active; 'I' for Inactive)
REMARK    1  A    between atoms: C_1  and  C_2
REMARK    2  A    between atoms: C_2  and  C_3
REMARK    3  A    between atoms: C_3  and  C_5
REMARK    4  A    between atoms: C_3  and  N_6
REMARK    5  A    between atoms: C_11  and  C_28
REMARK    6  A    between atoms: C_28  and  C_29
REMARK                            x       y       z     vdW  Elec       q    Type
REMARK                         _______ _______ _______ _____ _____    ______ ____
ROOT
ATOM      1  N   UNL     1      -0.055  -0.114  -2.441  0.00  0.00    -0.239 N 
ATOM      2  C   UNL     1      -1.342  -0.513  -2.665  0.00  0.00    +0.227 C 
ATOM      3  O   UNL     1      -2.117  -0.975  -1.856  0.00  0.00    -0.275 OA
ATOM      4  C   UNL     1      -1.599  -0.258  -4.125  0.00  0.00    +0.107 C 
ATOM      5  C   UNL     1      -2.935   0.362  -4.553  0.00  0.00    +0.072 C 
ATOM      6  N   UNL     1      -2.543   1.217  -5.722  0.00  0.00    -0.295 NA
ATOM      7  C   UNL     1      -1.113   1.611  -5.525  0.00  0.00    +0.136 C 
ATOM      8  C   UNL     1      -0.727   1.059  -4.216  0.00  0.00    +0.122 C 
ATOM      9  C   UNL     1       0.434   0.690  -3.440  0.00  0.00    +0.228 C 
ATOM     10  O   UNL     1       1.586   1.016  -3.632  0.00  0.00    -0.275 OA
ATOM     11  C   UNL     1      -0.285   1.076  -6.665  0.00  0.00    +0.003 A 
ATOM     12  C   UNL     1       0.006  -0.196  -7.104  0.00  0.00    +0.008 A 
ATOM     13  C   UNL     1       0.820  -0.378  -8.208  0.00  0.00    +0.000 A 
ATOM     14  C   UNL     1       1.339   0.720  -8.868  0.00  0.00    +0.002 A 
ATOM     15  C   UNL     1       1.048   1.996  -8.434  0.00  0.00    +0.023 A 
ATOM     16  C   UNL     1       0.230   2.188  -7.322  0.00  0.00    +0.039 A 
ATOM     17  N   UNL     1      -0.202   3.360  -6.700  0.00  0.00    -0.283 N 
ATOM     18  C   UNL     1      -0.993   3.111  -5.640  0.00  0.00    +0.243 C 
ATOM     19  O   UNL     1      -1.510   3.935  -4.916  0.00  0.00    -0.273 OA
ATOM     20  H   UNL     1      -2.664   0.720  -6.591  0.00  0.00    +0.124 HD
ATOM     21  H   UNL     1       0.039   4.252  -6.997  0.00  0.00    +0.155 HD
ENDROOT
BRANCH   1  22
ATOM     22  C   UNL     1       0.718  -0.497  -1.257  0.00  0.00    +0.081 C 
ATOM     23  C   UNL     1       0.849  -2.021  -1.205  0.00  0.00    +0.028 C 
BRANCH  22  25
ATOM     24  C   UNL     1      -0.019   1.526   0.010  0.00  0.00    +0.006 C 
ATOM     25  C   UNL     1       0.002  -0.004   0.002  0.00  0.00    +0.019 C 
ENDBRANCH  22  25
ENDBRANCH   1  22
BRANCH   5  26
ATOM     26  C   UNL     1      -3.925  -0.724  -4.979  0.00  0.00    +0.054 C 
BRANCH  26  27
ATOM     27  C   UNL     1      -5.263  -0.096  -5.276  0.00  0.00    -0.046 A 
ATOM     28  C   UNL     1      -6.199   0.045  -4.268  0.00  0.00    +0.004 A 
ATOM     29  C   UNL     1      -7.426   0.621  -4.540  0.00  0.00    +0.000 A 
ATOM     30  C   UNL     1      -7.716   1.057  -5.819  0.00  0.00    +0.000 A 
ATOM     31  C   UNL     1      -6.780   0.917  -6.826  0.00  0.00    +0.000 A 
ATOM     32  C   UNL     1      -5.552   0.344  -6.554  0.00  0.00    +0.004 A 
ENDBRANCH  26  27
ENDBRANCH   5  26
TORSDOF 4
