REMARK  Name = ZINC39526406
REMARK  5 active torsions:
REMARK  status: ('A' for Active; 'I' for Inactive)
REMARK    1  A    between atoms: C_1  and  C_2
REMARK    2  A    between atoms: C_2  and  O_3
REMARK    3  A    between atoms: O_3  and  N_4
REMARK    4  A    between atoms: C_5  and  C_18
REMARK    5  A    between atoms: C_23  and  O_24
REMARK                            x       y       z     vdW  Elec       q    Type
REMARK                         _______ _______ _______ _____ _____    ______ ____
ROOT
ATOM      1  N   UNL     1      -1.690  -1.679  -0.135  0.00  0.00    -0.174 NA
ATOM      2  C   UNL     1      -2.008  -2.334  -1.410  0.00  0.00    +0.118 C 
ATOM      3  C   UNL     1      -1.657  -3.821  -1.323  0.00  0.00    +0.026 C 
ATOM      4  C   UNL     1      -2.455  -4.462  -0.184  0.00  0.00    +0.004 C 
ATOM      5  C   UNL     1      -2.142  -3.731   1.124  0.00  0.00    +0.025 C 
ATOM      6  C   UNL     1      -2.478  -2.246   0.966  0.00  0.00    +0.049 C 
ATOM      7  C   UNL     1      -2.146  -1.510   2.265  0.00  0.00    +0.025 C 
ATOM      8  C   UNL     1      -2.485  -0.026   2.112  0.00  0.00    +0.003 C 
ATOM      9  C   UNL     1      -3.977   0.128   1.806  0.00  0.00    +0.019 C 
ATOM     10  C   UNL     1      -4.308  -0.608   0.506  0.00  0.00    +0.082 C 
ATOM     11  C   UNL     1      -3.969  -2.092   0.659  0.00  0.00    +0.044 C 
ATOM     12 CL   UNL     1      -6.065  -0.427   0.144  0.00  0.00    -0.122 Cl
ENDROOT
BRANCH   2  13
ATOM     13  C   UNL     1      -1.209  -1.694  -2.516  0.00  0.00    +0.013 A 
ATOM     14  C   UNL     1       0.138  -1.443  -2.340  0.00  0.00    +0.009 A 
ATOM     15  C   UNL     1       0.871  -0.855  -3.355  0.00  0.00    +0.001 A 
ATOM     16  C   UNL     1       0.258  -0.517  -4.547  0.00  0.00    +0.004 A 
ATOM     17  C   UNL     1      -1.089  -0.766  -4.728  0.00  0.00    +0.046 A 
ATOM     18  C   UNL     1      -1.825  -1.361  -3.713  0.00  0.00    +0.122 A 
BRANCH  18  19
ATOM     19  O   UNL     1      -3.149  -1.612  -3.891  0.00  0.00    -0.506 OA
ATOM     20  H   UNL     1      -3.727  -0.885  -3.620  0.00  0.00    +0.292 HD
ENDBRANCH  18  19
ENDBRANCH   2  13
BRANCH   1  21
ATOM     21  O   UNL     1      -1.883  -0.231  -0.226  0.00  0.00    -0.296 OA
BRANCH  21  23
ATOM     22  C   UNL     1      -0.980   2.010  -0.248  0.00  0.00    +0.036 C 
ATOM     23  C   UNL     1      -0.666   0.514  -0.304  0.00  0.00    +0.182 C 
ENDBRANCH  21  23
ENDBRANCH   1  21
TORSDOF 4
