REMARK  Name = ZINC30738184
REMARK  11 active torsions:
REMARK  status: ('A' for Active; 'I' for Inactive)
REMARK    1  A    between atoms: C_1  and  C_2
REMARK    2  A    between atoms: C_2  and  C_3
REMARK    3  A    between atoms: C_3  and  C_5
REMARK    4  A    between atoms: C_3  and  N_6
REMARK    5  A    between atoms: C_7  and  C_9
REMARK    6  A    between atoms: C_9  and  C_11
REMARK    7  A    between atoms: C_9  and  S_14
REMARK    8  A    between atoms: C_11  and  C_12
REMARK    9  A    between atoms: C_11  and  C_13
REMARK   10  A    between atoms: S_14  and  C_15
REMARK   11  A    between atoms: N_28  and  C_29
REMARK                            x       y       z     vdW  Elec       q    Type
REMARK                         _______ _______ _______ _____ _____    ______ ____
ROOT
ATOM      1  C   UNL     1       4.345   0.278  -1.701  0.00  0.00    +0.198 A 
ATOM      2  N   UNL     1       4.548   1.105  -2.698  0.00  0.00    -0.120 NA
ATOM      3  N   UNL     1       4.675   0.350  -3.869  0.00  0.00    -0.109 NA
ATOM      4  C   UNL     1       4.545  -0.919  -3.554  0.00  0.00    +0.240 A 
ATOM      5  N   UNL     1       4.337  -0.995  -2.204  0.00  0.00    -0.256 N 
ATOM      6  C   UNL     1       4.163  -2.230  -1.582  0.00  0.00    +0.064 A 
ATOM      7  C   UNL     1       3.953  -2.318  -0.215  0.00  0.00    +0.027 A 
ATOM      8  C   UNL     1       3.784  -3.554   0.377  0.00  0.00    +0.002 A 
ATOM      9  C   UNL     1       3.822  -4.712  -0.386  0.00  0.00    +0.001 A 
ATOM     10  C   UNL     1       4.030  -4.643  -1.747  0.00  0.00    +0.015 A 
ATOM     11  C   UNL     1       4.203  -3.401  -2.355  0.00  0.00    +0.064 A 
ATOM     12  C   UNL     1       4.428  -3.284  -3.808  0.00  0.00    +0.263 A 
ATOM     13  O   UNL     1       4.468  -4.277  -4.509  0.00  0.00    -0.267 OA
ATOM     14  N   UNL     1       4.588  -2.058  -4.345  0.00  0.00    -0.280 N 
ATOM     15  C   UNL     1       4.812  -1.926  -5.787  0.00  0.00    +0.155 C 
ENDROOT
BRANCH   1  16
ATOM     16  S   UNL     1       4.121   0.726  -0.012  0.00  0.00    -0.073 S 
BRANCH  16  17
ATOM     17  C   UNL     1       4.397   2.519   0.006  0.00  0.00    +0.142 C 
BRANCH  17  19
ATOM     18  N   UNL     1       6.202   4.030  -0.755  0.00  0.00    -0.312 N 
ATOM     19  C   UNL     1       5.841   2.808  -0.317  0.00  0.00    +0.227 C 
ATOM     20  O   UNL     1       6.678   1.940  -0.183  0.00  0.00    -0.275 OA
ATOM     21  H   UNL     1       5.443   4.817  -0.876  0.00  0.00    +0.149 HD
BRANCH  18  22
ATOM     22  C   UNL     1       7.605   4.311  -1.069  0.00  0.00    +0.070 C 
ATOM     23  C   UNL     1       8.344   4.712   0.209  0.00  0.00    +0.028 C 
BRANCH  22  25
ATOM     24  C   UNL     1       7.052   5.009  -3.404  0.00  0.00    +0.005 C 
ATOM     25  C   UNL     1       7.681   5.455  -2.082  0.00  0.00    +0.018 C 
ENDBRANCH  22  25
ENDBRANCH  18  22
ENDBRANCH  17  19
BRANCH  17  26
ATOM     26  C   UNL     1       4.065   3.072   1.394  0.00  0.00    +0.005 C 
ATOM     27  C   UNL     1       2.570   2.897   1.668  0.00  0.00    +0.009 C 
ATOM     28  C   UNL     1       4.870   2.313   2.451  0.00  0.00    +0.009 C 
ENDBRANCH  17  26
ENDBRANCH  16  17
ENDBRANCH   1  16
TORSDOF 6
