REMARK  Name = ZINC60544871
REMARK  4 active torsions:
REMARK  status: ('A' for Active; 'I' for Inactive)
REMARK    1  A    between atoms: C_1  and  C_2
REMARK    2  A    between atoms: C_5  and  S_7
REMARK    3  A    between atoms: S_7  and  N_10
REMARK    4  A    between atoms: N_17  and  C_20
REMARK                            x       y       z     vdW  Elec       q    Type
REMARK                         _______ _______ _______ _____ _____    ______ ____
ROOT
ATOM      1  N   UNL     1       1.300  -4.748  -1.614  0.00  0.00    -0.103 NA
ATOM      2  C   UNL     1       1.753  -5.941  -1.914  0.00  0.00    +0.192 A 
ATOM      3  N   UNL     1       1.971  -6.506  -3.148  0.00  0.00    -0.336 N 
ATOM      4  C   UNL     1       2.458  -7.791  -3.232  0.00  0.00    +0.030 A 
ATOM      5  C   UNL     1       2.699  -8.439  -2.083  0.00  0.00    +0.026 A 
ATOM      6  S   UNL     1       2.261  -7.267  -0.827  0.00  0.00    -0.052 S 
ATOM      7  C   UNL     1       3.222  -9.829  -1.922  0.00  0.00    +0.128 C 
ATOM      8  N   UNL     1       3.112 -10.520  -3.220  0.00  0.00    -0.300 NA
ATOM      9  C   UNL     1       3.659  -9.681  -4.296  0.00  0.00    +0.090 C 
ATOM     10  C   UNL     1       2.731  -8.494  -4.560  0.00  0.00    +0.069 C 
ATOM     11  C   UNL     1       3.782 -11.827  -3.179  0.00  0.00    +0.105 C 
ATOM     12  H   UNL     1       1.783  -6.003  -3.955  0.00  0.00    +0.168 HD
ENDROOT
BRANCH   1  13
ATOM     13  S   UNL     1       1.134  -4.300  -0.029  0.00  0.00    +0.107 S 
ATOM     14  O   UNL     1       2.445  -4.240   0.516  0.00  0.00    -0.146 OA
ATOM     15  O   UNL     1       0.117  -5.126   0.522  0.00  0.00    -0.146 OA
BRANCH  13  20
ATOM     16  C   UNL     1      -0.018   1.503   0.010  0.00  0.00    +0.051 C 
ATOM     17  C   UNL     1       0.002  -0.004   0.002  0.00  0.00    -0.011 A 
ATOM     18  C   UNL     1      -1.039  -0.872   0.002  0.00  0.00    +0.013 A 
ATOM     19  C   UNL     1      -0.780  -2.230  -0.007  0.00  0.00    +0.037 A 
ATOM     20  C   UNL     1       0.507  -2.653  -0.016  0.00  0.00    +0.150 A 
ATOM     21  S   UNL     1       1.404  -1.109  -0.018  0.00  0.00    -0.073 S 
ENDBRANCH  13  20
ENDBRANCH   1  13
TORSDOF 2
