REMARK  Name = ZINC02744055
REMARK  5 active torsions:
REMARK  status: ('A' for Active; 'I' for Inactive)
REMARK    1  A    between atoms: C_1  and  C_2
REMARK    2  A    between atoms: C_10  and  C_13
REMARK    3  A    between atoms: N_14  and  N_15
REMARK    4  A    between atoms: C_16  and  C_18
REMARK    5  A    between atoms: C_20  and  C_23
REMARK                            x       y       z     vdW  Elec       q    Type
REMARK                         _______ _______ _______ _____ _____    ______ ____
ROOT
ATOM      1  C   UNL     1      -2.394  -2.926   0.008  0.00  0.00    +0.044 C 
ATOM      2  C   UNL     1      -1.121  -2.120   0.001  0.00  0.00    -0.050 A 
ATOM      3  C   UNL     1       0.107  -2.766  -0.014  0.00  0.00    +0.007 A 
ATOM      4  C   UNL     1       1.282  -2.046  -0.021  0.00  0.00    +0.047 A 
ATOM      5  C   UNL     1       1.246  -0.656  -0.013  0.00  0.00    +0.138 A 
ATOM      6  C   UNL     1       0.002  -0.004   0.002  0.00  0.00    +0.065 A 
ATOM      7  C   UNL     1      -1.180  -0.744   0.010  0.00  0.00    +0.018 A 
ATOM      8  C   UNL     1      -0.018   1.471   0.010  0.00  0.00    +0.201 A 
ATOM      9  O   UNL     1      -1.064   2.096   0.019  0.00  0.00    -0.286 OA
ATOM     10  C   UNL     1       1.290   2.152   0.001  0.00  0.00    +0.077 A 
ATOM     11  C   UNL     1       2.421   1.392  -0.013  0.00  0.00    +0.209 A 
ATOM     12  O   UNL     1       2.389   0.058  -0.020  0.00  0.00    -0.462 OA
ENDROOT
BRANCH  10  13
ATOM     13  C   UNL     1       1.372   3.623   0.009  0.00  0.00    +0.145 C 
ATOM     14  N   UNL     1       0.286   4.334   0.023  0.00  0.00    -0.187 NA
BRANCH  14  15
ATOM     15  N   UNL     1       0.364   5.733   0.030  0.00  0.00    -0.203 N 
ATOM     16  C   UNL     1      -0.763   6.471   0.045  0.00  0.00    +0.264 C 
ATOM     17  O   UNL     1      -1.849   5.922   0.052  0.00  0.00    -0.268 OA
ATOM     18  H   UNL     1       1.230   6.170   0.024  0.00  0.00    +0.178 HD
BRANCH  16  19
ATOM     19  C   UNL     1      -0.681   7.941   0.052  0.00  0.00    +0.046 A 
ATOM     20  C   UNL     1      -1.867   8.761   0.062  0.00  0.00    +0.024 A 
ATOM     21  C   UNL     1      -1.688  10.096   0.074  0.00  0.00    -0.013 A 
ATOM     22  S   UNL     1       0.085  10.267   0.057  0.00  0.00    -0.101 S 
ATOM     23  C   UNL     1       0.534   8.594   0.043  0.00  0.00    +0.058 A 
ATOM     24  C   UNL     1      -2.733  11.181   0.090  0.00  0.00    +0.051 C 
ENDBRANCH  16  19
ENDBRANCH  14  15
ENDBRANCH  10  13
TORSDOF 3
