REMARK  Name = ZINC16412199
REMARK  5 active torsions:
REMARK  status: ('A' for Active; 'I' for Inactive)
REMARK    1  A    between atoms: C_10  and  N_11
REMARK    2  A    between atoms: C_12  and  C_14
REMARK    3  A    between atoms: C_14  and  C_26
REMARK    4  A    between atoms: C_15  and  C_16
REMARK    5  A    between atoms: C_18  and  N_23
REMARK                            x       y       z     vdW  Elec       q    Type
REMARK                         _______ _______ _______ _____ _____    ______ ____
ROOT
ATOM      1  N   UNL     1      -6.133   2.259   0.360  0.00  0.00    -0.280 N 
ATOM      2  C   UNL     1      -4.962   1.599   0.253  0.00  0.00    +0.259 C 
ATOM      3  O   UNL     1      -4.949   0.383   0.233  0.00  0.00    -0.269 OA
ATOM      4  H   UNL     1      -6.152   3.226   0.290  0.00  0.00    +0.155 HD
ENDROOT
BRANCH   1  14
ATOM      5  C   UNL     1     -11.014   3.139  -0.575  0.00  0.00    +0.001 A 
ATOM      6  C   UNL     1      -9.844   3.863  -0.796  0.00  0.00    +0.001 A 
ATOM      7  C   UNL     1      -8.631   3.364  -0.429  0.00  0.00    +0.010 A 
ATOM      8  C   UNL     1      -8.555   2.103   0.184  0.00  0.00    +0.003 A 
ATOM      9  C   UNL     1      -9.744   1.364   0.404  0.00  0.00    -0.016 A 
ATOM     10  C   UNL     1     -10.978   1.912   0.012  0.00  0.00    +0.008 A 
ATOM     11  C   UNL     1      -9.669   0.100   1.013  0.00  0.00    +0.008 A 
ATOM     12  C   UNL     1      -8.460  -0.407   1.382  0.00  0.00    +0.002 A 
ATOM     13  C   UNL     1      -7.286   0.307   1.166  0.00  0.00    +0.024 A 
ATOM     14  C   UNL     1      -7.316   1.551   0.571  0.00  0.00    +0.041 A 
ENDBRANCH   1  14
BRANCH   2  15
ATOM     15  C   UNL     1      -3.700   2.350   0.160  0.00  0.00    +0.114 C 
ATOM     16  C   UNL     1      -2.505   1.676   0.051  0.00  0.00    +0.033 C 
BRANCH  16  17
ATOM     17  C   UNL     1      -1.241   2.420   0.048  0.00  0.00    -0.003 A 
ATOM     18  C   UNL     1      -1.165   3.678  -0.566  0.00  0.00    +0.042 A 
ATOM     19  C   UNL     1       0.028   4.367  -0.568  0.00  0.00    +0.127 A 
ATOM     20  C   UNL     1       1.149   3.824   0.038  0.00  0.00    +0.034 A 
ATOM     21  C   UNL     1       1.083   2.585   0.650  0.00  0.00    +0.023 A 
ATOM     22  C   UNL     1      -0.103   1.880   0.663  0.00  0.00    +0.048 A 
ATOM     23 CL   UNL     1      -0.184   0.325   1.432  0.00  0.00    -0.083 Cl
BRANCH  19  24
ATOM     24  N   UNL     1       0.111   5.693  -1.220  0.00  0.00    +0.056 N 
ATOM     25  O   UNL     1       1.165   6.305  -1.224  0.00  0.00    -0.126 OA
ATOM     26  O   UNL     1      -0.873   6.173  -1.753  0.00  0.00    -0.126 OA
ENDBRANCH  19  24
ENDBRANCH  16  17
BRANCH  15  27
ATOM     27  C   UNL     1      -3.715   3.782   0.183  0.00  0.00    +0.104 C 
ATOM     28  N   UNL     1      -3.727   4.917   0.202  0.00  0.00    -0.191 NA
ENDBRANCH  15  27
ENDBRANCH   2  15
TORSDOF 5
