REMARK  Name = ZINC25615999
REMARK  6 active torsions:
REMARK  status: ('A' for Active; 'I' for Inactive)
REMARK    1  A    between atoms: C_1  and  N_2
REMARK    2  A    between atoms: C_8  and  C_14
REMARK    3  A    between atoms: N_16  and  C_17
REMARK    4  A    between atoms: C_17  and  C_18
REMARK    5  A    between atoms: C_18  and  C_20
REMARK    6  A    between atoms: C_18  and  N_25
REMARK                            x       y       z     vdW  Elec       q    Type
REMARK                         _______ _______ _______ _____ _____    ______ ____
ROOT
ATOM      1  C   UNL     1      -3.015   4.387  -2.420  0.00  0.00    +0.244 C 
ATOM      2  O   UNL     1      -2.424   4.213  -3.468  0.00  0.00    -0.270 OA
ATOM      3  N   UNL     1      -2.623   3.732  -1.309  0.00  0.00    -0.312 N 
ATOM      4  H   UNL     1      -3.157   3.889  -0.361  0.00  0.00    +0.149 HD
ENDROOT
BRANCH   1  12
ATOM      5  C   UNL     1      -8.930   9.534  -3.368  0.00  0.00    +0.154 C 
ATOM      6  N   UNL     1      -7.801   8.600  -3.345  0.00  0.00    -0.290 N 
ATOM      7  C   UNL     1      -7.466   7.980  -2.191  0.00  0.00    +0.262 A 
ATOM      8  O   UNL     1      -8.086   8.182  -1.163  0.00  0.00    -0.267 OA
ATOM      9  C   UNL     1      -6.325   7.051  -2.223  0.00  0.00    +0.065 A 
ATOM     10  C   UNL     1      -5.905   6.367  -1.082  0.00  0.00    +0.016 A 
ATOM     11  C   UNL     1      -4.846   5.508  -1.155  0.00  0.00    +0.014 A 
ATOM     12  C   UNL     1      -4.165   5.317  -2.364  0.00  0.00    +0.039 A 
ATOM     13  C   UNL     1      -4.565   5.989  -3.512  0.00  0.00    +0.041 A 
ATOM     14  C   UNL     1      -5.652   6.865  -3.451  0.00  0.00    +0.080 A 
ATOM     15  N   UNL     1      -6.077   7.541  -4.545  0.00  0.00    -0.222 NA
ATOM     16  C   UNL     1      -7.096   8.362  -4.491  0.00  0.00    +0.183 A 
ATOM     17  S   UNL     1      -7.580   9.199  -5.964  0.00  0.00    -0.011 S 
ENDBRANCH   1  12
BRANCH   3  18
ATOM     18  C   UNL     1      -1.484   2.812  -1.365  0.00  0.00    +0.097 C 
BRANCH  18  19
ATOM     19  C   UNL     1      -1.250   2.205   0.020  0.00  0.00    +0.016 C 
BRANCH  19  20
ATOM     20  N   UNL     1      -1.085   3.283   1.005  0.00  0.00    +0.387 N 
ATOM     21  C   UNL     1       0.013   4.181   0.623  0.00  0.00    -0.078 C 
ATOM     22  C   UNL     1       0.063   5.368   1.587  0.00  0.00    -0.019 C 
ATOM     23  C   UNL     1       0.273   4.851   3.014  0.00  0.00    -0.004 C 
ATOM     24  C   UNL     1      -0.857   3.882   3.369  0.00  0.00    -0.019 C 
ATOM     25  C   UNL     1      -0.880   2.738   2.353  0.00  0.00    -0.078 C 
ATOM     26  H   UNL     1      -2.012   3.875   1.020  0.00  0.00    -0.081 HD
ENDBRANCH  19  20
BRANCH  19  27
ATOM     27  C   UNL     1      -0.007   1.355  -0.007  0.00  0.00    +0.093 A 
ATOM     28  C   UNL     1       0.028   0.011   0.034  0.00  0.00    +0.043 A 
ATOM     29  C   UNL     1       1.389  -0.366  -0.020  0.00  0.00    +0.041 A 
ATOM     30  C   UNL     1       2.105   0.770  -0.091  0.00  0.00    +0.195 A 
ATOM     31  O   UNL     1       1.254   1.810  -0.083  0.00  0.00    -0.469 OA
ENDBRANCH  19  27
ENDBRANCH  18  19
ENDBRANCH   3  18
TORSDOF 5
