REMARK  Name = ZINC12202755
REMARK  4 active torsions:
REMARK  status: ('A' for Active; 'I' for Inactive)
REMARK    1  A    between atoms: C_1  and  C_2
REMARK    2  A    between atoms: N_11  and  S_12
REMARK    3  A    between atoms: S_12  and  C_15
REMARK    4  A    between atoms: C_18  and  N_21
REMARK                            x       y       z     vdW  Elec       q    Type
REMARK                         _______ _______ _______ _____ _____    ______ ____
ROOT
ATOM      1  S   UNL     1       0.840  -6.617   0.432  0.00  0.00    +0.074 S 
ATOM      2  O   UNL     1      -0.097  -6.976  -0.574  0.00  0.00    -0.150 OA
ATOM      3  O   UNL     1       2.189  -7.063   0.410  0.00  0.00    -0.150 OA
ENDROOT
BRANCH   1  14
ATOM      4  C   UNL     1      -7.134  -5.406   3.758  0.00  0.00    +0.044 C 
ATOM      5  C   UNL     1      -5.776  -5.581   3.130  0.00  0.00    -0.049 A 
ATOM      6  C   UNL     1      -5.508  -5.045   1.879  0.00  0.00    +0.005 A 
ATOM      7  C   UNL     1      -4.281  -5.191   1.285  0.00  0.00    +0.029 A 
ATOM      8  C   UNL     1      -3.243  -5.896   1.936  0.00  0.00    +0.080 A 
ATOM      9  C   UNL     1      -3.551  -6.428   3.209  0.00  0.00    +0.041 A 
ATOM     10  C   UNL     1      -4.783  -6.277   3.796  0.00  0.00    +0.020 A 
ATOM     11  S   UNL     1      -2.029  -7.221   3.667  0.00  0.00    -0.051 S 
ATOM     12  C   UNL     1      -1.106  -6.803   2.196  0.00  0.00    +0.179 A 
ATOM     13  N   UNL     1      -1.987  -6.128   1.494  0.00  0.00    -0.224 NA
ATOM     14  N   UNL     1       0.200  -7.115   1.876  0.00  0.00    -0.194 N 
ATOM     15  H   UNL     1       0.743  -7.626   2.496  0.00  0.00    +0.176 HD
ENDBRANCH   1  14
BRANCH   1  16
ATOM     16  C   UNL     1       0.893  -4.856   0.466  0.00  0.00    +0.109 A 
ATOM     17  C   UNL     1       2.014  -4.208   0.952  0.00  0.00    +0.030 A 
ATOM     18  C   UNL     1       2.059  -2.828   0.980  0.00  0.00    +0.026 A 
ATOM     19  C   UNL     1       0.976  -2.091   0.519  0.00  0.00    +0.044 A 
ATOM     20  C   UNL     1      -0.150  -2.744   0.036  0.00  0.00    +0.026 A 
ATOM     21  C   UNL     1      -0.186  -4.124   0.006  0.00  0.00    +0.030 A 
BRANCH  19  22
ATOM     22  N   UNL     1       1.018  -0.690   0.546  0.00  0.00    -0.210 N 
ATOM     23  C   UNL     1       1.500  -0.038  -0.522  0.00  0.00    +0.226 C 
ATOM     24  O   UNL     1       1.895  -0.673  -1.477  0.00  0.00    -0.275 OA
ATOM     25  C   UNL     1       1.561   1.466  -0.560  0.00  0.00    +0.097 C 
ATOM     26  C   UNL     1       1.726   1.998   0.867  0.00  0.00    +0.018 C 
ATOM     27  C   UNL     1       0.582   1.450   1.728  0.00  0.00    +0.097 C 
ATOM     28  C   UNL     1       0.575  -0.053   1.641  0.00  0.00    +0.226 C 
ATOM     29  O   UNL     1       0.160  -0.701   2.578  0.00  0.00    -0.275 OA
ENDBRANCH  19  22
ENDBRANCH   1  16
TORSDOF 3
