REMARK  Name = ZINC08088715
REMARK  9 active torsions:
REMARK  status: ('A' for Active; 'I' for Inactive)
REMARK    1  A    between atoms: C_1  and  C_2
REMARK    2  A    between atoms: C_2  and  C_25
REMARK    3  A    between atoms: C_3  and  C_4
REMARK    4  A    between atoms: N_9  and  S_12
REMARK    5  A    between atoms: S_12  and  C_15
REMARK    6  A    between atoms: C_18  and  C_21
REMARK    7  A    between atoms: C_21  and  C_22
REMARK    8  A    between atoms: C_21  and  C_23
REMARK    9  A    between atoms: C_21  and  C_24
REMARK                            x       y       z     vdW  Elec       q    Type
REMARK                         _______ _______ _______ _____ _____    ______ ____
ROOT
ATOM      1  S   UNL     1       2.205  -2.536   6.924  0.00  0.00    +0.061 S 
ATOM      2  O   UNL     1       1.714  -1.711   7.972  0.00  0.00    -0.153 OA
ATOM      3  O   UNL     1       1.744  -3.865   6.721  0.00  0.00    -0.153 OA
ENDROOT
BRANCH   1   9
ATOM      4  C   UNL     1       0.125   0.051   2.425  0.00  0.00    +0.239 C 
ATOM      5  O   UNL     1      -0.060   1.252   2.444  0.00  0.00    -0.271 OA
ATOM      6  N   UNL     1       0.348  -0.615   3.575  0.00  0.00    -0.295 N 
ATOM      7  C   UNL     1       0.487  -2.078   3.578  0.00  0.00    +0.125 C 
ATOM      8  C   UNL     1       1.823  -2.442   4.236  0.00  0.00    +0.128 C 
ATOM      9  N   UNL     1       1.932  -1.718   5.511  0.00  0.00    -0.174 NA
ATOM     10  C   UNL     1       1.793  -0.255   5.508  0.00  0.00    +0.128 C 
ATOM     11  C   UNL     1       0.462   0.110   4.849  0.00  0.00    +0.125 C 
BRANCH   4  14
ATOM     12  C   UNL     1      -0.500   1.436   0.044  0.00  0.00    +0.039 C 
ATOM     13  C   UNL     1      -0.105  -0.018   0.010  0.00  0.00    -0.071 C 
ATOM     14  C   UNL     1       0.106  -0.676   1.146  0.00  0.00    +0.066 C 
ATOM     15  C   UNL     1       0.050  -0.726  -1.311  0.00  0.00    +0.039 C 
ENDBRANCH   4  14
ENDBRANCH   1   9
BRANCH   1  16
ATOM     16  C   UNL     1       3.951  -2.636   7.138  0.00  0.00    +0.105 A 
ATOM     17  C   UNL     1       4.652  -3.708   6.616  0.00  0.00    +0.029 A 
ATOM     18  C   UNL     1       6.021  -3.787   6.784  0.00  0.00    +0.006 A 
ATOM     19  C   UNL     1       6.691  -2.794   7.474  0.00  0.00    -0.042 A 
ATOM     20  C   UNL     1       5.991  -1.722   7.996  0.00  0.00    +0.006 A 
ATOM     21  C   UNL     1       4.622  -1.641   7.824  0.00  0.00    +0.029 A 
BRANCH  19  22
ATOM     22  C   UNL     1       8.184  -2.880   7.658  0.00  0.00    -0.013 C 
ATOM     23  C   UNL     1       8.867  -2.903   6.289  0.00  0.00    +0.015 C 
ATOM     24  C   UNL     1       8.672  -1.665   8.450  0.00  0.00    +0.015 C 
ATOM     25  C   UNL     1       8.531  -4.160   8.422  0.00  0.00    +0.015 C 
ENDBRANCH  19  22
ENDBRANCH   1  16
TORSDOF 4
