REMARK  Name = ZINC66190172
REMARK  5 active torsions:
REMARK  status: ('A' for Active; 'I' for Inactive)
REMARK    1  A    between atoms: C_1  and  C_2
REMARK    2  A    between atoms: C_2  and  C_3
REMARK    3  A    between atoms: C_2  and  N_4
REMARK    4  A    between atoms: C_7  and  N_10
REMARK    5  A    between atoms: C_17  and  C_20
REMARK                            x       y       z     vdW  Elec       q    Type
REMARK                         _______ _______ _______ _____ _____    ______ ____
ROOT
ATOM      1  N   UNL     1      -3.526  -1.298  -2.771  0.00  0.00    -0.298 N 
ATOM      2  C   UNL     1      -4.726  -1.766  -3.167  0.00  0.00    +0.302 C 
ATOM      3  O   UNL     1      -5.565  -2.066  -2.340  0.00  0.00    -0.253 OA
ATOM      4  N   UNL     1      -4.995  -1.902  -4.481  0.00  0.00    -0.285 N 
ATOM      5  C   UNL     1      -3.953  -1.660  -5.488  0.00  0.00    +0.109 C 
ATOM      6  C   UNL     1      -3.854  -2.887  -6.399  0.00  0.00    +0.020 C 
ATOM      7  C   UNL     1      -5.234  -3.196  -6.984  0.00  0.00    +0.016 C 
ATOM      8  C   UNL     1      -6.211  -3.514  -5.851  0.00  0.00    +0.093 C 
ATOM      9  C   UNL     1      -6.335  -2.300  -4.933  0.00  0.00    +0.122 C 
ATOM     10  H   UNL     1      -2.831  -1.128  -3.426  0.00  0.00    +0.150 HD
ENDROOT
BRANCH   8  11
ATOM     11  C   UNL     1      -7.561  -3.851  -6.429  0.00  0.00    +0.220 C 
ATOM     12  O   UNL     1      -7.876  -3.425  -7.520  0.00  0.00    -0.275 OA
ATOM     13  N   UNL     1      -8.418  -4.625  -5.735  0.00  0.00    -0.297 N 
ATOM     14  C   UNL     1      -8.021  -5.236  -4.457  0.00  0.00    +0.136 C 
ATOM     15  C   UNL     1      -9.100  -4.920  -3.414  0.00  0.00    +0.179 C 
ATOM     16  O   UNL     1     -10.378  -5.300  -3.930  0.00  0.00    -0.377 OA
ATOM     17  C   UNL     1     -10.771  -4.586  -5.104  0.00  0.00    +0.179 C 
ATOM     18  C   UNL     1      -9.780  -4.880  -6.230  0.00  0.00    +0.136 C 
ENDBRANCH   8  11
BRANCH   1  22
ATOM     19  N   UNL     1      -1.369  -0.520   0.012  0.00  0.00    +0.382 N 
ATOM     20  C   UNL     1      -1.373  -2.000  -0.128  0.00  0.00    -0.077 C 
ATOM     21  C   UNL     1      -2.783  -2.337  -0.658  0.00  0.00    +0.002 C 
ATOM     22  C   UNL     1      -3.270  -1.048  -1.350  0.00  0.00    +0.056 C 
ATOM     23  C   UNL     1      -2.114  -0.040  -1.181  0.00  0.00    -0.056 C 
ATOM     24  H   UNL     1      -1.843  -0.243   0.859  0.00  0.00    -0.081 HD
BRANCH  19  26
ATOM     25  C   UNL     1      -0.020   1.523   0.015  0.00  0.00    -0.014 C 
ATOM     26  C   UNL     1       0.007  -0.006   0.001  0.00  0.00    -0.075 C 
ATOM     27  C   UNL     1       0.751  -0.515   1.237  0.00  0.00    -0.014 C 
ENDBRANCH  19  26
ENDBRANCH   1  22
TORSDOF 3
