REMARK  Name = ZINC28579309
REMARK  5 active torsions:
REMARK  status: ('A' for Active; 'I' for Inactive)
REMARK    1  A    between atoms: C_1  and  C_2
REMARK    2  A    between atoms: C_4  and  C_22
REMARK    3  A    between atoms: C_7  and  N_11
REMARK    4  A    between atoms: C_8  and  C_9
REMARK    5  A    between atoms: N_14  and  C_15
REMARK                            x       y       z     vdW  Elec       q    Type
REMARK                         _______ _______ _______ _____ _____    ______ ____
ROOT
ATOM      1  N   UNL     1      -2.431   4.063   0.239  0.00  0.00    -0.263 N 
ATOM      2  C   UNL     1      -1.256   3.412   0.128  0.00  0.00    +0.308 C 
ATOM      3  O   UNL     1      -0.213   4.037   0.127  0.00  0.00    -0.252 OA
ATOM      4  N   UNL     1      -1.238   2.069   0.019  0.00  0.00    -0.269 N 
ATOM      5  H   UNL     1      -3.375   3.498   0.240  0.00  0.00    +0.157 HD
ATOM      6  H   UNL     1      -2.182   1.511  -0.068  0.00  0.00    +0.156 HD
ENDROOT
BRANCH   1  11
ATOM      7  C   UNL     1      -3.993   8.177   1.895  0.00  0.00    +0.014 C 
ATOM      8  C   UNL     1      -3.373   7.705   0.578  0.00  0.00    +0.042 C 
ATOM      9  C   UNL     1      -1.896   8.142   0.539  0.00  0.00    +0.057 C 
ATOM     10  S   UNL     1      -1.045   6.529   0.368  0.00  0.00    -0.105 S 
ATOM     11  C   UNL     1      -2.450   5.439   0.351  0.00  0.00    +0.083 C 
ATOM     12  C   UNL     1      -3.544   6.231   0.463  0.00  0.00    +0.061 C 
ATOM     13  C   UNL     1      -1.620   9.039  -0.668  0.00  0.00    +0.020 C 
BRANCH  12  14
ATOM     14  C   UNL     1      -4.855   5.654   0.475  0.00  0.00    +0.097 C 
ATOM     15  N   UNL     1      -5.894   5.197   0.484  0.00  0.00    -0.191 NA
ENDBRANCH  12  14
ENDBRANCH   1  11
BRANCH   4  16
ATOM     16  C   UNL     1      -0.017   1.384   0.016  0.00  0.00    +0.035 A 
ATOM     17  C   UNL     1       0.127   0.222  -0.731  0.00  0.00    +0.025 A 
ATOM     18  C   UNL     1       1.331  -0.455  -0.727  0.00  0.00    +0.022 A 
ATOM     19  C   UNL     1       2.393   0.023   0.020  0.00  0.00    +0.041 A 
ATOM     20  C   UNL     1       2.252   1.181   0.765  0.00  0.00    +0.022 A 
ATOM     21  C   UNL     1       1.050   1.862   0.765  0.00  0.00    +0.025 A 
ATOM     22 CL   UNL     1       3.904  -0.830   0.022  0.00  0.00    -0.084 Cl
ENDBRANCH   4  16
TORSDOF 3
