REMARK  Name = ZINC08018482
REMARK  8 active torsions:
REMARK  status: ('A' for Active; 'I' for Inactive)
REMARK    1  A    between atoms: C_1  and  C_2
REMARK    2  A    between atoms: C_3  and  C_29
REMARK    3  A    between atoms: C_7  and  N_11
REMARK    4  A    between atoms: N_11  and  N_12
REMARK    5  A    between atoms: C_13  and  C_14
REMARK    6  A    between atoms: C_15  and  C_28
REMARK    7  A    between atoms: N_17  and  C_20
REMARK    8  A    between atoms: C_18  and  C_19
REMARK                            x       y       z     vdW  Elec       q    Type
REMARK                         _______ _______ _______ _____ _____    ______ ____
ROOT
ATOM      1  N   UNL     1       0.486   1.554   4.142  0.00  0.00    -0.189 NA
ATOM      2  C   UNL     1       0.492   2.828   4.386  0.00  0.00    +0.141 C 
ENDROOT
BRANCH   2   3
ATOM      3  C   UNL     1       0.729   3.316   5.759  0.00  0.00    +0.038 A 
ATOM      4  C   UNL     1       0.970   2.520   6.900  0.00  0.00    +0.069 A 
ATOM      5  N   UNL     1       1.131   3.315   7.923  0.00  0.00    -0.175 NA
ATOM      6  N   UNL     1       1.004   4.640   7.491  0.00  0.00    -0.263 N 
ATOM      7  C   UNL     1       0.763   4.632   6.164  0.00  0.00    +0.045 A 
ATOM      8  C   UNL     1       0.565   5.841   5.287  0.00  0.00    +0.066 C 
ATOM      9  C   UNL     1       1.029   1.014   6.931  0.00  0.00    +0.068 C 
BRANCH   6  10
ATOM     10  C   UNL     1       1.118   5.832   8.335  0.00  0.00    +0.130 C 
ATOM     11  C   UNL     1       0.054   5.776   9.444  0.00  0.00    +0.051 C 
ATOM     12  C   UNL     1       0.393   6.871  10.495  0.00  0.00    +0.168 C 
ATOM     13  S   UNL     1       2.225   6.700  10.582  0.00  0.00    -0.029 S 
ATOM     14  O   UNL     1       2.811   7.994  10.565  0.00  0.00    -0.174 OA
ATOM     15  O   UNL     1       2.557   5.795  11.626  0.00  0.00    -0.174 OA
ATOM     16  C   UNL     1       2.531   5.883   8.963  0.00  0.00    +0.192 C 
ENDBRANCH   6  10
ENDBRANCH   2   3
BRANCH   1  17
ATOM     17  N   UNL     1       0.261   1.091   2.839  0.00  0.00    -0.220 N 
ATOM     18  H   UNL     1       0.109   1.724   2.119  0.00  0.00    +0.176 HD
BRANCH  17  25
ATOM     19  C   UNL     1      -1.600   1.383   0.671  0.00  0.00    +0.045 C 
ATOM     20  C   UNL     1      -1.427  -0.112   0.599  0.00  0.00    -0.028 A 
ATOM     21  C   UNL     1      -2.084  -0.827  -0.327  0.00  0.00    -0.008 A 
ATOM     22  S   UNL     1      -1.559  -2.501  -0.009  0.00  0.00    -0.074 S 
ATOM     23  C   UNL     1      -0.472  -2.195   1.358  0.00  0.00    +0.114 A 
ATOM     24  C   UNL     1      -0.543  -0.795   1.527  0.00  0.00    +0.052 A 
ATOM     25  C   UNL     1       0.255  -0.266   2.579  0.00  0.00    +0.150 A 
ATOM     26  N   UNL     1       0.993  -1.091   3.306  0.00  0.00    -0.219 NA
ATOM     27  C   UNL     1       1.013  -2.394   3.088  0.00  0.00    +0.224 A 
ATOM     28  N   UNL     1       0.288  -2.943   2.133  0.00  0.00    -0.228 NA
ATOM     29  C   UNL     1      -3.038  -0.333  -1.383  0.00  0.00    +0.052 C 
ENDBRANCH  17  25
ENDBRANCH   1  17
TORSDOF 4
