REMARK  Name = ZINC04935711
REMARK  8 active torsions:
REMARK  status: ('A' for Active; 'I' for Inactive)
REMARK    1  A    between atoms: C_1  and  C_2
REMARK    2  A    between atoms: C_2  and  O_3
REMARK    3  A    between atoms: O_3  and  C_4
REMARK    4  A    between atoms: C_4  and  C_6
REMARK    5  A    between atoms: C_9  and  S_12
REMARK    6  A    between atoms: S_12  and  N_15
REMARK    7  A    between atoms: C_20  and  N_57
REMARK    8  A    between atoms: C_23  and  C_26
REMARK                            x       y       z     vdW  Elec       q    Type
REMARK                         _______ _______ _______ _____ _____    ______ ____
ROOT
ATOM      1  S   UNL     1       1.866   3.142  -1.106  0.00  0.00    +0.061 S 
ATOM      2  O   UNL     1       3.273   2.988  -1.239  0.00  0.00    -0.153 OA
ATOM      3  O   UNL     1       0.981   3.044  -2.213  0.00  0.00    -0.153 OA
ENDROOT
BRANCH   1   4
ATOM      4  N   UNL     1       1.369   2.014  -0.000  0.00  0.00    -0.180 NA
ATOM      5  C   UNL     1      -0.019   1.528   0.010  0.00  0.00    +0.091 C 
ATOM      6  C   UNL     1       0.002  -0.004   0.002  0.00  0.00    -0.061 C 
ATOM      7  C   UNL     1       2.233  -0.058   0.950  0.00  0.00    -0.061 C 
ATOM      8  C   UNL     1       2.304   1.472   0.998  0.00  0.00    +0.091 C 
ATOM      9  N   UNL     1       0.827  -0.474   1.137  0.00  0.00    +0.383 N 
ATOM     10  H   UNL     1       0.468  -0.057   2.004  0.00  0.00    -0.081 HD
BRANCH   9  11
ATOM     11  C   UNL     1       0.746  -1.946   1.243  0.00  0.00    -0.068 C 
ATOM     12  C   UNL     1      -0.681  -2.333   1.637  0.00  0.00    -0.015 C 
ATOM     13  C   UNL     1      -0.776  -3.854   1.775  0.00  0.00    +0.002 C 
ATOM     14  C   UNL     1       0.199  -4.330   2.854  0.00  0.00    -0.014 C 
ATOM     15  C   UNL     1       1.625  -3.942   2.460  0.00  0.00    +0.002 C 
ATOM     16  C   UNL     1       1.721  -2.422   2.322  0.00  0.00    -0.015 C 
ATOM     17  C   UNL     1      -0.158  -3.674   4.189  0.00  0.00    +0.007 C 
ENDBRANCH   9  11
ENDBRANCH   1   4
BRANCH   1  21
ATOM     18  C   UNL     1       1.181   7.223   0.741  0.00  0.00    +0.059 A 
ATOM     19  C   UNL     1       2.398   6.564   0.927  0.00  0.00    +0.017 A 
ATOM     20  C   UNL     1       2.600   5.322   0.362  0.00  0.00    +0.029 A 
ATOM     21  C   UNL     1       1.600   4.729  -0.388  0.00  0.00    +0.106 A 
ATOM     22  C   UNL     1       0.393   5.378  -0.581  0.00  0.00    +0.029 A 
ATOM     23  C   UNL     1       0.176   6.619  -0.017  0.00  0.00    +0.017 A 
BRANCH  18  24
ATOM     24  C   UNL     1       0.957   8.553   1.343  0.00  0.00    +0.339 C 
ATOM     25  O   UNL     1       1.833   9.077   2.002  0.00  0.00    -0.245 OA
BRANCH  24  26
ATOM     26  O   UNL     1      -0.218   9.186   1.161  0.00  0.00    -0.461 OA
BRANCH  26  28
ATOM     27  C   UNL     1      -1.758  11.048   1.468  0.00  0.00    +0.048 C 
ATOM     28  C   UNL     1      -0.368  10.490   1.782  0.00  0.00    +0.229 C 
ENDBRANCH  26  28
ENDBRANCH  24  26
ENDBRANCH  18  24
ENDBRANCH   1  21
TORSDOF 6
