REMARK  Name = ZINC49457821
REMARK  4 active torsions:
REMARK  status: ('A' for Active; 'I' for Inactive)
REMARK    1  A    between atoms: C_1  and  O_2
REMARK    2  A    between atoms: O_2  and  C_3
REMARK    3  A    between atoms: N_5  and  C_6
REMARK    4  A    between atoms: C_6  and  C_7
REMARK                            x       y       z     vdW  Elec       q    Type
REMARK                         _______ _______ _______ _____ _____    ______ ____
ROOT
ATOM      1  C   UNL     1       1.227  -4.093  -2.091  0.00  0.00    +0.233 C 
ATOM      2  O   UNL     1       0.682  -4.569  -1.118  0.00  0.00    -0.274 OA
ATOM      3  N   UNL     1       1.764  -4.901  -3.026  0.00  0.00    -0.297 N 
ATOM      4  C   UNL     1       2.405  -4.301  -4.161  0.00  0.00    +0.111 C 
ATOM      5  C   UNL     1       2.240  -5.100  -5.418  0.00  0.00    +0.007 C 
ATOM      6  C   UNL     1       0.812  -5.575  -5.633  0.00  0.00    +0.008 C 
ATOM      7  C   UNL     1       0.490  -6.902  -4.975  0.00  0.00    -0.009 C 
ATOM      8  C   UNL     1       1.548  -7.955  -5.316  0.00  0.00    +0.007 C 
ATOM      9  C   UNL     1       2.893  -7.425  -4.813  0.00  0.00    -0.009 C 
ATOM     10  C   UNL     1       3.257  -6.185  -5.630  0.00  0.00    +0.008 C 
ATOM     11  C   UNL     1       2.846  -7.096  -3.339  0.00  0.00    +0.026 C 
ATOM     12  C   UNL     1       1.670  -6.338  -2.834  0.00  0.00    +0.077 C 
ATOM     13  C   UNL     1       0.373  -6.820  -3.460  0.00  0.00    +0.026 C 
ENDROOT
BRANCH   1  14
ATOM     14  C   UNL     1       1.304  -2.596  -2.255  0.00  0.00    +0.203 C 
BRANCH  14  17
ATOM     15  C   UNL     1       0.600  -0.602  -1.046  0.00  0.00    +0.400 C 
ATOM     16  O   UNL     1       1.092   0.072  -1.930  0.00  0.00    -0.226 OA
ATOM     17  N   UNL     1       0.653  -1.946  -1.115  0.00  0.00    -0.273 N 
ATOM     18  H   UNL     1       0.260  -2.484  -0.409  0.00  0.00    +0.153 HD
BRANCH  15  20
ATOM     19  C   UNL     1      -0.017   1.425   0.010  0.00  0.00    +0.282 C 
ATOM     20  O   UNL     1       0.002  -0.004   0.002  0.00  0.00    -0.454 OA
ENDBRANCH  15  20
ENDBRANCH  14  17
ENDBRANCH   1  14
TORSDOF 3
