REMARK  Name = ZINC61629315
REMARK  4 active torsions:
REMARK  status: ('A' for Active; 'I' for Inactive)
REMARK    1  A    between atoms: C_6  and  N_7
REMARK    2  A    between atoms: C_8  and  S_15
REMARK    3  A    between atoms: C_10  and  C_12
REMARK    4  A    between atoms: S_15  and  N_18
REMARK                            x       y       z     vdW  Elec       q    Type
REMARK                         _______ _______ _______ _____ _____    ______ ____
ROOT
ATOM      1  N   UNL     1      -1.218  -0.697  -0.026  0.00  0.00    -0.213 N 
ATOM      2  C   UNL     1      -1.461  -1.849  -0.693  0.00  0.00    +0.197 A 
ATOM      3  C   UNL     1      -2.712  -2.253  -0.374  0.00  0.00    +0.079 A 
ATOM      4  C   UNL     1      -3.253  -1.319   0.516  0.00  0.00    +0.130 A 
ATOM      5  N   UNL     1      -2.357  -0.389   0.729  0.00  0.00    -0.164 NA
ENDROOT
BRANCH   1  11
ATOM      6  C   UNL     1       0.507   0.579   1.087  0.00  0.00    +0.029 A 
ATOM      7  C   UNL     1       1.673   1.317   1.034  0.00  0.00    +0.022 A 
ATOM      8  C   UNL     1       2.301   1.532  -0.180  0.00  0.00    +0.041 A 
ATOM      9  C   UNL     1       1.764   1.009  -1.343  0.00  0.00    +0.022 A 
ATOM     10  C   UNL     1       0.598   0.270  -1.295  0.00  0.00    +0.029 A 
ATOM     11  C   UNL     1      -0.035   0.052  -0.078  0.00  0.00    +0.068 A 
ATOM     12 CL   UNL     1       3.767   2.461  -0.244  0.00  0.00    -0.084 Cl
ENDBRANCH   1  11
BRANCH   4  13
ATOM     13  C   UNL     1      -4.629  -1.376   1.129  0.00  0.00    +0.391 C 
ATOM     14  F   UNL     1      -5.086  -0.076   1.371  0.00  0.00    -0.202 F 
ATOM     15  F   UNL     1      -5.505  -2.022   0.249  0.00  0.00    -0.202 F 
ENDBRANCH   4  13
BRANCH   2  16
ATOM     16  S   UNL     1      -0.348  -2.674  -1.781  0.00  0.00    +0.073 S 
ATOM     17  O   UNL     1      -0.568  -2.130  -3.075  0.00  0.00    -0.152 OA
ATOM     18  O   UNL     1       0.926  -2.653  -1.152  0.00  0.00    -0.152 OA
BRANCH  16  19
ATOM     19  N   UNL     1      -0.816  -4.261  -1.849  0.00  0.00    -0.202 NA
ATOM     20  H   UNL     1      -0.660  -4.779  -2.654  0.00  0.00    +0.144 HD
ATOM     21  H   UNL     1      -1.245  -4.673  -1.083  0.00  0.00    +0.144 HD
ENDBRANCH  16  19
ENDBRANCH   2  16
TORSDOF 4
