REMARK  Name = ZINC12786550
REMARK  5 active torsions:
REMARK  status: ('A' for Active; 'I' for Inactive)
REMARK    1  A    between atoms: C_9  and  C_12
REMARK    2  A    between atoms: C_15  and  C_17
REMARK    3  A    between atoms: C_17  and  N_54
REMARK    4  A    between atoms: C_20  and  C_23
REMARK    5  A    between atoms: C_26  and  O_29
REMARK                            x       y       z     vdW  Elec       q    Type
REMARK                         _______ _______ _______ _____ _____    ______ ____
ROOT
ATOM      1  C   UNL     1      -3.975   7.028   5.032  0.00  0.00    +0.002 A 
ATOM      2  C   UNL     1      -3.548   8.217   5.593  0.00  0.00    +0.004 A 
ATOM      3  C   UNL     1      -2.668   9.034   4.909  0.00  0.00    +0.047 A 
ATOM      4  C   UNL     1      -2.209   8.664   3.654  0.00  0.00    +0.143 A 
ATOM      5  C   UNL     1      -2.645   7.467   3.089  0.00  0.00    +0.078 A 
ATOM      6  C   UNL     1      -3.523   6.650   3.781  0.00  0.00    +0.027 A 
ATOM      7  N   UNL     1      -2.175   7.084   1.821  0.00  0.00    -0.266 N 
ATOM      8  C   UNL     1      -1.493   8.106   1.007  0.00  0.00    +0.168 C 
ATOM      9  C   UNL     1      -0.564   8.897   1.939  0.00  0.00    +0.276 C 
ATOM     10  O   UNL     1      -1.346   9.475   2.987  0.00  0.00    -0.476 OA
ATOM     11  C   UNL     1      -2.346   5.828   1.363  0.00  0.00    +0.203 C 
ATOM     12  O   UNL     1      -2.959   5.019   2.028  0.00  0.00    -0.277 OA
ENDROOT
BRANCH   9  13
ATOM     13  C   UNL     1       0.122   9.990   1.160  0.00  0.00    +0.253 C 
ATOM     14  O   UNL     1      -0.103  11.153   1.420  0.00  0.00    -0.272 OA
ATOM     15  N   UNL     1       0.985   9.674   0.174  0.00  0.00    -0.326 N 
ATOM     16  H   UNL     1       1.164   8.744  -0.034  0.00  0.00    +0.145 HD
ATOM     17  H   UNL     1       1.426  10.377  -0.328  0.00  0.00    +0.145 HD
ENDBRANCH   9  13
BRANCH  11  18
ATOM     18  C   UNL     1      -1.776   5.429   0.027  0.00  0.00    +0.019 C 
BRANCH  18  24
ATOM     19  C   UNL     1      -1.596   3.597  -1.545  0.00  0.00    -0.078 C 
ATOM     20  C   UNL     1      -1.962   2.129  -1.777  0.00  0.00    -0.011 C 
ATOM     21  C   UNL     1      -1.238   1.258  -0.746  0.00  0.00    +0.016 C 
ATOM     22  C   UNL     1      -1.622   1.720   0.662  0.00  0.00    -0.011 C 
ATOM     23  C   UNL     1      -1.267   3.200   0.823  0.00  0.00    -0.078 C 
ATOM     24  N   UNL     1      -2.015   3.986  -0.182  0.00  0.00    +0.385 N 
ATOM     25  H   UNL     1      -3.018   3.795  -0.074  0.00  0.00    -0.081 HD
BRANCH  21  26
ATOM     26  C   UNL     1      -1.641  -0.182  -0.931  0.00  0.00    -0.044 A 
ATOM     27  C   UNL     1      -2.968  -0.549  -0.802  0.00  0.00    +0.007 A 
ATOM     28  C   UNL     1      -3.341  -1.868  -0.976  0.00  0.00    +0.045 A 
ATOM     29  C   UNL     1      -2.381  -2.826  -1.270  0.00  0.00    +0.117 A 
ATOM     30  C   UNL     1      -1.050  -2.456  -1.394  0.00  0.00    +0.045 A 
ATOM     31  C   UNL     1      -0.683  -1.135  -1.224  0.00  0.00    +0.007 A 
BRANCH  29  32
ATOM     32  O   UNL     1      -2.744  -4.125  -1.436  0.00  0.00    -0.507 OA
ATOM     33  H   UNL     1      -2.729  -4.645  -0.621  0.00  0.00    +0.292 HD
ENDBRANCH  29  32
ENDBRANCH  21  26
ENDBRANCH  18  24
ENDBRANCH  11  18
TORSDOF 5
