REMARK  Name = ZINC21601249
REMARK  7 active torsions:
REMARK  status: ('A' for Active; 'I' for Inactive)
REMARK    1  A    between atoms: C_1  and  C_2
REMARK    2  A    between atoms: C_9  and  N_14
REMARK    3  A    between atoms: C_15  and  C_17
REMARK    4  A    between atoms: C_19  and  O_26
REMARK    5  A    between atoms: C_21  and  O_23
REMARK    6  A    between atoms: O_23  and  C_24
REMARK    7  A    between atoms: O_26  and  C_27
REMARK                            x       y       z     vdW  Elec       q    Type
REMARK                         _______ _______ _______ _____ _____    ______ ____
ROOT
ATOM      1  N   UNL     1       0.095  -4.175  -0.041  0.00  0.00    -0.281 N 
ATOM      2  C   UNL     1      -0.807  -4.873   0.678  0.00  0.00    +0.248 C 
ATOM      3  O   UNL     1      -1.700  -4.292   1.263  0.00  0.00    -0.270 OA
ATOM      4  H   UNL     1       0.857  -4.705  -0.632  0.00  0.00    +0.155 HD
ENDROOT
BRANCH   1  12
ATOM      5  C   UNL     1      -1.025   1.842  -2.170  0.00  0.00    +0.062 C 
ATOM      6  C   UNL     1      -1.162   1.967  -0.651  0.00  0.00    +0.256 C 
ATOM      7  C   UNL     1      -2.426   1.280  -0.203  0.00  0.00    +0.258 C 
ATOM      8  O   UNL     1      -3.463   1.904  -0.121  0.00  0.00    -0.271 OA
ATOM      9  N   UNL     1      -2.401  -0.035   0.107  0.00  0.00    -0.279 N 
ATOM     10  C   UNL     1      -1.183  -0.726   0.038  0.00  0.00    +0.077 A 
ATOM     11  C   UNL     1      -1.155  -2.110   0.033  0.00  0.00    +0.050 A 
ATOM     12  C   UNL     1       0.062  -2.775  -0.035  0.00  0.00    +0.036 A 
ATOM     13  C   UNL     1       1.247  -2.053  -0.096  0.00  0.00    +0.027 A 
ATOM     14  C   UNL     1       1.219  -0.671  -0.091  0.00  0.00    +0.049 A 
ATOM     15  C   UNL     1       0.008  -0.004  -0.025  0.00  0.00    +0.143 A 
ATOM     16  O   UNL     1      -0.034   1.356  -0.020  0.00  0.00    -0.478 OA
ATOM     17  H   UNL     1      -3.327  -0.547   0.408  0.00  0.00    +0.155 HD
ENDBRANCH   1  12
BRANCH   2  18
ATOM     18  C   UNL     1      -0.710  -6.346   0.754  0.00  0.00    +0.044 A 
ATOM     19  C   UNL     1       0.311  -7.016   0.078  0.00  0.00    +0.060 A 
ATOM     20  C   UNL     1       0.401  -8.396   0.156  0.00  0.00    +0.138 A 
ATOM     21  C   UNL     1      -0.528  -9.113   0.897  0.00  0.00    +0.101 A 
ATOM     22  C   UNL     1      -1.548  -8.451   1.567  0.00  0.00    +0.138 A 
ATOM     23  C   UNL     1      -1.642  -7.071   1.498  0.00  0.00    +0.060 A 
ATOM     24 BR   UNL     1      -0.405 -10.998   0.994  0.00  0.00    -0.043 Br
BRANCH  22  25
ATOM     25  O   UNL     1      -2.456  -9.158   2.290  0.00  0.00    -0.494 OA
ATOM     26  C   UNL     1      -3.479  -8.412   2.953  0.00  0.00    +0.277 C 
ENDBRANCH  22  25
BRANCH  20  27
ATOM     27  O   UNL     1       1.398  -9.049  -0.498  0.00  0.00    -0.494 OA
ATOM     28  C   UNL     1       2.319  -8.248  -1.241  0.00  0.00    +0.277 C 
ENDBRANCH  20  27
ENDBRANCH   2  18
TORSDOF 4
