REMARK  Name = ZINC48570136
REMARK  3 active torsions:
REMARK  status: ('A' for Active; 'I' for Inactive)
REMARK    1  A    between atoms: C_6  and  N_7
REMARK    2  A    between atoms: C_8  and  C_10
REMARK    3  A    between atoms: N_12  and  C_13
REMARK                            x       y       z     vdW  Elec       q    Type
REMARK                         _______ _______ _______ _____ _____    ______ ____
ROOT
ATOM      1  C   UNL     1      -2.466  -2.820  -0.203  0.00  0.00    +0.300 C 
ATOM      2  O   UNL     1      -3.524  -2.225  -0.189  0.00  0.00    -0.265 OA
ATOM      3  N   UNL     1      -2.450  -4.163  -0.312  0.00  0.00    -0.302 N 
ATOM      4  H   UNL     1      -1.605  -4.639  -0.323  0.00  0.00    +0.150 HD
ENDROOT
BRANCH   3   5
ATOM      5  C   UNL     1      -3.709  -4.905  -0.414  0.00  0.00    +0.036 C 
ATOM      6  C   UNL     1      -4.475  -4.442  -1.655  0.00  0.00    +0.029 C 
ATOM      7  C   UNL     1      -5.790  -5.217  -1.762  0.00  0.00    -0.008 C 
ATOM      8  C   UNL     1      -5.492  -6.714  -1.874  0.00  0.00    +0.007 C 
ATOM      9  C   UNL     1      -4.727  -7.176  -0.632  0.00  0.00    -0.008 C 
ATOM     10  C   UNL     1      -3.412  -6.402  -0.526  0.00  0.00    +0.029 C 
ATOM     11  C   UNL     1      -5.574  -6.917   0.615  0.00  0.00    +0.007 C 
ATOM     12  C   UNL     1      -5.871  -5.420   0.727  0.00  0.00    -0.008 C 
ATOM     13  C   UNL     1      -6.637  -4.957  -0.514  0.00  0.00    +0.007 C 
ATOM     14  C   UNL     1      -4.556  -4.645   0.834  0.00  0.00    +0.029 C 
ENDBRANCH   3   5
BRANCH   1  16
ATOM     15  N   UNL     1      -1.198  -0.721   0.010  0.00  0.00    -0.278 N 
ATOM     16  C   UNL     1      -1.182  -2.064  -0.099  0.00  0.00    +0.303 C 
ATOM     17  O   UNL     1      -0.125  -2.659  -0.113  0.00  0.00    -0.265 OA
ATOM     18  H   UNL     1      -2.043  -0.251   0.098  0.00  0.00    +0.155 HD
BRANCH  15  24
ATOM     19  C   UNL     1       1.071  -0.453  -0.767  0.00  0.00    +0.026 A 
ATOM     20  C   UNL     1       2.256   0.257  -0.780  0.00  0.00    +0.041 A 
ATOM     21  C   UNL     1       2.379   1.415  -0.033  0.00  0.00    +0.142 A 
ATOM     22  C   UNL     1       1.313   1.866   0.731  0.00  0.00    +0.078 A 
ATOM     23  C   UNL     1       0.126   1.159   0.746  0.00  0.00    +0.046 A 
ATOM     24  C   UNL     1       0.002  -0.004  -0.004  0.00  0.00    +0.035 A 
ATOM     25 CL   UNL     1       1.470   3.319   1.668  0.00  0.00    -0.081 Cl
ATOM     26  F   UNL     1       3.539   2.108  -0.047  0.00  0.00    -0.204 F 
ENDBRANCH  15  24
ENDBRANCH   1  16
TORSDOF 3
