REMARK  Name = ZINC05559649
REMARK  2 active torsions:
REMARK  status: ('A' for Active; 'I' for Inactive)
REMARK    1  A    between atoms: C_7  and  C_11
REMARK    2  A    between atoms: C_7  and  C_13
REMARK                            x       y       z     vdW  Elec       q    Type
REMARK                         _______ _______ _______ _____ _____    ______ ____
ROOT
ATOM      1  C   UNL     1      -1.232   1.423   0.223  0.00  0.00    +0.000 A 
ATOM      2  C   UNL     1      -1.365   2.800   0.210  0.00  0.00    +0.002 A 
ATOM      3  C   UNL     1      -0.250   3.607   0.124  0.00  0.00    +0.023 A 
ATOM      4  C   UNL     1       1.021   3.040   0.054  0.00  0.00    +0.039 A 
ATOM      5  C   UNL     1       1.141   1.656   0.073  0.00  0.00    +0.007 A 
ATOM      6  C   UNL     1       0.027   0.853   0.160  0.00  0.00    +0.008 A 
ATOM      7  C   UNL     1       2.620   1.356  -0.015  0.00  0.00    +0.186 C 
ATOM      8  C   UNL     1       3.269   2.723  -0.082  0.00  0.00    +0.246 C 
ATOM      9  O   UNL     1       4.457   2.953  -0.162  0.00  0.00    -0.273 OA
ATOM     10  N   UNL     1       2.281   3.632  -0.037  0.00  0.00    -0.283 N 
ATOM     11  H   UNL     1       2.427   4.591  -0.065  0.00  0.00    +0.155 HD
ENDROOT
BRANCH   7  12
ATOM     12  C   UNL     1       2.925   0.565  -1.260  0.00  0.00    +0.004 A 
ATOM     13  C   UNL     1       3.479  -0.698  -1.159  0.00  0.00    +0.007 A 
ATOM     14  C   UNL     1       3.760  -1.424  -2.301  0.00  0.00    +0.000 A 
ATOM     15  C   UNL     1       3.486  -0.888  -3.546  0.00  0.00    +0.001 A 
ATOM     16  C   UNL     1       2.932   0.374  -3.649  0.00  0.00    +0.020 A 
ATOM     17  C   UNL     1       2.646   1.099  -2.505  0.00  0.00    +0.046 A 
ATOM     18 CL   UNL     1       1.944   2.681  -2.634  0.00  0.00    -0.083 Cl
ENDBRANCH   7  12
BRANCH   7  19
ATOM     19  C   UNL     1       3.071   0.630   1.183  0.00  0.00    +0.088 C 
ATOM     20  N   UNL     1       3.419   0.069   2.108  0.00  0.00    -0.195 NA
ENDBRANCH   7  19
TORSDOF 2
