REMARK  Name = ZINC56694810
REMARK  4 active torsions:
REMARK  status: ('A' for Active; 'I' for Inactive)
REMARK    1  A    between atoms: C_1  and  N_2
REMARK    2  A    between atoms: C_3  and  C_5
REMARK    3  A    between atoms: C_8  and  N_12
REMARK    4  A    between atoms: N_15  and  C_16
REMARK                            x       y       z     vdW  Elec       q    Type
REMARK                         _______ _______ _______ _____ _____    ______ ____
ROOT
ATOM      1  N   UNL     1       0.662  -6.305  -1.047  0.00  0.00    -0.269 N 
ATOM      2  C   UNL     1       1.159  -6.968  -2.110  0.00  0.00    +0.304 C 
ATOM      3  O   UNL     1       1.674  -6.352  -3.024  0.00  0.00    -0.252 OA
ATOM      4  N   UNL     1       1.086  -8.313  -2.161  0.00  0.00    -0.292 N 
ATOM      5  H   UNL     1       0.321  -6.798  -0.284  0.00  0.00    +0.156 HD
ATOM      6  H   UNL     1       0.675  -8.804  -1.432  0.00  0.00    +0.151 HD
ENDROOT
BRANCH   4   7
ATOM      7  C   UNL     1       1.627  -9.033  -3.317  0.00  0.00    +0.107 C 
ATOM      8  C   UNL     1       0.871 -10.341  -3.470  0.00  0.00    +0.038 C 
ATOM      9  C   UNL     1       1.395 -11.081  -4.709  0.00  0.00    +0.076 C 
ATOM     10  S   UNL     1       3.053 -11.702  -4.299  0.00  0.00    -0.125 S 
ATOM     11  C   UNL     1       3.824 -10.318  -3.521  0.00  0.00    +0.013 A 
ATOM     12  C   UNL     1       3.104  -9.209  -3.123  0.00  0.00    -0.011 A 
ATOM     13  C   UNL     1       3.779  -8.162  -2.499  0.00  0.00    +0.045 A 
ATOM     14  C   UNL     1       5.141  -8.222  -2.286  0.00  0.00    +0.124 A 
ATOM     15  C   UNL     1       5.858  -9.334  -2.695  0.00  0.00    +0.039 A 
ATOM     16  C   UNL     1       5.202 -10.372  -3.310  0.00  0.00    +0.018 A 
ATOM     17  F   UNL     1       5.775  -7.194  -1.680  0.00  0.00    -0.205 F 
ENDBRANCH   4   7
BRANCH   1  21
ATOM     18  C   UNL     1       0.588  -2.140  -1.035  0.00  0.00    +0.055 A 
ATOM     19  C   UNL     1       0.789  -2.841   0.158  0.00  0.00    +0.016 A 
ATOM     20  C   UNL     1       0.813  -4.217   0.150  0.00  0.00    +0.024 A 
ATOM     21  C   UNL     1       0.637  -4.911  -1.044  0.00  0.00    +0.036 A 
ATOM     22  C   UNL     1       0.437  -4.218  -2.232  0.00  0.00    +0.044 A 
ATOM     23  C   UNL     1       0.406  -2.840  -2.232  0.00  0.00    +0.055 A 
ATOM     24 CL   UNL     1       0.148  -1.975  -3.714  0.00  0.00    -0.083 Cl
BRANCH  18  27
ATOM     25  C   UNL     1       0.713   1.473   0.130  0.00  0.00    +0.128 C 
ATOM     26  N   UNL     1       0.739   0.008   0.125  0.00  0.00    -0.314 N 
ATOM     27  C   UNL     1       0.562  -0.665  -1.030  0.00  0.00    +0.245 C 
ATOM     28  O   UNL     1       0.383  -0.056  -2.067  0.00  0.00    -0.270 OA
ATOM     29  H   UNL     1       0.882  -0.477   0.952  0.00  0.00    +0.149 HD
ENDBRANCH  18  27
ENDBRANCH   1  21
TORSDOF 3
