REMARK  Name = ZINC64173460
REMARK  4 active torsions:
REMARK  status: ('A' for Active; 'I' for Inactive)
REMARK    1  A    between atoms: C_4  and  S_7
REMARK    2  A    between atoms: S_7  and  N_10
REMARK    3  A    between atoms: C_13  and  C_16
REMARK    4  A    between atoms: C_21  and  C_24
REMARK                            x       y       z     vdW  Elec       q    Type
REMARK                         _______ _______ _______ _____ _____    ______ ____
ROOT
ATOM      1  C   UNL     1       7.383  -2.651   4.331  0.00  0.00    +0.219 C 
ATOM      2  O   UNL     1       8.543  -2.430   4.053  0.00  0.00    -0.275 OA
ATOM      3  N   UNL     1       7.067  -3.700   5.116  0.00  0.00    -0.297 N 
ATOM      4  C   UNL     1       8.107  -4.592   5.657  0.00  0.00    +0.113 C 
ATOM      5  C   UNL     1       8.074  -4.487   7.184  0.00  0.00    +0.054 C 
ATOM      6  C   UNL     1       6.661  -4.562   7.683  0.00  0.00    -0.043 C 
ATOM      7  C   UNL     1       5.591  -4.339   6.929  0.00  0.00    -0.004 C 
ATOM      8  C   UNL     1       5.671  -3.995   5.471  0.00  0.00    +0.135 C 
ENDROOT
BRANCH   6   9
ATOM      9  C   UNL     1       6.456  -4.890   9.039  0.00  0.00    -0.016 C 
ATOM     10  C   UNL     1       7.427  -5.046  10.020  0.00  0.00    +0.003 A 
ATOM     11  C   UNL     1       8.837  -4.937   9.996  0.00  0.00    +0.010 A 
ATOM     12  C   UNL     1       9.547  -5.148  11.132  0.00  0.00    +0.001 A 
ATOM     13  C   UNL     1       8.920  -5.473  12.339  0.00  0.00    +0.002 A 
ATOM     14  C   UNL     1       7.575  -5.594  12.437  0.00  0.00    +0.026 A 
ATOM     15  C   UNL     1       6.762  -5.388  11.290  0.00  0.00    +0.043 A 
ATOM     16  N   UNL     1       5.458  -5.446  11.126  0.00  0.00    -0.380 N 
ATOM     17  C   UNL     1       5.134  -5.140   9.729  0.00  0.00    +0.149 C 
ATOM     18  H   UNL     1       4.812  -5.654  11.820  0.00  0.00    +0.160 HD
ENDBRANCH   6   9
BRANCH   1  22
ATOM     19  N   UNL     1       4.804  -0.525   1.734  0.00  0.00    -0.177 NA
ATOM     20  C   UNL     1       5.815   0.281   2.432  0.00  0.00    +0.110 C 
ATOM     21  C   UNL     1       6.920  -0.649   2.943  0.00  0.00    +0.030 C 
ATOM     22  C   UNL     1       6.296  -1.754   3.799  0.00  0.00    +0.078 C 
ATOM     23  C   UNL     1       5.327  -2.577   2.946  0.00  0.00    +0.030 C 
ATOM     24  C   UNL     1       4.200  -1.665   2.438  0.00  0.00    +0.110 C 
BRANCH  19  25
ATOM     25  S   UNL     1       4.347  -0.150   0.187  0.00  0.00    +0.061 S 
ATOM     26  O   UNL     1       3.833  -1.345  -0.385  0.00  0.00    -0.153 OA
ATOM     27  O   UNL     1       5.428   0.568  -0.393  0.00  0.00    -0.153 OA
BRANCH  25  31
ATOM     28  C   UNL     1       0.878   2.744   0.475  0.00  0.00    +0.000 A 
ATOM     29  C   UNL     1       2.175   3.221   0.429  0.00  0.00    +0.002 A 
ATOM     30  C   UNL     1       3.234   2.337   0.341  0.00  0.00    +0.028 A 
ATOM     31  C   UNL     1       2.997   0.976   0.300  0.00  0.00    +0.105 A 
ATOM     32  C   UNL     1       1.701   0.498   0.348  0.00  0.00    +0.028 A 
ATOM     33  C   UNL     1       0.641   1.382   0.434  0.00  0.00    +0.002 A 
ENDBRANCH  25  31
ENDBRANCH  19  25
ENDBRANCH   1  22
TORSDOF 4
