REMARK  Name = ZINC03124729
REMARK  1 active torsions:
REMARK  status: ('A' for Active; 'I' for Inactive)
REMARK    1  A    between atoms: C_9  and  N_19
REMARK                            x       y       z     vdW  Elec       q    Type
REMARK                         _______ _______ _______ _____ _____    ______ ____
ROOT
ATOM      1  C   UNL     1       2.375   1.381  -0.012  0.00  0.00    +0.002 A 
ATOM      2  C   UNL     1       2.374  -0.017  -0.020  0.00  0.00    +0.001 A 
ATOM      3  C   UNL     1       1.200  -0.714  -0.013  0.00  0.00    +0.017 A 
ATOM      4  C   UNL     1       0.002  -0.004   0.002  0.00  0.00    +0.037 A 
ATOM      5  C   UNL     1      -0.018   1.461   0.010  0.00  0.00    +0.060 A 
ATOM      6  C   UNL     1       1.228   2.113   0.002  0.00  0.00    +0.027 A 
ATOM      7  N   UNL     1      -1.158   2.222   0.031  0.00  0.00    -0.311 N 
ATOM      8  C   UNL     1      -0.879   3.573   0.029  0.00  0.00    +0.128 A 
ATOM      9  C   UNL     1      -1.805   4.538   0.044  0.00  0.00    +0.190 A 
ATOM     10  C   UNL     1      -3.224   4.159   0.055  0.00  0.00    +0.219 A 
ATOM     11  O   UNL     1      -4.112   4.993   0.069  0.00  0.00    -0.285 OA
ATOM     12  C   UNL     1      -3.516   2.711   0.051  0.00  0.00    +0.049 A 
ATOM     13  C   UNL     1      -2.440   1.793   0.035  0.00  0.00    +0.071 A 
ATOM     14  C   UNL     1      -2.827   0.374   0.031  0.00  0.00    +0.037 A 
ATOM     15  C   UNL     1      -4.167  -0.027   0.043  0.00  0.00    +0.017 A 
ATOM     16  C   UNL     1      -5.155   0.913   0.056  0.00  0.00    +0.002 A 
ATOM     17  C   UNL     1      -4.833   2.269   0.060  0.00  0.00    +0.014 A 
ATOM     18  S   UNL     1      -1.540  -0.778   0.013  0.00  0.00    -0.085 S 
ENDROOT
BRANCH   9  19
ATOM     19  N   UNL     1      -1.407   5.964   0.047  0.00  0.00    +0.062 N 
ATOM     20  O   UNL     1      -0.131   6.291   0.036  0.00  0.00    -0.126 OA
ATOM     21  O   UNL     1      -2.328   6.905   0.060  0.00  0.00    -0.126 OA
ENDBRANCH   9  19
TORSDOF 1
