REMARK  Name = ZINC62514367
REMARK  10 active torsions:
REMARK  status: ('A' for Active; 'I' for Inactive)
REMARK    1  A    between atoms: C_1  and  C_2
REMARK    2  A    between atoms: C_2  and  C_3
REMARK    3  A    between atoms: C_2  and  C_4
REMARK    4  A    between atoms: C_2  and  C_5
REMARK    5  A    between atoms: C_7  and  C_10
REMARK    6  A    between atoms: C_10  and  C_11
REMARK    7  A    between atoms: C_11  and  N_12
REMARK    8  A    between atoms: C_13  and  C_15
REMARK    9  A    between atoms: N_20  and  C_21
REMARK   10  A    between atoms: C_21  and  C_22
REMARK                            x       y       z     vdW  Elec       q    Type
REMARK                         _______ _______ _______ _____ _____    ______ ____
ROOT
ATOM      1  N   UNL     1       5.676  -2.129  -3.749  0.00  0.00    -0.316 N 
ATOM      2  C   UNL     1       6.722  -2.882  -3.354  0.00  0.00    +0.200 C 
ATOM      3  O   UNL     1       6.596  -3.656  -2.429  0.00  0.00    -0.278 OA
ATOM      4  H   UNL     1       5.777  -1.510  -4.489  0.00  0.00    +0.149 HD
ENDROOT
BRANCH   2   5
ATOM      5  C   UNL     1       8.046  -2.763  -4.062  0.00  0.00    +0.020 C 
ATOM      6  C   UNL     1       8.422  -4.116  -4.703  0.00  0.00    -0.008 C 
ATOM      7  C   UNL     1       9.955  -4.196  -4.476  0.00  0.00    -0.020 C 
ATOM      8  C   UNL     1      10.101  -3.523  -3.089  0.00  0.00    -0.077 C 
ATOM      9  N   UNL     1       9.105  -2.426  -3.093  0.00  0.00    +0.390 N 
ATOM     10  H   UNL     1       9.550  -1.561  -3.363  0.00  0.00    -0.080 HD
BRANCH   9  11
ATOM     11  C   UNL     1       8.521  -2.282  -1.753  0.00  0.00    -0.039 C 
BRANCH  11  12
ATOM     12  C   UNL     1       9.570  -1.771  -0.800  0.00  0.00    -0.029 A 
ATOM     13  C   UNL     1      10.226  -2.650   0.042  0.00  0.00    +0.004 A 
ATOM     14  C   UNL     1      11.188  -2.182   0.917  0.00  0.00    +0.000 A 
ATOM     15  C   UNL     1      11.496  -0.835   0.951  0.00  0.00    +0.003 A 
ATOM     16  C   UNL     1      10.843   0.046   0.110  0.00  0.00    +0.038 A 
ATOM     17  C   UNL     1       9.882  -0.423  -0.771  0.00  0.00    +0.125 A 
ATOM     18  F   UNL     1       9.246   0.436  -1.597  0.00  0.00    -0.205 F 
ENDBRANCH  11  12
ENDBRANCH   9  11
ENDBRANCH   2   5
BRANCH   1  19
ATOM     19  C   UNL     1       4.388  -2.244  -3.060  0.00  0.00    +0.112 C 
BRANCH  19  20
ATOM     20  C   UNL     1       3.380  -1.288  -3.700  0.00  0.00    +0.098 C 
BRANCH  20  23
ATOM     21  C   UNL     1       0.471  -1.035  -1.563  0.00  0.00    +0.233 A 
ATOM     22  N   UNL     1       1.673  -0.686  -1.931  0.00  0.00    -0.196 NA
ATOM     23  C   UNL     1       2.055  -1.407  -2.992  0.00  0.00    +0.173 A 
ATOM     24  N   UNL     1       1.097  -2.227  -3.312  0.00  0.00    -0.061 NA
ATOM     25  O   UNL     1       0.046  -2.005  -2.383  0.00  0.00    -0.337 OA
BRANCH  21  27
ATOM     26  C   UNL     1      -0.503   1.048  -0.636  0.00  0.00    +0.020 C 
ATOM     27  C   UNL     1      -0.303  -0.452  -0.409  0.00  0.00    +0.041 C 
ATOM     28  C   UNL     1       0.475  -0.672   0.890  0.00  0.00    +0.020 C 
ATOM     29  C   UNL     1      -1.666  -1.139  -0.310  0.00  0.00    +0.020 C 
ENDBRANCH  21  27
ENDBRANCH  20  23
ENDBRANCH  19  20
ENDBRANCH   1  19
TORSDOF 7
