REMARK  Name = ZINC38498861
REMARK  6 active torsions:
REMARK  status: ('A' for Active; 'I' for Inactive)
REMARK    1  A    between atoms: C_1  and  C_2
REMARK    2  A    between atoms: C_7  and  N_8
REMARK    3  A    between atoms: C_9  and  C_11
REMARK    4  A    between atoms: C_11  and  C_12
REMARK    5  A    between atoms: C_14  and  C_17
REMARK    6  A    between atoms: C_24  and  C_27
REMARK                            x       y       z     vdW  Elec       q    Type
REMARK                         _______ _______ _______ _____ _____    ______ ____
ROOT
ATOM      1  C   UNL     1      -0.243  -0.931   6.021  0.00  0.00    +0.093 A 
ATOM      2  C   UNL     1       0.600  -0.958   7.140  0.00  0.00    +0.076 A 
ATOM      3  C   UNL     1       0.210  -1.992   7.936  0.00  0.00    +0.167 A 
ATOM      4  O   UNL     1      -0.839  -2.592   7.341  0.00  0.00    -0.354 OA
ATOM      5  N   UNL     1      -1.109  -1.900   6.136  0.00  0.00    -0.082 NA
ENDROOT
BRANCH   3   6
ATOM      6  C   UNL     1       0.826  -2.384   9.220  0.00  0.00    +0.020 A 
ATOM      7  C   UNL     1       1.912  -1.667   9.727  0.00  0.00    +0.015 A 
ATOM      8  C   UNL     1       2.482  -2.031  10.926  0.00  0.00    +0.046 A 
ATOM      9  C   UNL     1       1.983  -3.118  11.644  0.00  0.00    +0.124 A 
ATOM     10  C   UNL     1       0.906  -3.832  11.130  0.00  0.00    -0.002 A 
ATOM     11  C   UNL     1       0.323  -3.471   9.939  0.00  0.00    +0.019 A 
ATOM     12  C   UNL     1       0.610  -4.954  12.107  0.00  0.00    +0.083 C 
ATOM     13  C   UNL     1       1.894  -4.974  12.969  0.00  0.00    +0.175 C 
ATOM     14  O   UNL     1       2.387  -3.630  12.839  0.00  0.00    -0.488 OA
ATOM     15  C   UNL     1       1.563  -5.295  14.428  0.00  0.00    +0.052 C 
ENDBRANCH   3   6
BRANCH   1  16
ATOM     16  C   UNL     1      -0.168   0.054   4.882  0.00  0.00    +0.155 C 
BRANCH  16  18
ATOM     17  N   UNL     1       0.025  -0.014   2.417  0.00  0.00    -0.285 N 
ATOM     18  C   UNL     1      -0.056  -0.693   3.578  0.00  0.00    +0.223 C 
ATOM     19  O   UNL     1      -0.040  -1.906   3.574  0.00  0.00    -0.275 OA
ATOM     20  H   UNL     1       0.078   0.955   2.424  0.00  0.00    +0.155 HD
BRANCH  17  27
ATOM     21  C   UNL     1      -1.265   1.183   0.181  0.00  0.00    +0.045 C 
ATOM     22  C   UNL     1      -0.584  -0.158   0.084  0.00  0.00    -0.029 A 
ATOM     23  C   UNL     1      -0.569  -0.840  -1.117  0.00  0.00    +0.006 A 
ATOM     24  C   UNL     1       0.054  -2.070  -1.207  0.00  0.00    +0.020 A 
ATOM     25  C   UNL     1       0.667  -2.622  -0.095  0.00  0.00    +0.043 A 
ATOM     26  C   UNL     1       0.655  -1.944   1.109  0.00  0.00    +0.043 A 
ATOM     27  C   UNL     1       0.034  -0.706   1.201  0.00  0.00    +0.038 A 
ATOM     28 CL   UNL     1       1.449  -4.168  -0.213  0.00  0.00    -0.083 Cl
ENDBRANCH  17  27
ENDBRANCH  16  18
ENDBRANCH   1  16
TORSDOF 4
