REMARK  Name = ZINC12594101
REMARK  5 active torsions:
REMARK  status: ('A' for Active; 'I' for Inactive)
REMARK    1  A    between atoms: C_4  and  C_7
REMARK    2  A    between atoms: C_8  and  S_9
REMARK    3  A    between atoms: S_9  and  N_12
REMARK    4  A    between atoms: C_18  and  C_20
REMARK    5  A    between atoms: C_20  and  N_21
REMARK                            x       y       z     vdW  Elec       q    Type
REMARK                         _______ _______ _______ _____ _____    ______ ____
ROOT
ATOM      1  N   UNL     1       2.278   1.646   1.423  0.00  0.00    -0.174 NA
ATOM      2  C   UNL     1       2.051   2.482   2.610  0.00  0.00    +0.128 C 
ATOM      3  C   UNL     1       1.599   1.573   3.765  0.00  0.00    +0.125 C 
ATOM      4  N   UNL     1       2.531   0.441   3.863  0.00  0.00    -0.298 N 
ATOM      5  C   UNL     1       2.761  -0.392   2.674  0.00  0.00    +0.125 C 
ATOM      6  C   UNL     1       3.210   0.514   1.521  0.00  0.00    +0.128 C 
ATOM      7  C   UNL     1       3.163   0.172   5.022  0.00  0.00    +0.234 C 
ATOM      8  O   UNL     1       3.931  -0.765   5.091  0.00  0.00    -0.274 OA
ENDROOT
BRANCH   1   9
ATOM      9  S   UNL     1       1.501   1.978  -0.002  0.00  0.00    +0.054 S 
ATOM     10  O   UNL     1       2.299   1.421  -1.038  0.00  0.00    -0.153 OA
ATOM     11  O   UNL     1       1.154   3.355   0.036  0.00  0.00    -0.153 OA
BRANCH   9  13
ATOM     12  C   UNL     1      -1.169   1.723   0.017  0.00  0.00    +0.028 C 
ATOM     13  C   UNL     1      -0.013   1.076   0.008  0.00  0.00    +0.153 C 
BRANCH  12  17
ATOM     14  C   UNL     1      -4.819  -0.450   0.022  0.00  0.00    +0.000 A 
ATOM     15  C   UNL     1      -4.841   0.933   0.030  0.00  0.00    +0.001 A 
ATOM     16  C   UNL     1      -3.659   1.645   0.028  0.00  0.00    +0.008 A 
ATOM     17  C   UNL     1      -2.439   0.967   0.019  0.00  0.00    -0.024 A 
ATOM     18  C   UNL     1      -2.424  -0.429   0.005  0.00  0.00    +0.008 A 
ATOM     19  C   UNL     1      -3.613  -1.129   0.013  0.00  0.00    +0.001 A 
ENDBRANCH  12  17
ENDBRANCH   9  13
ENDBRANCH   1   9
BRANCH   7  20
ATOM     20  C   UNL     1       2.917   1.034   6.233  0.00  0.00    +0.213 C 
BRANCH  20  21
ATOM     21  N   UNL     1       3.716   0.539   7.357  0.00  0.00    -0.215 N 
ATOM     22  C   UNL     1       4.973   0.950   7.635  0.00  0.00    +0.247 C 
ATOM     23  O   UNL     1       5.630   1.767   7.027  0.00  0.00    -0.273 OA
ATOM     24  C   UNL     1       5.382   0.175   8.861  0.00  0.00    +0.113 C 
ATOM     25  C   UNL     1       5.713   1.120  10.024  0.00  0.00    +0.035 C 
ATOM     26  C   UNL     1       6.873   0.407  10.767  0.00  0.00    +0.003 C 
ATOM     27  C   UNL     1       7.693  -0.216   9.609  0.00  0.00    +0.003 C 
ATOM     28  C   UNL     1       6.625  -0.676   8.592  0.00  0.00    +0.035 C 
ATOM     29  N   UNL     1       4.220  -0.659   9.173  0.00  0.00    -0.285 N 
ATOM     30  C   UNL     1       3.290  -0.374   8.239  0.00  0.00    +0.310 C 
ATOM     31  O   UNL     1       2.190  -0.889   8.201  0.00  0.00    -0.252 OA
ATOM     32  H   UNL     1       4.135  -1.289   9.906  0.00  0.00    +0.151 HD
ENDBRANCH  20  21
ENDBRANCH   7  20
TORSDOF 5
