REMARK  Name = ZINC66248637
REMARK  6 active torsions:
REMARK  status: ('A' for Active; 'I' for Inactive)
REMARK    1  A    between atoms: C_1  and  C_2
REMARK    2  A    between atoms: C_5  and  C_8
REMARK    3  A    between atoms: C_9  and  S_10
REMARK    4  A    between atoms: S_10  and  N_13
REMARK    5  A    between atoms: C_16  and  C_19
REMARK    6  A    between atoms: C_19  and  N_20
REMARK                            x       y       z     vdW  Elec       q    Type
REMARK                         _______ _______ _______ _____ _____    ______ ____
ROOT
ATOM      1  N   UNL     1       1.849  -6.913   1.959  0.00  0.00    -0.104 NA
ATOM      2  C   UNL     1       2.018  -8.209   2.047  0.00  0.00    +0.191 A 
ATOM      3  N   UNL     1       3.111  -8.920   2.493  0.00  0.00    -0.338 N 
ATOM      4  C   UNL     1       3.048 -10.282   2.490  0.00  0.00    +0.008 A 
ATOM      5  C   UNL     1       1.948 -10.901   2.061  0.00  0.00    +0.068 A 
ATOM      6  S   UNL     1       0.890  -9.529   1.627  0.00  0.00    -0.057 S 
ATOM      7  H   UNL     1       3.908  -8.461   2.803  0.00  0.00    +0.167 HD
ENDROOT
BRANCH   1   8
ATOM      8  S   UNL     1       0.420  -6.301   1.388  0.00  0.00    +0.094 S 
ATOM      9  O   UNL     1      -0.578  -6.643   2.340  0.00  0.00    -0.147 OA
ATOM     10  O   UNL     1       0.332  -6.682   0.022  0.00  0.00    -0.147 OA
BRANCH   8  12
ATOM     11  C   UNL     1       0.540  -3.862   0.277  0.00  0.00    +0.029 C 
ATOM     12  C   UNL     1       0.558  -4.545   1.413  0.00  0.00    +0.161 C 
BRANCH  11  17
ATOM     13  C   UNL     1       0.991   1.874   0.359  0.00  0.00    +0.044 C 
ATOM     14  C   UNL     1       0.873   0.372   0.338  0.00  0.00    -0.050 A 
ATOM     15  C   UNL     1       0.746  -0.292  -0.870  0.00  0.00    +0.004 A 
ATOM     16  C   UNL     1       0.638  -1.667  -0.896  0.00  0.00    +0.008 A 
ATOM     17  C   UNL     1       0.656  -2.389   0.298  0.00  0.00    -0.024 A 
ATOM     18  C   UNL     1       0.785  -1.713   1.512  0.00  0.00    +0.008 A 
ATOM     19  C   UNL     1       0.897  -0.338   1.525  0.00  0.00    +0.004 A 
ENDBRANCH  11  17
ENDBRANCH   8  12
ENDBRANCH   1   8
BRANCH   4  20
ATOM     20  C   UNL     1       4.225 -11.091   2.971  0.00  0.00    -0.024 C 
BRANCH  20  21
ATOM     21  N   UNL     1       5.365 -10.880   2.070  0.00  0.00    +0.383 N 
ATOM     22  C   UNL     1       6.551 -11.548   2.619  0.00  0.00    -0.078 C 
ATOM     23  C   UNL     1       7.761 -11.264   1.725  0.00  0.00    -0.019 C 
ATOM     24  C   UNL     1       7.482 -11.793   0.315  0.00  0.00    -0.004 C 
ATOM     25  C   UNL     1       6.202 -11.144  -0.218  0.00  0.00    -0.019 C 
ATOM     26  C   UNL     1       5.050 -11.433   0.747  0.00  0.00    -0.078 C 
ATOM     27  H   UNL     1       5.548  -9.891   1.985  0.00  0.00    -0.081 HD
ENDBRANCH  20  21
ENDBRANCH   4  20
TORSDOF 5
