REMARK  Name = ZINC36152066
REMARK  2 active torsions:
REMARK  status: ('A' for Active; 'I' for Inactive)
REMARK    1  A    between atoms: C_4  and  C_7
REMARK    2  A    between atoms: C_7  and  C_8
REMARK                            x       y       z     vdW  Elec       q    Type
REMARK                         _______ _______ _______ _____ _____    ______ ____
ROOT
ATOM      1  C   UNL     1       2.999  -1.962  -2.475  0.00  0.00    +0.152 A 
ATOM      2  N   UNL     1       3.989  -2.635  -1.955  0.00  0.00    -0.132 NA
ATOM      3  N   UNL     1       3.786  -3.902  -2.091  0.00  0.00    -0.121 NA
ATOM      4  C   UNL     1       2.659  -4.091  -2.708  0.00  0.00    +0.209 A 
ATOM      5  N   UNL     1       2.099  -2.867  -2.960  0.00  0.00    -0.225 N 
ATOM      6  N   UNL     1       0.902  -2.632  -3.544  0.00  0.00    -0.277 N 
ATOM      7  C   UNL     1       0.413  -3.684  -4.441  0.00  0.00    +0.101 C 
ATOM      8  C   UNL     1      -0.979  -3.260  -4.944  0.00  0.00    +0.025 C 
ATOM      9  C   UNL     1      -1.873  -2.995  -3.730  0.00  0.00    +0.002 C 
ATOM     10  C   UNL     1      -2.009  -4.264  -2.889  0.00  0.00    +0.001 C 
ATOM     11  C   UNL     1      -0.625  -4.743  -2.439  0.00  0.00    +0.016 C 
ATOM     12  C   UNL     1       0.254  -5.013  -3.682  0.00  0.00    +0.076 C 
ATOM     13  S   UNL     1       1.884  -5.604  -3.188  0.00  0.00    -0.079 S 
ATOM     14  H   UNL     1       0.204  -2.392  -2.856  0.00  0.00    +0.167 HD
ENDROOT
BRANCH   1  15
ATOM     15  C   UNL     1       2.870  -0.461  -2.526  0.00  0.00    +0.081 C 
BRANCH  15  19
ATOM     16  C   UNL     1      -0.019   1.526   0.010  0.00  0.00    +0.000 C 
ATOM     17  C   UNL     1       1.417   2.055  -0.000  0.00  0.00    +0.000 C 
ATOM     18  C   UNL     1       2.133   1.562  -1.259  0.00  0.00    +0.004 C 
ATOM     19  C   UNL     1       2.154   0.032  -1.268  0.00  0.00    -0.004 C 
ATOM     20  C   UNL     1       0.718  -0.497  -1.257  0.00  0.00    +0.004 C 
ATOM     21  C   UNL     1       0.002  -0.004   0.002  0.00  0.00    +0.000 C 
ENDBRANCH  15  19
ENDBRANCH   1  15
TORSDOF 2
