REMARK  Name = ZINC03958178
REMARK  3 active torsions:
REMARK  status: ('A' for Active; 'I' for Inactive)
REMARK    1  A    between atoms: C_4  and  C_7
REMARK    2  A    between atoms: C_7  and  C_8
REMARK    3  A    between atoms: N_21  and  C_24
REMARK                            x       y       z     vdW  Elec       q    Type
REMARK                         _______ _______ _______ _____ _____    ______ ____
ROOT
ATOM      1  C   UNL     1      -2.620   1.018   1.693  0.00  0.00    +0.046 A 
ATOM      2  C   UNL     1      -3.844   1.553   2.072  0.00  0.00    +0.060 A 
ATOM      3  C   UNL     1      -4.362   2.671   1.379  0.00  0.00    +0.027 A 
ATOM      4  C   UNL     1      -5.553   3.207   1.735  0.00  0.00    +0.012 A 
ATOM      5  C   UNL     1      -6.296   2.609   2.848  0.00  0.00    -0.001 A 
ATOM      6  C   UNL     1      -7.531   3.130   3.249  0.00  0.00    +0.010 A 
ATOM      7  C   UNL     1      -8.203   2.554   4.290  0.00  0.00    +0.001 A 
ATOM      8  C   UNL     1      -7.672   1.457   4.953  0.00  0.00    +0.002 A 
ATOM      9  C   UNL     1      -6.456   0.928   4.573  0.00  0.00    +0.027 A 
ATOM     10  C   UNL     1      -5.755   1.498   3.517  0.00  0.00    +0.059 A 
ATOM     11  N   UNL     1      -4.531   0.983   3.120  0.00  0.00    -0.261 N 
ATOM     12  C   UNL     1      -4.016  -0.082   3.765  0.00  0.00    +0.341 A 
ATOM     13  O   UNL     1      -4.635  -0.575   4.688  0.00  0.00    -0.245 OA
ATOM     14  N   UNL     1      -2.833  -0.611   3.408  0.00  0.00    -0.228 N 
ATOM     15  C   UNL     1      -2.123  -0.093   2.387  0.00  0.00    +0.265 A 
ATOM     16  O   UNL     1      -1.053  -0.586   2.072  0.00  0.00    -0.267 OA
ENDROOT
BRANCH  14  17
ATOM     17  C   UNL     1      -2.333  -1.718   4.106  0.00  0.00    +0.054 A 
ATOM     18  C   UNL     1      -1.521  -1.532   5.216  0.00  0.00    +0.026 A 
ATOM     19  C   UNL     1      -1.035  -2.626   5.905  0.00  0.00    +0.002 A 
ATOM     20  C   UNL     1      -1.346  -3.905   5.483  0.00  0.00    +0.000 A 
ATOM     21  C   UNL     1      -2.150  -4.094   4.374  0.00  0.00    +0.002 A 
ATOM     22  C   UNL     1      -2.644  -3.004   3.684  0.00  0.00    +0.026 A 
ENDBRANCH  14  17
BRANCH   1  23
ATOM     23  C   UNL     1      -1.841   1.618   0.550  0.00  0.00    +0.077 C 
BRANCH  23  27
ATOM     24  C   UNL     1       1.016   4.403   2.074  0.00  0.00    +0.000 A 
ATOM     25  C   UNL     1       1.363   3.075   1.916  0.00  0.00    +0.000 A 
ATOM     26  C   UNL     1       0.437   2.172   1.427  0.00  0.00    +0.004 A 
ATOM     27  C   UNL     1      -0.834   2.600   1.090  0.00  0.00    -0.043 A 
ATOM     28  C   UNL     1      -1.182   3.928   1.252  0.00  0.00    +0.004 A 
ATOM     29  C   UNL     1      -0.256   4.830   1.742  0.00  0.00    +0.000 A 
ENDBRANCH  23  27
ENDBRANCH   1  23
TORSDOF 3
