REMARK  Name = ZINC15866504
REMARK  2 active torsions:
REMARK  status: ('A' for Active; 'I' for Inactive)
REMARK    1  A    between atoms: C_3  and  C_6
REMARK    2  A    between atoms: C_9  and  C_17
REMARK                            x       y       z     vdW  Elec       q    Type
REMARK                         _______ _______ _______ _____ _____    ______ ____
ROOT
ATOM      1  C   UNL     1       2.152   1.518   1.269  0.00  0.00    +0.151 C 
ATOM      2  C   UNL     1       1.427   1.983  -0.001  0.00  0.00    +0.059 C 
ATOM      3  C   UNL     1      -0.018   1.472   0.010  0.00  0.00    +0.106 C 
ATOM      4  N   UNL     1       0.002  -0.004   0.002  0.00  0.00    -0.305 N 
ATOM      5  C   UNL     1       0.921  -0.608   0.849  0.00  0.00    +0.236 A 
ATOM      6  N   UNL     1       1.922   0.087   1.445  0.00  0.00    -0.205 N 
ATOM      7  N   UNL     1       2.621  -0.847   2.209  0.00  0.00    -0.042 NA
ATOM      8  N   UNL     1       2.030  -1.984   2.031  0.00  0.00    -0.021 NA
ATOM      9  N   UNL     1       1.029  -1.850   1.231  0.00  0.00    -0.092 NA
ATOM     10  H   UNL     1      -0.593  -0.522  -0.563  0.00  0.00    +0.150 HD
ENDROOT
BRANCH   3  11
ATOM     11  C   UNL     1      -0.718   1.961   1.252  0.00  0.00    -0.027 A 
ATOM     12  C   UNL     1      -0.509   1.322   2.460  0.00  0.00    +0.006 A 
ATOM     13  C   UNL     1      -1.147   1.773   3.600  0.00  0.00    +0.015 A 
ATOM     14  C   UNL     1      -2.002   2.858   3.530  0.00  0.00    +0.018 A 
ATOM     15  C   UNL     1      -2.214   3.495   2.321  0.00  0.00    +0.015 A 
ATOM     16  C   UNL     1      -1.572   3.046   1.182  0.00  0.00    +0.006 A 
ATOM     17 BR   UNL     1      -2.881   3.472   5.088  0.00  0.00    -0.050 Br
ENDBRANCH   3  11
BRANCH   1  20
ATOM     18  C   UNL     1       5.777   2.640   1.598  0.00  0.00    +0.008 A 
ATOM     19  C   UNL     1       4.434   2.549   1.911  0.00  0.00    +0.013 A 
ATOM     20  C   UNL     1       3.630   1.780   1.136  0.00  0.00    +0.014 A 
ATOM     21  S   UNL     1       4.775   1.164  -0.087  0.00  0.00    -0.099 S 
ATOM     22  C   UNL     1       6.249   1.967   0.520  0.00  0.00    +0.045 A 
ENDBRANCH   1  20
TORSDOF 2
