REMARK  Name = ZINC20026652
REMARK  12 active torsions:
REMARK  status: ('A' for Active; 'I' for Inactive)
REMARK    1  A    between atoms: C_1  and  C_2
REMARK    2  A    between atoms: C_2  and  C_3
REMARK    3  A    between atoms: C_2  and  O_4
REMARK    4  A    between atoms: O_4  and  C_5
REMARK    5  A    between atoms: C_8  and  C_13
REMARK    6  A    between atoms: C_10  and  O_11
REMARK    7  A    between atoms: O_11  and  C_12
REMARK    8  A    between atoms: N_18  and  C_32
REMARK    9  A    between atoms: C_22  and  C_30
REMARK   10  A    between atoms: C_23  and  N_29
REMARK   11  A    between atoms: C_24  and  C_25
REMARK   12  A    between atoms: C_24  and  C_27
REMARK                            x       y       z     vdW  Elec       q    Type
REMARK                         _______ _______ _______ _____ _____    ______ ____
ROOT
ATOM      1  C   UNL     1      -2.535  -5.246  -2.782  0.00  0.00    +0.068 C 
ATOM      2  C   UNL     1      -1.893  -6.436  -2.066  0.00  0.00    +0.044 C 
ATOM      3  C   UNL     1      -2.544  -6.706  -0.728  0.00  0.00    +0.093 C 
ATOM      4  N   UNL     1      -1.769  -6.145   0.382  0.00  0.00    -0.301 NA
ATOM      5  C   UNL     1      -0.419  -6.736   0.410  0.00  0.00    +0.111 C 
ATOM      6  C   UNL     1       0.279  -6.344  -0.869  0.00  0.00    -0.007 C 
ATOM      7  C   UNL     1      -0.417  -6.179  -1.964  0.00  0.00    -0.026 C 
ATOM      8  C   UNL     1       0.268  -5.673  -3.179  0.00  0.00    +0.074 C 
ATOM      9  C   UNL     1      -0.475  -5.191  -4.208  0.00  0.00    +0.054 C 
ATOM     10  C   UNL     1      -1.976  -5.157  -4.202  0.00  0.00    +0.188 C 
ATOM     11  C   UNL     1      -2.460  -6.350   1.662  0.00  0.00    +0.105 C 
ENDROOT
BRANCH   1  15
ATOM     12  C   UNL     1      -1.630  -1.642  -0.664  0.00  0.00    +0.162 A 
ATOM     13  C   UNL     1      -0.834  -2.045  -1.725  0.00  0.00    +0.050 A 
ATOM     14  C   UNL     1      -1.129  -3.210  -2.407  0.00  0.00    +0.008 A 
ATOM     15  C   UNL     1      -2.218  -3.977  -2.034  0.00  0.00    -0.037 A 
ATOM     16  C   UNL     1      -3.016  -3.581  -0.977  0.00  0.00    +0.053 A 
ATOM     17  C   UNL     1      -2.722  -2.417  -0.285  0.00  0.00    +0.162 A 
BRANCH  17  18
ATOM     18  O   UNL     1      -3.503  -2.029   0.759  0.00  0.00    -0.491 OA
ATOM     19  C   UNL     1      -4.607  -2.873   1.091  0.00  0.00    +0.277 C 
ENDBRANCH  17  18
BRANCH  12  20
ATOM     20  O   UNL     1      -1.341  -0.496   0.009  0.00  0.00    -0.486 OA
BRANCH  20  22
ATOM     21  C   UNL     1      -0.605   1.790  -0.261  0.00  0.00    +0.051 C 
ATOM     22  C   UNL     1      -0.287   0.315  -0.515  0.00  0.00    +0.167 C 
ATOM     23  C   UNL     1       1.028  -0.049   0.176  0.00  0.00    +0.051 C 
ENDBRANCH  20  22
ENDBRANCH  12  20
ENDBRANCH   1  15
BRANCH   9  24
ATOM     24  N   UNL     1       0.178  -4.709  -5.308  0.00  0.00    -0.358 N 
ATOM     25  H   UNL     1       1.148  -4.717  -5.339  0.00  0.00    +0.142 HD
ATOM     26  H   UNL     1      -0.328  -4.358  -6.057  0.00  0.00    +0.142 HD
ENDBRANCH   9  24
BRANCH  10  27
ATOM     27  C   UNL     1      -2.484  -6.292  -4.990  0.00  0.00    +0.091 C 
ATOM     28  N   UNL     1      -2.877  -7.167  -5.598  0.00  0.00    -0.194 NA
ENDBRANCH  10  27
BRANCH  10  29
ATOM     29  C   UNL     1      -2.433  -3.902  -4.821  0.00  0.00    +0.091 C 
ATOM     30  N   UNL     1      -2.787  -2.934  -5.298  0.00  0.00    -0.194 NA
ENDBRANCH  10  29
BRANCH   8  31
ATOM     31  C   UNL     1       1.698  -5.694  -3.266  0.00  0.00    +0.101 C 
ATOM     32  N   UNL     1       2.831  -5.711  -3.335  0.00  0.00    -0.191 NA
ENDBRANCH   8  31
TORSDOF 8
