REMARK  Name = ZINC13301458
REMARK  6 active torsions:
REMARK  status: ('A' for Active; 'I' for Inactive)
REMARK    1  A    between atoms: C_1  and  C_2
REMARK    2  A    between atoms: C_4  and  C_8
REMARK    3  A    between atoms: C_5  and  C_7
REMARK    4  A    between atoms: N_13  and  S_14
REMARK    5  A    between atoms: S_14  and  C_17
REMARK    6  A    between atoms: C_19  and  C_22
REMARK                            x       y       z     vdW  Elec       q    Type
REMARK                         _______ _______ _______ _____ _____    ______ ____
ROOT
ATOM      1  C   UNL     1       1.027   1.961   0.003  0.00  0.00    +0.081 A 
ATOM      2  C   UNL     1      -0.013   1.076   0.008  0.00  0.00    +0.077 A 
ATOM      3  S   UNL     1      -1.404   2.196   0.019  0.00  0.00    -0.059 S 
ATOM      4  C   UNL     1      -0.504   3.681   0.027  0.00  0.00    +0.178 A 
ATOM      5  N   UNL     1       0.743   3.256   0.013  0.00  0.00    -0.224 NA
ATOM      6  N   UNL     1      -0.978   4.983   0.038  0.00  0.00    -0.193 N 
ATOM      7  H   UNL     1      -0.354   5.726   0.035  0.00  0.00    +0.176 HD
ENDROOT
BRANCH   1  11
ATOM      8  C   UNL     1       4.585  -1.664  -0.050  0.00  0.00    +0.051 C 
ATOM      9  C   UNL     1       4.020  -0.267  -0.037  0.00  0.00    -0.012 A 
ATOM     10  C   UNL     1       2.726   0.127  -0.023  0.00  0.00    +0.021 A 
ATOM     11  C   UNL     1       2.434   1.487  -0.013  0.00  0.00    +0.011 A 
ATOM     12  C   UNL     1       3.470   2.377  -0.023  0.00  0.00    -0.004 A 
ATOM     13  S   UNL     1       4.889   1.293  -0.036  0.00  0.00    -0.098 S 
ATOM     14  C   UNL     1       3.428   3.883  -0.021  0.00  0.00    +0.052 C 
ENDBRANCH   1  11
BRANCH   6  15
ATOM     15  S   UNL     1      -2.609   5.271   0.055  0.00  0.00    +0.080 S 
ATOM     16  O   UNL     1      -2.772   6.682   0.091  0.00  0.00    -0.149 OA
ATOM     17  O   UNL     1      -3.174   4.464  -0.969  0.00  0.00    -0.149 OA
BRANCH  15  18
ATOM     18  C   UNL     1      -3.231   4.653   1.583  0.00  0.00    +0.147 A 
ATOM     19  C   UNL     1      -3.351   5.297   2.760  0.00  0.00    +0.051 A 
ATOM     20  C   UNL     1      -3.900   4.550   3.865  0.00  0.00    +0.072 A 
ATOM     21  C   UNL     1      -4.245   3.236   3.622  0.00  0.00    +0.062 A 
ATOM     22  S   UNL     1      -3.846   3.023   1.951  0.00  0.00    -0.076 S 
BRANCH  20  23
ATOM     23  C   UNL     1      -4.078   5.159   5.191  0.00  0.00    +0.387 C 
ATOM     24  O   UNL     1      -3.764   6.319   5.374  0.00  0.00    -0.241 OA
ATOM     25  O   UNL     1      -4.589   4.431   6.204  0.00  0.00    -0.241 OA
ENDBRANCH  20  23
ENDBRANCH  15  18
ENDBRANCH   6  15
TORSDOF 4
