REMARK  Name = ZINC04885163
REMARK  9 active torsions:
REMARK  status: ('A' for Active; 'I' for Inactive)
REMARK    1  A    between atoms: C_1  and  C_2
REMARK    2  A    between atoms: C_2  and  N_3
REMARK    3  A    between atoms: C_8  and  C_27
REMARK    4  A    between atoms: C_10  and  C_15
REMARK    5  A    between atoms: C_10  and  C_23
REMARK    6  A    between atoms: C_15  and  C_16
REMARK    7  A    between atoms: C_19  and  O_22
REMARK    8  A    between atoms: C_23  and  O_25
REMARK    9  A    between atoms: O_25  and  C_26
REMARK                            x       y       z     vdW  Elec       q    Type
REMARK                         _______ _______ _______ _____ _____    ______ ____
ROOT
ATOM      1  N   UNL     1       0.688  -0.476  -1.203  0.00  0.00    -0.242 N 
ATOM      2  C   UNL     1       0.047  -0.738  -2.389  0.00  0.00    +0.224 C 
ATOM      3  O   UNL     1      -1.089  -0.443  -2.692  0.00  0.00    -0.275 OA
ATOM      4  C   UNL     1       1.013  -1.434  -3.196  0.00  0.00    +0.077 C 
ATOM      5  C   UNL     1       1.288  -1.874  -4.570  0.00  0.00    -0.020 C 
ATOM      6  C   UNL     1       3.305  -1.906  -3.233  0.00  0.00    +0.048 C 
ATOM      7  C   UNL     1       2.376  -0.817  -2.715  0.00  0.00    +0.086 C 
ATOM      8  C   UNL     1       2.033  -0.710  -1.266  0.00  0.00    +0.225 C 
ATOM      9  O   UNL     1       2.796  -0.811  -0.329  0.00  0.00    -0.275 OA
ATOM     10  N   UNL     1       2.739  -2.221  -4.577  0.00  0.00    +0.396 N 
ATOM     11  H   UNL     1       3.224  -1.669  -5.294  0.00  0.00    -0.083 HD
ATOM     12  H   UNL     1       2.856  -3.221  -4.777  0.00  0.00    -0.083 HD
ENDROOT
BRANCH   5  13
ATOM     13  C   UNL     1       1.009  -0.747  -5.530  0.00  0.00    -0.023 A 
ATOM     14  C   UNL     1      -0.057  -0.566  -6.348  0.00  0.00    +0.009 A 
ATOM     15  C   UNL     1      -0.101   0.558  -7.152  0.00  0.00    +0.008 A 
ATOM     16  C   UNL     1       0.921   1.446  -7.099  0.00  0.00    +0.045 A 
ATOM     17  S   UNL     1       1.993   0.702  -5.879  0.00  0.00    -0.103 S 
ENDBRANCH   5  13
BRANCH   1  19
ATOM     18  C   UNL     1      -0.019   1.526   0.010  0.00  0.00    +0.025 C 
ATOM     19  C   UNL     1       0.002  -0.004   0.002  0.00  0.00    +0.113 C 
ENDBRANCH   1  19
BRANCH   6  20
ATOM     20  C   UNL     1       4.716  -1.390  -3.349  0.00  0.00    +0.297 C 
ATOM     21  O   UNL     1       5.079  -0.464  -2.664  0.00  0.00    -0.252 OA
BRANCH  20  22
ATOM     22  O   UNL     1       5.569  -1.959  -4.215  0.00  0.00    -0.469 OA
ATOM     23  C   UNL     1       6.912  -1.410  -4.274  0.00  0.00    +0.280 C 
ENDBRANCH  20  22
ENDBRANCH   6  20
BRANCH   6  24
ATOM     24  C   UNL     1       3.252  -3.136  -2.325  0.00  0.00    +0.034 C 
BRANCH  24  25
ATOM     25  C   UNL     1       4.180  -4.196  -2.860  0.00  0.00    -0.048 A 
ATOM     26  C   UNL     1       3.709  -5.134  -3.760  0.00  0.00    +0.007 A 
ATOM     27  C   UNL     1       4.558  -6.104  -4.257  0.00  0.00    +0.045 A 
ATOM     28  C   UNL     1       5.882  -6.143  -3.844  0.00  0.00    +0.117 A 
ATOM     29  C   UNL     1       6.350  -5.204  -2.936  0.00  0.00    +0.045 A 
ATOM     30  C   UNL     1       5.498  -4.233  -2.446  0.00  0.00    +0.007 A 
BRANCH  28  31
ATOM     31  O   UNL     1       6.718  -7.099  -4.327  0.00  0.00    -0.507 OA
ATOM     32  H   UNL     1       6.736  -7.909  -3.800  0.00  0.00    +0.292 HD
ENDBRANCH  28  31
ENDBRANCH  24  25
ENDBRANCH   6  24
TORSDOF 7
