REMARK  Name = ZINC00350190
REMARK  2 active torsions:
REMARK  status: ('A' for Active; 'I' for Inactive)
REMARK    1  A    between atoms: C_3  and  C_6
REMARK    2  A    between atoms: C_9  and  C_17
REMARK                            x       y       z     vdW  Elec       q    Type
REMARK                         _______ _______ _______ _____ _____    ______ ____
ROOT
ATOM      1  C   UNL     1       3.599   0.625  -0.029  0.00  0.00    +0.178 C 
ATOM      2  C   UNL     1       4.108  -0.121   1.210  0.00  0.00    +0.062 C 
ATOM      3  C   UNL     1       3.795  -1.616   1.079  0.00  0.00    +0.106 C 
ATOM      4  N   UNL     1       4.516  -2.148  -0.094  0.00  0.00    -0.307 N 
ATOM      5  C   UNL     1       4.486  -1.364  -1.240  0.00  0.00    +0.215 A 
ATOM      6  N   UNL     1       4.061  -0.075  -1.228  0.00  0.00    -0.223 N 
ATOM      7  N   UNL     1       4.163   0.394  -2.538  0.00  0.00    -0.156 NA
ATOM      8  C   UNL     1       4.630  -0.596  -3.258  0.00  0.00    +0.247 A 
ATOM      9  N   UNL     1       4.825  -1.665  -2.465  0.00  0.00    -0.202 NA
ATOM     10  H   UNL     1       4.985  -2.996  -0.066  0.00  0.00    +0.149 HD
ENDROOT
BRANCH   3  11
ATOM     11  C   UNL     1       4.244  -2.338   2.323  0.00  0.00    -0.027 A 
ATOM     12  C   UNL     1       5.577  -2.664   2.490  0.00  0.00    +0.007 A 
ATOM     13  C   UNL     1       5.990  -3.326   3.631  0.00  0.00    +0.020 A 
ATOM     14  C   UNL     1       5.069  -3.663   4.606  0.00  0.00    +0.041 A 
ATOM     15  C   UNL     1       3.734  -3.337   4.439  0.00  0.00    +0.020 A 
ATOM     16  C   UNL     1       3.324  -2.670   3.300  0.00  0.00    +0.007 A 
ATOM     17 CL   UNL     1       5.586  -4.495   6.039  0.00  0.00    -0.084 Cl
ENDBRANCH   3  11
BRANCH   1  20
ATOM     18  C   UNL     1      -0.016   1.341   0.009  0.00  0.00    +0.041 A 
ATOM     19  C   UNL     1       1.331   1.769  -0.001  0.00  0.00    +0.047 A 
ATOM     20  C   UNL     1       2.092   0.660  -0.014  0.00  0.00    +0.129 A 
ATOM     21  O   UNL     1       1.282  -0.411  -0.012  0.00  0.00    -0.466 OA
ATOM     22  C   UNL     1       0.002  -0.004   0.002  0.00  0.00    +0.195 A 
ENDBRANCH   1  20
TORSDOF 2
