REMARK  Name = ZINC14950589
REMARK  10 active torsions:
REMARK  status: ('A' for Active; 'I' for Inactive)
REMARK    1  A    between atoms: C_1  and  C_2
REMARK    2  A    between atoms: C_3  and  C_7
REMARK    3  A    between atoms: N_9  and  C_10
REMARK    4  A    between atoms: N_9  and  C_11
REMARK    5  A    between atoms: C_11  and  C_12
REMARK    6  A    between atoms: C_18  and  C_19
REMARK    7  A    between atoms: C_18  and  N_55
REMARK    8  A    between atoms: C_19  and  C_20
REMARK    9  A    between atoms: C_23  and  O_26
REMARK   10  A    between atoms: O_26  and  C_27
REMARK                            x       y       z     vdW  Elec       q    Type
REMARK                         _______ _______ _______ _____ _____    ______ ____
ROOT
ATOM      1  C   UNL     1      -5.351   3.832   2.460  0.00  0.00    -0.010 C 
ATOM      2  C   UNL     1      -5.020   5.294   2.145  0.00  0.00    +0.001 C 
ATOM      3  C   UNL     1      -4.495   5.392   0.710  0.00  0.00    -0.018 C 
ATOM      4  C   UNL     1      -3.269   4.489   0.557  0.00  0.00    -0.079 C 
ATOM      5  C   UNL     1      -4.099   2.975   2.257  0.00  0.00    -0.074 C 
ATOM      6  N   UNL     1      -3.660   3.094   0.850  0.00  0.00    +0.380 N 
ATOM      7  H   UNL     1      -4.438   2.830   0.235  0.00  0.00    -0.082 HD
ENDROOT
BRANCH   1   8
ATOM      8  C   UNL     1      -5.819   3.716   3.912  0.00  0.00    +0.109 C 
BRANCH   8  11
ATOM      9  C   UNL     1      -7.072   5.743   4.421  0.00  0.00    +0.256 C 
ATOM     10  O   UNL     1      -6.018   6.344   4.498  0.00  0.00    -0.269 OA
ATOM     11  N   UNL     1      -7.082   4.440   4.078  0.00  0.00    -0.300 N 
ATOM     12  C   UNL     1      -8.356   3.747   3.869  0.00  0.00    +0.132 C 
BRANCH   9  15
ATOM     13  C   UNL     1      -7.498   8.833   4.965  0.00  0.00    +0.069 C 
ATOM     14  C   UNL     1      -8.581   7.786   4.949  0.00  0.00    +0.081 A 
ATOM     15  C   UNL     1      -8.338   6.439   4.704  0.00  0.00    +0.117 A 
ATOM     16  S   UNL     1      -9.996   5.793   4.838  0.00  0.00    +0.041 S 
ATOM     17  N   UNL     1     -10.751   7.146   5.150  0.00  0.00    -0.110 NA
ATOM     18  N   UNL     1      -9.847   8.056   5.162  0.00  0.00    -0.146 NA
ENDBRANCH   9  15
ENDBRANCH   8  11
ENDBRANCH   1   8
BRANCH   6  19
ATOM     19  C   UNL     1      -2.520   2.188   0.599  0.00  0.00    -0.074 C 
BRANCH  19  20
ATOM     20  C   UNL     1      -2.231   2.164  -0.903  0.00  0.00    +0.016 C 
BRANCH  20  21
ATOM     21  C   UNL     1      -1.085   1.225  -1.179  0.00  0.00    -0.049 A 
ATOM     22  C   UNL     1       0.213   1.701  -1.176  0.00  0.00    +0.007 A 
ATOM     23  C   UNL     1       1.265   0.844  -1.435  0.00  0.00    +0.046 A 
ATOM     24  C   UNL     1       1.018  -0.496  -1.698  0.00  0.00    +0.120 A 
ATOM     25  C   UNL     1      -0.286  -0.971  -1.700  0.00  0.00    +0.046 A 
ATOM     26  C   UNL     1      -1.334  -0.110  -1.440  0.00  0.00    +0.007 A 
BRANCH  24  27
ATOM     27  O   UNL     1       2.051  -1.341  -1.952  0.00  0.00    -0.495 OA
ATOM     28  C   UNL     1       3.366  -0.783  -1.933  0.00  0.00    +0.277 C 
ENDBRANCH  24  27
ENDBRANCH  20  21
ENDBRANCH  19  20
ENDBRANCH   6  19
TORSDOF 7
