REMARK  Name = ZINC53560623
REMARK  5 active torsions:
REMARK  status: ('A' for Active; 'I' for Inactive)
REMARK    1  A    between atoms: C_1  and  N_2
REMARK    2  A    between atoms: N_10  and  C_27
REMARK    3  A    between atoms: N_14  and  C_15
REMARK    4  A    between atoms: C_15  and  C_16
REMARK    5  A    between atoms: C_19  and  N_22
REMARK                            x       y       z     vdW  Elec       q    Type
REMARK                         _______ _______ _______ _____ _____    ______ ____
ROOT
ATOM      1  C   UNL     1      -0.018   1.461   0.010  0.00  0.00    +0.152 C 
ATOM      2  N   UNL     1       0.002  -0.004   0.002  0.00  0.00    -0.309 N 
ATOM      3  C   UNL     1       0.008  -0.826  -1.117  0.00  0.00    +0.152 A 
ATOM      4  C   UNL     1      -0.002  -0.600  -2.505  0.00  0.00    +0.280 A 
ATOM      5  O   UNL     1      -0.019   0.537  -2.943  0.00  0.00    -0.265 OA
ATOM      6  N   UNL     1       0.008  -1.655  -3.345  0.00  0.00    -0.273 N 
ATOM      7  H   UNL     1       0.001  -1.502  -4.303  0.00  0.00    +0.173 HD
ATOM      8  C   UNL     1       0.028  -2.914  -2.876  0.00  0.00    +0.331 A 
ATOM      9  O   UNL     1       0.037  -3.841  -3.664  0.00  0.00    -0.246 OA
ATOM     10  N   UNL     1       0.038  -3.175  -1.555  0.00  0.00    -0.280 N 
ATOM     11  C   UNL     1       0.028  -2.133  -0.642  0.00  0.00    +0.170 A 
ATOM     12  N   UNL     1       0.033  -2.077   0.691  0.00  0.00    -0.196 NA
ATOM     13  C   UNL     1       0.024  -0.821   1.088  0.00  0.00    +0.198 A 
ATOM     14  N   UNL     1       0.031  -0.401   2.399  0.00  0.00    -0.311 N 
ATOM     15  C   UNL     1       0.059  -4.562  -1.083  0.00  0.00    +0.155 C 
ATOM     16  H   UNL     1       0.020   0.547   2.604  0.00  0.00    +0.149 HD
ENDROOT
BRANCH  14  17
ATOM     17  C   UNL     1       0.055  -1.386   3.483  0.00  0.00    +0.139 C 
BRANCH  17  18
ATOM     18  C   UNL     1       0.059  -0.672   4.810  0.00  0.00    -0.030 A 
ATOM     19  C   UNL     1       1.259  -0.324   5.403  0.00  0.00    +0.007 A 
ATOM     20  C   UNL     1       1.265   0.331   6.619  0.00  0.00    +0.023 A 
ATOM     21  C   UNL     1       0.065   0.639   7.247  0.00  0.00    +0.030 A 
ATOM     22  C   UNL     1      -1.138   0.288   6.648  0.00  0.00    +0.023 A 
ATOM     23  C   UNL     1      -1.138  -0.361   5.429  0.00  0.00    +0.007 A 
BRANCH  21  24
ATOM     24  N   UNL     1       0.068   1.300   8.477  0.00  0.00    -0.330 N 
ATOM     25  C   UNL     1       1.264   1.733   9.214  0.00  0.00    +0.105 C 
ATOM     26  C   UNL     1       0.782   2.392  10.524  0.00  0.00    +0.020 C 
ATOM     27  C   UNL     1      -0.634   1.789  10.715  0.00  0.00    +0.020 C 
ATOM     28  C   UNL     1      -1.127   1.686   9.248  0.00  0.00    +0.105 C 
ENDBRANCH  21  24
ENDBRANCH  17  18
ENDBRANCH  14  17
TORSDOF 3
