REMARK  Name = ZINC11859529
REMARK  10 active torsions:
REMARK  status: ('A' for Active; 'I' for Inactive)
REMARK    1  A    between atoms: C_1  and  C_2
REMARK    2  A    between atoms: C_2  and  C_3
REMARK    3  A    between atoms: C_2  and  C_4
REMARK    4  A    between atoms: C_2  and  C_5
REMARK    5  A    between atoms: C_12  and  N_18
REMARK    6  A    between atoms: C_13  and  C_14
REMARK    7  A    between atoms: C_14  and  O_16
REMARK    8  A    between atoms: O_16  and  C_17
REMARK    9  A    between atoms: C_19  and  C_21
REMARK   10  A    between atoms: C_21  and  C_22
REMARK                            x       y       z     vdW  Elec       q    Type
REMARK                         _______ _______ _______ _____ _____    ______ ____
ROOT
ATOM      1  C   UNL     1       0.718  -0.497  -1.257  0.00  0.00    -0.000 C 
ATOM      2  C   UNL     1      -0.017   0.013  -2.499  0.00  0.00    +0.009 C 
ATOM      3  C   UNL     1       0.538  -0.669  -3.751  0.00  0.00    +0.037 C 
ATOM      4  C   UNL     1       2.052  -0.516  -3.759  0.00  0.00    -0.021 A 
ATOM      5  C   UNL     1       2.731  -0.199  -2.636  0.00  0.00    -0.004 A 
ATOM      6  S   UNL     1       4.426  -0.135  -3.140  0.00  0.00    -0.077 S 
ATOM      7  C   UNL     1       4.256  -0.512  -4.767  0.00  0.00    +0.086 A 
ATOM      8  C   UNL     1       2.890  -0.689  -4.933  0.00  0.00    +0.091 A 
ATOM      9  C   UNL     1       2.158   0.038  -1.273  0.00  0.00    +0.046 C 
ENDROOT
BRANCH   1  11
ATOM     10  C   UNL     1      -0.019   1.526   0.010  0.00  0.00    +0.011 C 
ATOM     11  C   UNL     1       0.002  -0.004   0.002  0.00  0.00    -0.035 C 
ATOM     12  C   UNL     1       0.742  -0.511   1.242  0.00  0.00    +0.011 C 
ATOM     13  C   UNL     1      -1.433  -0.534   0.013  0.00  0.00    +0.011 C 
ENDBRANCH   1  11
BRANCH   7  14
ATOM     14  N   UNL     1       5.252  -0.620  -5.725  0.00  0.00    -0.279 N 
ATOM     15  C   UNL     1       6.540  -0.413  -5.385  0.00  0.00    +0.219 C 
ATOM     16  O   UNL     1       6.827  -0.131  -4.241  0.00  0.00    -0.275 OA
ATOM     17  H   UNL     1       5.022  -0.846  -6.640  0.00  0.00    +0.155 HD
BRANCH  15  18
ATOM     18  C   UNL     1       7.622  -0.531  -6.427  0.00  0.00    +0.120 C 
BRANCH  18  19
ATOM     19  C   UNL     1       8.982  -0.250  -5.784  0.00  0.00    +0.150 C 
ATOM     20  C   UNL     1      10.114  -0.374  -6.797  0.00  0.00    +0.252 C 
ATOM     21  O   UNL     1      10.389  -1.407  -7.376  0.00  0.00    -0.272 OA
ATOM     22  N   UNL     1      10.759   0.751  -6.976  0.00  0.00    -0.159 NA
ATOM     23  C   UNL     1      10.470   1.879  -6.354  0.00  0.00    +0.145 C 
ATOM     24  S   UNL     1       9.165   1.529  -5.349  0.00  0.00    -0.080 S 
ATOM     25  N   UNL     1      11.100   3.081  -6.495  0.00  0.00    -0.340 N 
ATOM     26  H   UNL     1      11.847   3.168  -7.108  0.00  0.00    +0.144 HD
ATOM     27  H   UNL     1      10.801   3.848  -5.983  0.00  0.00    +0.144 HD
ENDBRANCH  18  19
ENDBRANCH  15  18
ENDBRANCH   7  14
BRANCH   8  28
ATOM     28  C   UNL     1       2.318  -1.034  -6.236  0.00  0.00    +0.342 C 
ATOM     29  O   UNL     1       1.976  -0.154  -7.003  0.00  0.00    -0.245 OA
BRANCH  28  30
ATOM     30  O   UNL     1       2.171  -2.329  -6.586  0.00  0.00    -0.464 OA
ATOM     31  C   UNL     1       1.606  -2.593  -7.871  0.00  0.00    +0.280 C 
ENDBRANCH  28  30
ENDBRANCH   8  28
TORSDOF 6
