REMARK  Name = ZINC39335485
REMARK  10 active torsions:
REMARK  status: ('A' for Active; 'I' for Inactive)
REMARK    1  A    between atoms: C_1  and  C_2
REMARK    2  A    between atoms: C_3  and  C_25
REMARK    3  A    between atoms: C_4  and  N_24
REMARK    4  A    between atoms: C_6  and  S_10
REMARK    5  A    between atoms: C_7  and  C_8
REMARK    6  A    between atoms: S_10  and  C_11
REMARK    7  A    between atoms: C_11  and  C_12
REMARK    8  A    between atoms: N_14  and  C_15
REMARK    9  A    between atoms: C_20  and  O_21
REMARK   10  A    between atoms: O_21  and  C_22
REMARK                            x       y       z     vdW  Elec       q    Type
REMARK                         _______ _______ _______ _____ _____    ______ ____
ROOT
ATOM      1  S   UNL     1       0.030  -3.060   2.648  0.00  0.00    -0.095 S 
ENDROOT
BRANCH   1   7
ATOM      2  C   UNL     1      -0.088   1.503   0.015  0.00  0.00    +0.046 C 
ATOM      3  C   UNL     1      -0.059  -0.004   0.006  0.00  0.00    -0.010 A 
ATOM      4  C   UNL     1      -0.057  -0.713  -1.198  0.00  0.00    +0.095 A 
ATOM      5  C   UNL     1      -0.029  -2.121  -1.165  0.00  0.00    +0.135 A 
ATOM      6  N   UNL     1      -0.003  -2.771  -0.012  0.00  0.00    -0.224 NA
ATOM      7  C   UNL     1      -0.004  -2.135   1.149  0.00  0.00    +0.117 A 
ATOM      8  C   UNL     1      -0.026  -0.726   1.200  0.00  0.00    +0.088 A 
BRANCH   5   9
ATOM      9  N   UNL     1      -0.027  -2.831  -2.348  0.00  0.00    -0.342 N 
ATOM     10  H   UNL     1      -0.046  -2.361  -3.196  0.00  0.00    +0.144 HD
ATOM     11  H   UNL     1      -0.007  -3.801  -2.332  0.00  0.00    +0.144 HD
ENDBRANCH   5   9
BRANCH   8  12
ATOM     12  C   UNL     1      -0.021  -0.046   2.460  0.00  0.00    +0.102 C 
ATOM     13  N   UNL     1      -0.017   0.494   3.459  0.00  0.00    -0.191 NA
ENDBRANCH   8  12
BRANCH   4  14
ATOM     14  C   UNL     1      -0.085  -0.018  -2.450  0.00  0.00    +0.103 C 
ATOM     15  N   UNL     1      -0.106   0.534  -3.443  0.00  0.00    -0.191 NA
ENDBRANCH   4  14
ENDBRANCH   1   7
BRANCH   1  16
ATOM     16  C   UNL     1       0.059  -4.788   2.098  0.00  0.00    +0.172 C 
BRANCH  16  17
ATOM     17  C   UNL     1       0.090  -5.697   3.299  0.00  0.00    +0.228 C 
ATOM     18  O   UNL     1       0.092  -5.226   4.416  0.00  0.00    -0.275 OA
ATOM     19  N   UNL     1       0.115  -7.035   3.131  0.00  0.00    -0.282 N 
ATOM     20  H   UNL     1       0.048  -7.413   2.240  0.00  0.00    +0.155 HD
BRANCH  19  21
ATOM     21  C   UNL     1       0.238  -7.878   4.243  0.00  0.00    +0.077 A 
ATOM     22  C   UNL     1      -0.352  -7.529   5.449  0.00  0.00    +0.047 A 
ATOM     23  C   UNL     1      -0.230  -8.363   6.545  0.00  0.00    +0.043 A 
ATOM     24  C   UNL     1       0.480  -9.546   6.442  0.00  0.00    +0.024 A 
ATOM     25  C   UNL     1       1.071  -9.900   5.242  0.00  0.00    +0.049 A 
ATOM     26  C   UNL     1       0.947  -9.072   4.138  0.00  0.00    +0.141 A 
ATOM     27 CL   UNL     1      -0.968  -7.925   8.054  0.00  0.00    -0.083 Cl
BRANCH  26  28
ATOM     28  O   UNL     1       1.523  -9.422   2.957  0.00  0.00    -0.493 OA
ATOM     29  C   UNL     1       2.235 -10.660   2.924  0.00  0.00    +0.277 C 
ENDBRANCH  26  28
ENDBRANCH  19  21
ENDBRANCH  16  17
ENDBRANCH   1  16
TORSDOF 8
