REMARK  Name = ZINC39409788
REMARK  6 active torsions:
REMARK  status: ('A' for Active; 'I' for Inactive)
REMARK    1  A    between atoms: C_1  and  C_2
REMARK    2  A    between atoms: C_3  and  C_15
REMARK    3  A    between atoms: N_6  and  C_9
REMARK    4  A    between atoms: C_15  and  C_31
REMARK    5  A    between atoms: N_23  and  C_30
REMARK    6  A    between atoms: N_26  and  C_29
REMARK                            x       y       z     vdW  Elec       q    Type
REMARK                         _______ _______ _______ _____ _____    ______ ____
ROOT
ATOM      1  C   UNL     1       0.235   3.717  -1.971  0.00  0.00    +0.172 C 
ATOM      2  C   UNL     1       0.032   5.245  -2.114  0.00  0.00    +0.139 C 
ATOM      3  C   UNL     1       1.415   5.762  -1.670  0.00  0.00    +0.177 C 
ATOM      4  N   UNL     1       1.846   4.788  -0.647  0.00  0.00    -0.295 N 
ATOM      5  C   UNL     1       1.196   3.617  -0.798  0.00  0.00    +0.231 C 
ATOM      6  O   UNL     1       1.354   2.635  -0.105  0.00  0.00    -0.275 OA
ATOM      7  N   UNL     1       2.363   5.732  -2.779  0.00  0.00    -0.269 N 
ATOM      8  C   UNL     1       1.997   5.830  -4.061  0.00  0.00    +0.312 C 
ATOM      9  O   UNL     1       2.857   5.912  -4.916  0.00  0.00    -0.252 OA
ATOM     10  N   UNL     1       0.707   5.838  -4.430  0.00  0.00    -0.229 N 
ATOM     11  C   UNL     1      -0.274   5.600  -3.533  0.00  0.00    +0.231 C 
ATOM     12  O   UNL     1      -1.433   5.702  -3.875  0.00  0.00    -0.275 OA
ATOM     13  C   UNL     1       0.354   6.096  -5.828  0.00  0.00    +0.142 C 
ATOM     14  C   UNL     1       3.788   5.588  -2.471  0.00  0.00    +0.135 C 
ATOM     15  H   UNL     1       2.506   4.967   0.041  0.00  0.00    +0.151 HD
ENDROOT
BRANCH   1  18
ATOM     16  C   UNL     1      -2.070   4.957  -0.049  0.00  0.00    +0.063 C 
ATOM     17  C   UNL     1      -1.659   3.538  -0.345  0.00  0.00    +0.048 C 
ATOM     18  C   UNL     1      -1.088   3.021  -1.649  0.00  0.00    +0.147 C 
ATOM     19  C   UNL     1      -0.864   1.545  -1.378  0.00  0.00    +0.249 C 
ATOM     20  O   UNL     1      -0.415   0.715  -2.139  0.00  0.00    -0.273 OA
ATOM     21  N   UNL     1      -1.270   1.358  -0.104  0.00  0.00    -0.160 N 
ATOM     22  N   UNL     1      -1.721   2.549   0.458  0.00  0.00    -0.181 NA
BRANCH  21  23
ATOM     23  C   UNL     1      -1.239   0.129   0.564  0.00  0.00    +0.060 A 
ATOM     24  C   UNL     1      -0.759  -1.003  -0.083  0.00  0.00    +0.025 A 
ATOM     25  C   UNL     1      -0.729  -2.215   0.580  0.00  0.00    +0.002 A 
ATOM     26  C   UNL     1      -1.175  -2.301   1.886  0.00  0.00    +0.000 A 
ATOM     27  C   UNL     1      -1.654  -1.177   2.532  0.00  0.00    +0.002 A 
ATOM     28  C   UNL     1      -1.681   0.039   1.878  0.00  0.00    +0.025 A 
ENDBRANCH  21  23
ENDBRANCH   1  18
BRANCH   1  29
ATOM     29  C   UNL     1       0.862   3.128  -3.237  0.00  0.00    +0.406 C 
ATOM     30  F   UNL     1       0.024   3.375  -4.330  0.00  0.00    -0.170 F 
ATOM     31  F   UNL     1       2.108   3.723  -3.461  0.00  0.00    -0.170 F 
ATOM     32  F   UNL     1       1.026   1.748  -3.077  0.00  0.00    -0.170 F 
ENDBRANCH   1  29
TORSDOF 3
