REMARK  Name = ZINC12996720
REMARK  8 active torsions:
REMARK  status: ('A' for Active; 'I' for Inactive)
REMARK    1  A    between atoms: C_1  and  C_2
REMARK    2  A    between atoms: C_4  and  N_12
REMARK    3  A    between atoms: C_5  and  N_9
REMARK    4  A    between atoms: C_7  and  C_8
REMARK    5  A    between atoms: C_13  and  C_15
REMARK    6  A    between atoms: C_15  and  O_16
REMARK    7  A    between atoms: O_16  and  C_17
REMARK    8  A    between atoms: C_26  and  C_28
REMARK                            x       y       z     vdW  Elec       q    Type
REMARK                         _______ _______ _______ _____ _____    ______ ____
ROOT
ATOM      1  N   UNL     1       2.103   8.448   0.023  0.00  0.00    -0.281 N 
ATOM      2  C   UNL     1       1.037   7.624   0.033  0.00  0.00    +0.255 C 
ATOM      3  O   UNL     1      -0.085   8.084   0.061  0.00  0.00    -0.272 OA
ATOM      4  H   UNL     1       3.000   8.083   0.082  0.00  0.00    +0.155 HD
ENDROOT
BRANCH   1   8
ATOM      5  C   UNL     1      -0.659  12.259  -1.400  0.00  0.00    +0.044 C 
ATOM      6  C   UNL     1       0.587  11.706  -0.758  0.00  0.00    -0.046 A 
ATOM      7  C   UNL     1       0.768  10.340  -0.665  0.00  0.00    +0.029 A 
ATOM      8  C   UNL     1       1.917   9.832  -0.073  0.00  0.00    +0.064 A 
ATOM      9  C   UNL     1       2.878  10.700   0.429  0.00  0.00    +0.148 A 
ATOM     10  C   UNL     1       2.694  12.065   0.329  0.00  0.00    +0.038 A 
ATOM     11  C   UNL     1       1.548  12.568  -0.262  0.00  0.00    -0.045 A 
ATOM     12  C   UNL     1       1.348  14.058  -0.365  0.00  0.00    +0.044 C 
BRANCH   9  13
ATOM     13  N   UNL     1       4.101  10.163   1.067  0.00  0.00    +0.058 N 
ATOM     14  O   UNL     1       4.900  10.921   1.587  0.00  0.00    -0.126 OA
ATOM     15  O   UNL     1       4.308   8.962   1.071  0.00  0.00    -0.126 OA
ENDBRANCH   9  13
ENDBRANCH   1   8
BRANCH   2  16
ATOM     16  C   UNL     1       1.239   6.131   0.010  0.00  0.00    +0.324 C 
BRANCH  16  17
ATOM     17  O   UNL     1      -0.032   5.478   0.026  0.00  0.00    -0.482 OA
BRANCH  17  18
ATOM     18  C   UNL     1      -0.028   4.122   0.009  0.00  0.00    +0.132 A 
ATOM     19  C   UNL     1       1.173   3.433  -0.024  0.00  0.00    +0.049 A 
ATOM     20  C   UNL     1       1.180   2.052  -0.041  0.00  0.00    +0.042 A 
ATOM     21  C   UNL     1      -0.015   1.347  -0.028  0.00  0.00    +0.128 A 
ATOM     22  C   UNL     1      -1.223   2.016  -0.001  0.00  0.00    +0.005 A 
ATOM     23  C   UNL     1      -1.246   3.413   0.023  0.00  0.00    +0.065 A 
ATOM     24  C   UNL     1      -2.627   3.909   0.056  0.00  0.00    +0.168 C 
ATOM     25  O   UNL     1      -2.965   5.074   0.079  0.00  0.00    -0.292 OA
ATOM     26  C   UNL     1      -3.555   2.718   0.042  0.00  0.00    +0.087 C 
ATOM     27  C   UNL     1      -2.637   1.488   0.013  0.00  0.00    +0.027 C 
ATOM     28  C   UNL     1      -2.866   0.630   1.259  0.00  0.00    +0.013 C 
ATOM     29  F   UNL     1       0.004  -0.004  -0.046  0.00  0.00    -0.205 F 
ENDBRANCH  17  18
ENDBRANCH  16  17
ENDBRANCH   2  16
TORSDOF 5
