REMARK  Name = ZINC00993932
REMARK  3 active torsions:
REMARK  status: ('A' for Active; 'I' for Inactive)
REMARK    1  A    between atoms: C_1  and  C_2
REMARK    2  A    between atoms: N_8  and  N_9
REMARK    3  A    between atoms: C_10  and  C_12
REMARK                            x       y       z     vdW  Elec       q    Type
REMARK                         _______ _______ _______ _____ _____    ______ ____
ROOT
ATOM      1  N   UNL     1       1.101  -1.667  -3.148  0.00  0.00    -0.200 N 
ATOM      2  C   UNL     1       0.572  -2.496  -4.069  0.00  0.00    +0.299 C 
ATOM      3  O   UNL     1      -0.546  -2.951  -3.908  0.00  0.00    -0.265 OA
ATOM      4  H   UNL     1       1.992  -1.305  -3.276  0.00  0.00    +0.178 HD
ENDROOT
BRANCH   1  11
ATOM      5  C   UNL     1       3.499   2.264  -1.356  0.00  0.00    +0.008 C 
ATOM      6  C   UNL     1       2.099   1.651  -1.308  0.00  0.00    -0.009 C 
ATOM      7  C   UNL     1       1.405   2.065  -0.009  0.00  0.00    +0.004 C 
ATOM      8  C   UNL     1      -0.028   1.530   0.006  0.00  0.00    +0.006 C 
ATOM      9  C   UNL     1       0.000  -0.002   0.001  0.00  0.00    +0.052 C 
ATOM     10  C   UNL     1       0.825  -0.464  -1.181  0.00  0.00    +0.037 C 
ATOM     11  N   UNL     1       0.365  -1.328  -2.005  0.00  0.00    -0.189 NA
ATOM     12  C   UNL     1       2.207   0.124  -1.363  0.00  0.00    +0.055 C 
ENDBRANCH   1  11
BRANCH   2  13
ATOM     13  C   UNL     1       1.341  -2.850  -5.264  0.00  0.00    +0.192 A 
ATOM     14  C   UNL     1       0.926  -3.676  -6.271  0.00  0.00    +0.056 A 
ATOM     15  C   UNL     1       1.971  -3.731  -7.205  0.00  0.00    +0.058 A 
ATOM     16  C   UNL     1       2.968  -2.947  -6.734  0.00  0.00    +0.171 A 
ATOM     17  O   UNL     1       2.582  -2.414  -5.567  0.00  0.00    -0.444 OA
ATOM     18 BR   UNL     1       4.629  -2.646  -7.586  0.00  0.00    -0.008 Br
ENDBRANCH   2  13
TORSDOF 2
