REMARK  Name = ZINC12697794
REMARK  4 active torsions:
REMARK  status: ('A' for Active; 'I' for Inactive)
REMARK    1  A    between atoms: N_7  and  C_12
REMARK    2  A    between atoms: C_12  and  C_13
REMARK    3  A    between atoms: N_15  and  N_16
REMARK    4  A    between atoms: C_17  and  C_19
REMARK                            x       y       z     vdW  Elec       q    Type
REMARK                         _______ _______ _______ _____ _____    ______ ____
ROOT
ATOM      1  C   UNL     1       4.225   5.802  -0.026  0.00  0.00    +0.247 C 
ATOM      2  O   UNL     1       5.153   5.020  -0.027  0.00  0.00    -0.273 OA
ATOM      3  N   UNL     1       2.958   5.343  -0.019  0.00  0.00    -0.233 N 
ATOM      4  H   UNL     1       2.216   5.968  -0.018  0.00  0.00    +0.173 HD
ENDROOT
BRANCH   3   5
ATOM      5  N   UNL     1       2.712   3.964  -0.012  0.00  0.00    -0.230 N 
ATOM      6  C   UNL     1       1.444   3.506  -0.005  0.00  0.00    +0.267 C 
ATOM      7  O   UNL     1       0.514   4.290  -0.004  0.00  0.00    -0.268 OA
ATOM      8  H   UNL     1       3.453   3.339  -0.013  0.00  0.00    +0.173 HD
BRANCH   6   9
ATOM      9  C   UNL     1       1.187   2.063   0.002  0.00  0.00    +0.076 A 
ATOM     10  C   UNL     1      -0.017   1.393   0.010  0.00  0.00    +0.024 A 
ATOM     11  C   UNL     1       0.002  -0.004   0.002  0.00  0.00    -0.036 A 
ATOM     12  C   UNL     1       1.210  -0.601   0.046  0.00  0.00    -0.006 A 
ATOM     13  S   UNL     1       2.348   0.711   0.002  0.00  0.00    -0.088 S 
ATOM     14  C   UNL     1       1.637  -2.039   0.187  0.00  0.00    +0.043 C 
ATOM     15  C   UNL     1       0.445  -2.988   0.319  0.00  0.00    +0.005 C 
ATOM     16  C   UNL     1      -0.170  -3.273  -1.042  0.00  0.00    +0.000 C 
ATOM     17  C   UNL     1      -0.179  -2.057  -1.947  0.00  0.00    +0.000 C 
ATOM     18  C   UNL     1      -1.430  -1.246  -1.597  0.00  0.00    +0.005 C 
ATOM     19  C   UNL     1      -1.314  -0.753  -0.155  0.00  0.00    +0.036 C 
ENDBRANCH   6   9
ENDBRANCH   3   5
BRANCH   1  20
ATOM     20  C   UNL     1       4.490   7.285  -0.033  0.00  0.00    +0.211 C 
BRANCH  20  27
ATOM     21  C   UNL     1       6.791   7.379   3.539  0.00  0.00    +0.002 A 
ATOM     22  C   UNL     1       8.065   7.915   3.522  0.00  0.00    +0.004 A 
ATOM     23  C   UNL     1       8.637   8.310   2.331  0.00  0.00    +0.047 A 
ATOM     24  C   UNL     1       7.928   8.184   1.149  0.00  0.00    +0.143 A 
ATOM     25  C   UNL     1       6.642   7.649   1.164  0.00  0.00    +0.079 A 
ATOM     26  C   UNL     1       6.077   7.244   2.362  0.00  0.00    +0.027 A 
ATOM     27  N   UNL     1       5.935   7.523  -0.040  0.00  0.00    -0.256 N 
ATOM     28  C   UNL     1       6.607   7.630  -1.207  0.00  0.00    +0.258 C 
ATOM     29  O   UNL     1       6.011   7.559  -2.261  0.00  0.00    -0.271 OA
ATOM     30  C   UNL     1       8.100   7.838  -1.195  0.00  0.00    +0.325 C 
ATOM     31  O   UNL     1       8.472   8.583  -0.032  0.00  0.00    -0.481 OA
ENDBRANCH  20  27
ENDBRANCH   1  20
TORSDOF 4
