REMARK  Name = ZINC63271163
REMARK  5 active torsions:
REMARK  status: ('A' for Active; 'I' for Inactive)
REMARK    1  A    between atoms: N_17  and  C_18
REMARK    2  A    between atoms: C_18  and  C_19
REMARK    3  A    between atoms: C_19  and  C_20
REMARK    4  A    between atoms: C_20  and  C_21
REMARK    5  A    between atoms: N_23  and  C_24
REMARK                            x       y       z     vdW  Elec       q    Type
REMARK                         _______ _______ _______ _____ _____    ______ ____
ROOT
ATOM      1  C   UNL     1      -0.037   1.262   1.175  0.00  0.00    +0.001 A 
ATOM      2  C   UNL     1       1.138   2.026   1.136  0.00  0.00    +0.002 A 
ATOM      3  C   UNL     1       2.360   1.472   0.994  0.00  0.00    +0.026 A 
ATOM      4  C   UNL     1       2.504   0.063   0.876  0.00  0.00    +0.043 A 
ATOM      5  N   UNL     1       3.564  -0.696   0.712  0.00  0.00    -0.376 N 
ATOM      6  C   UNL     1       3.142  -2.094   0.730  0.00  0.00    +0.124 C 
ATOM      7  C   UNL     1       3.551  -2.832  -0.550  0.00  0.00    +0.138 C 
ATOM      8  N   UNL     1       2.759  -4.069  -0.631  0.00  0.00    -0.283 N 
ATOM      9  C   UNL     1       1.294  -4.016  -0.680  0.00  0.00    +0.114 C 
ATOM     10  C   UNL     1       0.769  -3.287   0.570  0.00  0.00    +0.052 C 
ATOM     11  C   UNL     1       1.623  -2.056   0.772  0.00  0.00    -0.036 C 
ATOM     12  C   UNL     1       1.276  -0.768   0.908  0.00  0.00    -0.001 A 
ATOM     13  C   UNL     1      -0.014  -0.085   1.069  0.00  0.00    +0.010 A 
ATOM     14  C   UNL     1       3.386  -5.262  -0.661  0.00  0.00    +0.302 C 
ATOM     15  O   UNL     1       4.600  -5.310  -0.715  0.00  0.00    -0.253 OA
ATOM     16  N   UNL     1       2.667  -6.402  -0.631  0.00  0.00    -0.299 N 
ATOM     17  H   UNL     1       1.698  -6.365  -0.662  0.00  0.00    +0.150 HD
ATOM     18  H   UNL     1       4.474  -0.381   0.597  0.00  0.00    +0.160 HD
ENDROOT
BRANCH  16  19
ATOM     19  C   UNL     1       3.349  -7.696  -0.552  0.00  0.00    +0.106 C 
BRANCH  19  20
ATOM     20  C   UNL     1       2.310  -8.819  -0.533  0.00  0.00    +0.028 C 
BRANCH  20  21
ATOM     21  C   UNL     1       3.022 -10.171  -0.450  0.00  0.00    +0.097 C 
BRANCH  21  22
ATOM     22  C   UNL     1       1.999 -11.277  -0.431  0.00  0.00    +0.217 C 
ATOM     23  O   UNL     1       0.817 -11.011  -0.479  0.00  0.00    -0.275 OA
ATOM     24  N   UNL     1       2.397 -12.563  -0.361  0.00  0.00    -0.285 N 
ATOM     25  H   UNL     1       3.338 -12.774  -0.251  0.00  0.00    +0.155 HD
BRANCH  24  26
ATOM     26  C   UNL     1       1.463 -13.585  -0.445  0.00  0.00    +0.033 C 
ATOM     27  C   UNL     1       1.375 -14.525   0.558  0.00  0.00    +0.029 C 
ATOM     28  C   UNL     1       0.360 -15.475   0.396  0.00  0.00    -0.016 C 
ATOM     29  C   UNL     1       0.244 -16.765   0.770  0.00  0.00    +0.025 C 
ATOM     30  C   UNL     1      -0.857 -17.345   0.111  0.00  0.00    +0.106 C 
ATOM     31  N   UNL     1      -1.521 -16.474  -0.599  0.00  0.00    -0.279 NA
ATOM     32  C   UNL     1      -0.918 -15.169  -0.368  0.00  0.00    +0.158 C 
ATOM     33  C   UNL     1      -0.539 -14.416  -1.608  0.00  0.00    +0.006 C 
ATOM     34  C   UNL     1       0.562 -13.663  -1.599  0.00  0.00    +0.021 C 
ENDBRANCH  24  26
ENDBRANCH  21  22
ENDBRANCH  20  21
ENDBRANCH  19  20
ENDBRANCH  16  19
TORSDOF 5
