REMARK  Name = ZINC32039438
REMARK  5 active torsions:
REMARK  status: ('A' for Active; 'I' for Inactive)
REMARK    1  A    between atoms: C_1  and  C_2
REMARK    2  A    between atoms: C_4  and  C_20
REMARK    3  A    between atoms: C_5  and  C_9
REMARK    4  A    between atoms: C_7  and  C_8
REMARK    5  A    between atoms: C_10  and  C_11
REMARK                            x       y       z     vdW  Elec       q    Type
REMARK                         _______ _______ _______ _____ _____    ______ ____
ROOT
ATOM      1  C   UNL     1      -2.450   1.238   0.020  0.00  0.00    +0.013 C 
ATOM      2  C   UNL     1      -1.292   1.928   0.019  0.00  0.00    +0.068 C 
ENDROOT
BRANCH   2   3
ATOM      3  C   UNL     1      -0.014   1.213   0.009  0.00  0.00    +0.240 C 
ATOM      4  O   UNL     1       0.002  -0.004   0.002  0.00  0.00    -0.271 OA
ATOM      5  N   UNL     1       1.143   1.903   0.001  0.00  0.00    -0.288 N 
ATOM      6  C   UNL     1       2.445   1.214  -0.009  0.00  0.00    +0.127 C 
ATOM      7  C   UNL     1       3.180   1.611  -1.296  0.00  0.00    +0.123 C 
ATOM      8  N   UNL     1       3.118   3.051  -1.502  0.00  0.00    -0.313 N 
ATOM      9  C   UNL     1       2.200   3.855  -0.964  0.00  0.00    +0.230 C 
ATOM     10  O   UNL     1       2.204   5.027  -1.273  0.00  0.00    -0.274 OA
ATOM     11  C   UNL     1       1.158   3.373   0.009  0.00  0.00    +0.203 C 
ATOM     12  H   UNL     1       3.864   3.548  -2.140  0.00  0.00    +0.149 HD
ENDBRANCH   2   3
BRANCH   1  17
ATOM     13  C   UNL     1      -7.468   4.044   0.058  0.00  0.00    +0.044 C 
ATOM     14  C   UNL     1      -6.153   3.309   0.049  0.00  0.00    -0.047 A 
ATOM     15  C   UNL     1      -6.138   1.925   0.041  0.00  0.00    +0.007 A 
ATOM     16  C   UNL     1      -4.939   1.244   0.026  0.00  0.00    -0.043 A 
ATOM     17  C   UNL     1      -3.735   1.956   0.030  0.00  0.00    -0.022 A 
ATOM     18  C   UNL     1      -3.758   3.354   0.038  0.00  0.00    +0.011 A 
ATOM     19  C   UNL     1      -4.966   4.020   0.048  0.00  0.00    -0.047 A 
ATOM     20  C   UNL     1      -4.993   5.527   0.056  0.00  0.00    +0.044 C 
ATOM     21  C   UNL     1      -4.925  -0.263   0.012  0.00  0.00    +0.044 C 
ENDBRANCH   1  17
TORSDOF 2
