REMARK  Name = ZINC65248842
REMARK  2 active torsions:
REMARK  status: ('A' for Active; 'I' for Inactive)
REMARK    1  A    between atoms: C_4  and  C_7
REMARK    2  A    between atoms: C_7  and  N_8
REMARK                            x       y       z     vdW  Elec       q    Type
REMARK                         _______ _______ _______ _____ _____    ______ ____
ROOT
ATOM      1  N   UNL     1       4.152  -0.952   1.338  0.00  0.00    -0.295 N 
ATOM      2  C   UNL     1       5.311  -1.601   1.569  0.00  0.00    +0.303 C 
ATOM      3  O   UNL     1       5.991  -1.982   0.636  0.00  0.00    -0.253 OA
ATOM      4  N   UNL     1       5.716  -1.826   2.834  0.00  0.00    -0.284 N 
ATOM      5  C   UNL     1       4.991  -1.427   4.050  0.00  0.00    +0.111 C 
ATOM      6  C   UNL     1       5.818  -1.914   5.261  0.00  0.00    +0.041 C 
ATOM      7  C   UNL     1       6.692  -3.023   4.652  0.00  0.00    +0.091 C 
ATOM      8  C   UNL     1       6.959  -2.521   3.228  0.00  0.00    +0.130 C 
ATOM      9  C   UNL     1       7.957  -3.232   5.428  0.00  0.00    -0.010 A 
ATOM     10  C   UNL     1       9.010  -2.414   5.772  0.00  0.00    +0.006 A 
ATOM     11  C   UNL     1      10.062  -2.916   6.518  0.00  0.00    +0.000 A 
ATOM     12  C   UNL     1      10.054  -4.240   6.916  0.00  0.00    +0.002 A 
ATOM     13  C   UNL     1       9.002  -5.064   6.573  0.00  0.00    +0.023 A 
ATOM     14  C   UNL     1       7.939  -4.568   5.823  0.00  0.00    +0.038 A 
ATOM     15  N   UNL     1       6.780  -5.194   5.356  0.00  0.00    -0.284 N 
ATOM     16  C   UNL     1       5.994  -4.351   4.656  0.00  0.00    +0.229 C 
ATOM     17  O   UNL     1       4.932  -4.615   4.133  0.00  0.00    -0.274 OA
ATOM     18  H   UNL     1       3.610  -0.648   2.082  0.00  0.00    +0.151 HD
ATOM     19  H   UNL     1       6.567  -6.127   5.517  0.00  0.00    +0.155 HD
ENDROOT
BRANCH   1  20
ATOM     20  C   UNL     1       3.711  -0.707  -0.038  0.00  0.00    +0.141 C 
BRANCH  20  24
ATOM     21  C   UNL     1      -0.017   1.378   0.010  0.00  0.00    +0.000 A 
ATOM     22  C   UNL     1       1.171   2.086   0.002  0.00  0.00    +0.000 A 
ATOM     23  C   UNL     1       2.377   1.411  -0.013  0.00  0.00    +0.005 A 
ATOM     24  C   UNL     1       2.396   0.029  -0.020  0.00  0.00    -0.030 A 
ATOM     25  C   UNL     1       1.208  -0.679  -0.012  0.00  0.00    +0.005 A 
ATOM     26  C   UNL     1       0.002  -0.004   0.002  0.00  0.00    +0.000 A 
ENDBRANCH  20  24
ENDBRANCH   1  20
TORSDOF 2
