REMARK  Name = ZINC16956976
REMARK  6 active torsions:
REMARK  status: ('A' for Active; 'I' for Inactive)
REMARK    1  A    between atoms: C_1  and  C_2
REMARK    2  A    between atoms: C_7  and  C_8
REMARK    3  A    between atoms: C_13  and  C_24
REMARK    4  A    between atoms: C_13  and  C_25
REMARK    5  A    between atoms: C_20  and  S_22
REMARK    6  A    between atoms: S_22  and  C_23
REMARK                            x       y       z     vdW  Elec       q    Type
REMARK                         _______ _______ _______ _____ _____    ______ ____
ROOT
ATOM      1  C   UNL     1       1.856  -0.700  -0.011  0.00  0.00    +0.157 C 
ATOM      2  C   UNL     1       0.829   0.413   0.071  0.00  0.00    +0.129 C 
ATOM      3  C   UNL     1      -0.477   0.124   0.138  0.00  0.00    +0.145 C 
ATOM      4  C   UNL     1      -1.515   1.211   0.222  0.00  0.00    +0.081 C 
ATOM      5  C   UNL     1      -0.996   2.463  -0.490  0.00  0.00    -0.023 C 
ATOM      6  C   UNL     1       0.328   2.887   0.160  0.00  0.00    +0.058 C 
ATOM      7  C   UNL     1       1.306   1.740   0.074  0.00  0.00    +0.036 C 
ATOM      8  N   UNL     1       2.587   1.990   0.009  0.00  0.00    -0.219 NA
ATOM      9  C   UNL     1       3.554   1.049  -0.065  0.00  0.00    +0.250 A 
ATOM     10  N   UNL     1       3.260  -0.278  -0.078  0.00  0.00    -0.220 N 
ATOM     11  N   UNL     1       4.472  -0.969  -0.161  0.00  0.00    -0.141 NA
ATOM     12  C   UNL     1       5.424  -0.062  -0.192  0.00  0.00    +0.210 A 
ATOM     13  N   UNL     1       4.876   1.153  -0.135  0.00  0.00    -0.184 NA
ATOM     14  C   UNL     1      -0.770   2.154  -1.971  0.00  0.00    +0.011 C 
ATOM     15  C   UNL     1      -2.018   3.593  -0.351  0.00  0.00    +0.011 C 
ATOM     16  O   UNL     1      -0.870  -1.167   0.129  0.00  0.00    -0.297 OA
ENDROOT
BRANCH   1  23
ATOM     17  C   UNL     1       1.528  -3.552  -0.339  0.00  0.00    +0.044 C 
ATOM     18  C   UNL     1       1.532  -2.948   1.042  0.00  0.00    -0.045 A 
ATOM     19  C   UNL     1       1.384  -3.759   2.152  0.00  0.00    +0.004 A 
ATOM     20  C   UNL     1       1.381  -3.204   3.418  0.00  0.00    +0.000 A 
ATOM     21  C   UNL     1       1.533  -1.839   3.574  0.00  0.00    +0.000 A 
ATOM     22  C   UNL     1       1.687  -1.029   2.465  0.00  0.00    +0.006 A 
ATOM     23  C   UNL     1       1.689  -1.584   1.199  0.00  0.00    -0.019 A 
ENDBRANCH   1  23
BRANCH  12  24
ATOM     24  S   UNL     1       7.150  -0.399  -0.294  0.00  0.00    -0.088 S 
ATOM     25  C   UNL     1       7.919   1.244  -0.299  0.00  0.00    +0.093 C 
ENDBRANCH  12  24
TORSDOF 2
