REMARK  Name = ZINC13668195
REMARK  7 active torsions:
REMARK  status: ('A' for Active; 'I' for Inactive)
REMARK    1  A    between atoms: C_1  and  C_2
REMARK    2  A    between atoms: C_7  and  C_8
REMARK    3  A    between atoms: N_11  and  C_12
REMARK    4  A    between atoms: C_12  and  C_14
REMARK    5  A    between atoms: N_17  and  C_19
REMARK    6  A    between atoms: N_20  and  C_21
REMARK    7  A    between atoms: C_21  and  C_22
REMARK                            x       y       z     vdW  Elec       q    Type
REMARK                         _______ _______ _______ _____ _____    ______ ____
ROOT
ATOM      1  C   UNL     1       7.938   9.016  -0.021  0.00  0.00    +0.044 C 
ATOM      2  C   UNL     1       6.572   8.379  -0.013  0.00  0.00    -0.046 A 
ATOM      3  C   UNL     1       6.467   7.008  -0.020  0.00  0.00    +0.030 A 
ATOM      4  C   UNL     1       5.210   6.384  -0.012  0.00  0.00    +0.059 A 
ATOM      5  C   UNL     1       4.087   7.226   0.003  0.00  0.00    +0.039 A 
ATOM      6  C   UNL     1       4.194   8.596   0.011  0.00  0.00    +0.020 A 
ATOM      7  C   UNL     1       5.446   9.185   0.003  0.00  0.00    -0.046 A 
ATOM      8  C   UNL     1       5.584  10.685   0.010  0.00  0.00    +0.044 C 
ATOM      9  S   UNL     1       2.725   6.088   0.009  0.00  0.00    -0.052 S 
ATOM     10  C   UNL     1       3.630   4.609  -0.008  0.00  0.00    +0.168 A 
ATOM     11  N   UNL     1       3.170   3.362  -0.010  0.00  0.00    -0.151 NA
ATOM     12  N   UNL     1       4.923   5.032  -0.012  0.00  0.00    -0.310 N 
ENDROOT
BRANCH  11  13
ATOM     13  C   UNL     1       1.853   3.135   0.001  0.00  0.00    +0.290 C 
ATOM     14  O   UNL     1       1.073   4.072   0.014  0.00  0.00    -0.266 OA
BRANCH  13  15
ATOM     15  C   UNL     1       1.341   1.746  -0.001  0.00  0.00    +0.149 A 
ATOM     16  C   UNL     1      -0.016   1.350   0.009  0.00  0.00    +0.054 A 
ATOM     17  C   UNL     1       0.002  -0.004   0.002  0.00  0.00    +0.109 A 
ATOM     18  N   UNL     1       1.297  -0.386  -0.012  0.00  0.00    -0.274 N 
ATOM     19  N   UNL     1       2.064   0.645  -0.014  0.00  0.00    -0.167 NA
ATOM     20  C   UNL     1       1.761  -1.775  -0.024  0.00  0.00    +0.172 C 
ENDBRANCH  13  15
ENDBRANCH  11  13
BRANCH  12  21
ATOM     21  C   UNL     1       6.013   4.053  -0.021  0.00  0.00    +0.212 C 
BRANCH  21  22
ATOM     22  C   UNL     1       6.371   3.731  -1.412  0.00  0.00    -0.084 C 
ATOM     23  C   UNL     1       6.658   3.474  -2.521  0.00  0.00    +0.005 C 
ENDBRANCH  21  22
ENDBRANCH  12  21
TORSDOF 4
