REMARK  Name = ZINC00477016
REMARK  3 active torsions:
REMARK  status: ('A' for Active; 'I' for Inactive)
REMARK    1  A    between atoms: C_8  and  C_12
REMARK    2  A    between atoms: N_14  and  C_15
REMARK    3  A    between atoms: C_15  and  C_16
REMARK                            x       y       z     vdW  Elec       q    Type
REMARK                         _______ _______ _______ _____ _____    ______ ____
ROOT
ATOM      1  C   UNL     1       4.835   3.978  -0.025  0.00  0.00    +0.251 C 
ATOM      2  O   UNL     1       5.885   3.364  -0.038  0.00  0.00    -0.270 OA
ATOM      3  N   UNL     1       4.843   5.326  -0.018  0.00  0.00    -0.305 N 
ATOM      4  H   UNL     1       4.005   5.816  -0.008  0.00  0.00    +0.149 HD
ENDROOT
BRANCH   1  12
ATOM      5  C   UNL     1      -1.250   3.137   0.030  0.00  0.00    +0.001 A 
ATOM      6  C   UNL     1      -1.216   1.749   0.017  0.00  0.00    +0.004 A 
ATOM      7  C   UNL     1      -0.013   1.076   0.008  0.00  0.00    +0.047 A 
ATOM      8  C   UNL     1       1.182   1.788   0.000  0.00  0.00    +0.139 A 
ATOM      9  C   UNL     1       1.145   3.193   0.008  0.00  0.00    +0.018 A 
ATOM     10  C   UNL     1      -0.091   3.857   0.023  0.00  0.00    +0.011 A 
ATOM     11  C   UNL     1       2.353   3.936  -0.000  0.00  0.00    +0.031 A 
ATOM     12  C   UNL     1       3.555   3.249  -0.015  0.00  0.00    +0.122 A 
ATOM     13  C   UNL     1       3.531   1.782  -0.022  0.00  0.00    +0.350 A 
ATOM     14  O   UNL     1       4.576   1.158  -0.035  0.00  0.00    -0.244 OA
ATOM     15  O   UNL     1       2.359   1.126  -0.014  0.00  0.00    -0.422 OA
ENDBRANCH   1  12
BRANCH   3  16
ATOM     16  C   UNL     1       6.115   6.051  -0.028  0.00  0.00    +0.162 C 
BRANCH  16  17
ATOM     17  C   UNL     1       5.849   7.534  -0.018  0.00  0.00    +0.086 A 
ATOM     18  C   UNL     1       6.966   8.479  -0.019  0.00  0.00    +0.012 A 
ATOM     19  C   UNL     1       8.294   8.048  -0.040  0.00  0.00    +0.010 A 
ATOM     20  C   UNL     1       9.304   8.970  -0.046  0.00  0.00    +0.001 A 
ATOM     21  C   UNL     1       9.028  10.331  -0.038  0.00  0.00    +0.001 A 
ATOM     22  C   UNL     1       7.727  10.785  -0.023  0.00  0.00    +0.014 A 
ATOM     23  C   UNL     1       6.681   9.863  -0.016  0.00  0.00    +0.050 A 
ATOM     24  C   UNL     1       5.274  10.283  -0.000  0.00  0.00    +0.272 A 
ATOM     25  O   UNL     1       4.979  11.464   0.008  0.00  0.00    -0.266 OA
ATOM     26  N   UNL     1       4.314   9.334   0.005  0.00  0.00    -0.242 N 
ATOM     27  H   UNL     1       3.354   9.614   0.017  0.00  0.00    +0.192 HD
ATOM     28  N   UNL     1       4.626   7.974  -0.004  0.00  0.00    -0.174 NA
ENDBRANCH  16  17
ENDBRANCH   3  16
TORSDOF 3
