REMARK  Name = ZINC53110335
REMARK  5 active torsions:
REMARK  status: ('A' for Active; 'I' for Inactive)
REMARK    1  A    between atoms: C_1  and  C_2
REMARK    2  A    between atoms: C_7  and  C_9
REMARK    3  A    between atoms: C_7  and  N_11
REMARK    4  A    between atoms: C_9  and  O_10
REMARK    5  A    between atoms: C_13  and  C_21
REMARK                            x       y       z     vdW  Elec       q    Type
REMARK                         _______ _______ _______ _____ _____    ______ ____
ROOT
ATOM      1  N   UNL     1       1.369  -2.648   0.003  0.00  0.00    -0.320 N 
ATOM      2  C   UNL     1       2.712  -2.480  -0.285  0.00  0.00    +0.137 A 
ATOM      3  C   UNL     1       3.233  -2.967  -1.497  0.00  0.00    +0.092 A 
ATOM      4  C   UNL     1       4.594  -2.783  -1.763  0.00  0.00    +0.027 A 
ATOM      5  C   UNL     1       5.370  -2.128  -0.820  0.00  0.00    -0.025 A 
ATOM      6  C   UNL     1       4.789  -1.675   0.350  0.00  0.00    +0.047 A 
ATOM      7  N   UNL     1       3.497  -1.857   0.577  0.00  0.00    -0.236 NA
ATOM      8  C   UNL     1       5.838  -0.998   1.208  0.00  0.00    +0.056 C 
ATOM      9  C   UNL     1       7.193  -1.472   0.641  0.00  0.00    +0.011 C 
ATOM     10  C   UNL     1       6.844  -1.789  -0.829  0.00  0.00    +0.037 C 
ATOM     11  H   UNL     1       0.806  -3.167  -0.593  0.00  0.00    +0.148 HD
ENDROOT
BRANCH   1  17
ATOM     12  C   UNL     1       0.527   1.564  -0.108  0.00  0.00    +0.007 C 
ATOM     13  C   UNL     1       0.317   0.049  -0.068  0.00  0.00    -0.012 C 
ATOM     14  C   UNL     1      -1.181  -0.257  -0.004  0.00  0.00    +0.003 C 
ATOM     15  C   UNL     1      -1.391  -1.772   0.036  0.00  0.00    +0.002 C 
ATOM     16  C   UNL     1      -0.700  -2.350   1.273  0.00  0.00    +0.028 C 
ATOM     17  C   UNL     1       0.798  -2.044   1.209  0.00  0.00    +0.057 C 
ATOM     18  C   UNL     1       1.008  -0.529   1.169  0.00  0.00    +0.031 C 
BRANCH  17  19
ATOM     19  C   UNL     1       1.489  -2.622   2.446  0.00  0.00    +0.181 C 
BRANCH  19  20
ATOM     20  O   UNL     1       1.406  -4.048   2.415  0.00  0.00    -0.393 OA
ATOM     21  H   UNL     1       1.825  -4.483   3.171  0.00  0.00    +0.209 HD
ENDBRANCH  19  20
ENDBRANCH  17  19
ENDBRANCH   1  17
BRANCH   3  22
ATOM     22  C   UNL     1       2.388  -3.638  -2.439  0.00  0.00    +0.103 C 
ATOM     23  N   UNL     1       1.718  -4.170  -3.186  0.00  0.00    -0.191 NA
ENDBRANCH   3  22
TORSDOF 4
