REMARK  Name = ZINC21227479
REMARK  7 active torsions:
REMARK  status: ('A' for Active; 'I' for Inactive)
REMARK    1  A    between atoms: C_1  and  C_2
REMARK    2  A    between atoms: C_2  and  C_3
REMARK    3  A    between atoms: C_3  and  O_4
REMARK    4  A    between atoms: O_4  and  C_5
REMARK    5  A    between atoms: C_8  and  C_11
REMARK    6  A    between atoms: C_16  and  C_22
REMARK    7  A    between atoms: C_26  and  N_28
REMARK                            x       y       z     vdW  Elec       q    Type
REMARK                         _______ _______ _______ _____ _____    ______ ____
ROOT
ATOM      1  C   UNL     1      -2.513   0.977   0.019  0.00  0.00    +0.032 C 
ATOM      2  C   UNL     1      -3.328   1.342   1.262  0.00  0.00    +0.059 C 
ATOM      3  C   UNL     1      -4.645   0.606   1.238  0.00  0.00    +0.018 C 
ATOM      4  C   UNL     1      -5.241   0.294   0.068  0.00  0.00    +0.020 C 
ATOM      5  C   UNL     1      -6.567  -0.430   0.069  0.00  0.00    +0.063 C 
ATOM      6  C   UNL     1      -6.609  -1.412   1.241  0.00  0.00    +0.109 C 
ATOM      7  C   UNL     1      -6.163  -0.704   2.495  0.00  0.00    +0.218 C 
ATOM      8  O   UNL     1      -6.648  -1.005   3.564  0.00  0.00    -0.275 OA
ATOM      9  N   UNL     1      -5.228   0.260   2.430  0.00  0.00    -0.289 N 
ATOM     10  C   UNL     1      -4.656   0.629  -1.164  0.00  0.00    +0.162 C 
ATOM     11  O   UNL     1      -5.229   0.341  -2.196  0.00  0.00    -0.292 OA
ATOM     12  C   UNL     1      -3.331   1.340  -1.225  0.00  0.00    +0.088 C 
ATOM     13  H   UNL     1      -4.934   0.775   3.356  0.00  0.00    +0.155 HD
ENDROOT
BRANCH   5  14
ATOM     14  C   UNL     1      -7.686   0.570   0.211  0.00  0.00    -0.037 A 
ATOM     15  C   UNL     1      -7.751   1.379   1.331  0.00  0.00    +0.006 A 
ATOM     16  C   UNL     1      -8.774   2.299   1.459  0.00  0.00    +0.022 A 
ATOM     17  C   UNL     1      -9.738   2.404   0.472  0.00  0.00    +0.071 A 
ATOM     18  C   UNL     1      -9.675   1.591  -0.645  0.00  0.00    +0.145 A 
ATOM     19  C   UNL     1      -8.649   0.674  -0.775  0.00  0.00    +0.038 A 
ATOM     20 CL   UNL     1     -11.027   3.556   0.636  0.00  0.00    -0.081 Cl
BRANCH  18  21
ATOM     21  N   UNL     1     -10.706   1.701  -1.701  0.00  0.00    +0.058 N 
ATOM     22  O   UNL     1     -10.651   0.985  -2.684  0.00  0.00    -0.126 OA
ATOM     23  O   UNL     1     -11.611   2.509  -1.586  0.00  0.00    -0.126 OA
ENDBRANCH  18  21
ENDBRANCH   5  14
BRANCH   1  27
ATOM     24  C   UNL     1       1.155   3.169   0.008  0.00  0.00    +0.121 A 
ATOM     25  C   UNL     1       1.175   1.782   0.000  0.00  0.00    +0.046 A 
ATOM     26  C   UNL     1      -0.013   1.076   0.008  0.00  0.00    +0.007 A 
ATOM     27  C   UNL     1      -1.220   1.750   0.017  0.00  0.00    -0.043 A 
ATOM     28  C   UNL     1      -1.242   3.133   0.031  0.00  0.00    +0.007 A 
ATOM     29  C   UNL     1      -0.057   3.844   0.023  0.00  0.00    +0.046 A 
BRANCH  24  30
ATOM     30  O   UNL     1       2.322   3.866   0.000  0.00  0.00    -0.492 OA
BRANCH  30  31
ATOM     31  C   UNL     1       2.225   5.292   0.009  0.00  0.00    +0.229 C 
BRANCH  31  33
ATOM     32  C   UNL     1       3.527   7.425   0.007  0.00  0.00    +0.007 C 
ATOM     33  C   UNL     1       3.630   5.898  -0.002  0.00  0.00    +0.038 C 
ENDBRANCH  31  33
ENDBRANCH  30  31
ENDBRANCH  24  30
ENDBRANCH   1  27
TORSDOF 6
