REMARK  Name = ZINC21163688
REMARK  7 active torsions:
REMARK  status: ('A' for Active; 'I' for Inactive)
REMARK    1  A    between atoms: C_1  and  C_2
REMARK    2  A    between atoms: C_5  and  C_7
REMARK    3  A    between atoms: C_7  and  N_8
REMARK    4  A    between atoms: C_14  and  C_30
REMARK    5  A    between atoms: C_17  and  C_18
REMARK    6  A    between atoms: C_17  and  C_19
REMARK    7  A    between atoms: N_21  and  C_22
REMARK                            x       y       z     vdW  Elec       q    Type
REMARK                         _______ _______ _______ _____ _____    ______ ____
ROOT
ATOM      1  N   UNL     1      -5.424   5.082   0.485  0.00  0.00    -0.273 N 
ATOM      2  C   UNL     1      -4.792   5.962  -0.328  0.00  0.00    +0.264 C 
ATOM      3  O   UNL     1      -5.276   7.045  -0.599  0.00  0.00    -0.268 OA
ATOM      4  C   UNL     1      -3.494   5.540  -0.863  0.00  0.00    +0.105 A 
ATOM      5  C   UNL     1      -2.538   6.242  -1.543  0.00  0.00    +0.033 A 
ATOM      6  C   UNL     1      -1.480   5.367  -1.795  0.00  0.00    +0.032 A 
ATOM      7  C   UNL     1      -1.820   4.130  -1.268  0.00  0.00    +0.085 A 
ATOM      8  N   UNL     1      -3.048   4.232  -0.704  0.00  0.00    -0.331 N 
ATOM      9  C   UNL     1      -3.865   3.217  -0.032  0.00  0.00    +0.157 C 
ATOM     10  C   UNL     1      -4.754   3.898   1.008  0.00  0.00    +0.129 C 
ATOM     11  C   UNL     1      -5.812   2.900   1.482  0.00  0.00    +0.043 C 
ENDROOT
BRANCH   7  12
ATOM     12  C   UNL     1      -0.989   2.918  -1.310  0.00  0.00    +0.151 A 
ATOM     13  C   UNL     1       0.285   2.836  -1.791  0.00  0.00    +0.051 A 
ATOM     14  C   UNL     1       0.691   1.498  -1.635  0.00  0.00    +0.042 A 
ATOM     15  C   UNL     1      -0.340   0.834  -1.073  0.00  0.00    +0.196 A 
ATOM     16  O   UNL     1      -1.354   1.693  -0.883  0.00  0.00    -0.461 OA
ENDBRANCH   7  12
BRANCH  10  17
ATOM     17  C   UNL     1      -3.905   4.300   2.187  0.00  0.00    +0.238 C 
ATOM     18  O   UNL     1      -3.801   3.557   3.141  0.00  0.00    -0.273 OA
ATOM     19  N   UNL     1      -3.261   5.484   2.182  0.00  0.00    -0.311 N 
ATOM     20  H   UNL     1      -3.290   6.121   1.285  0.00  0.00    +0.149 HD
BRANCH  19  21
ATOM     21  C   UNL     1      -2.524   5.922   3.369  0.00  0.00    +0.073 C 
ATOM     22  C   UNL     1      -3.484   6.615   4.338  0.00  0.00    +0.022 C 
ATOM     23  C   UNL     1      -2.830   6.716   5.718  0.00  0.00    +0.002 C 
ATOM     24  C   UNL     1      -2.155   5.387   6.062  0.00  0.00    +0.000 C 
ATOM     25  C   UNL     1      -0.638   5.583   6.105  0.00  0.00    +0.000 C 
ATOM     26  C   UNL     1      -0.095   5.674   4.677  0.00  0.00    +0.000 C 
ATOM     27  C   UNL     1      -0.418   7.052   4.096  0.00  0.00    +0.002 C 
ATOM     28  C   UNL     1      -1.424   6.901   2.954  0.00  0.00    +0.022 C 
ENDBRANCH  19  21
ENDBRANCH  10  17
BRANCH   1  29
ATOM     29  C   UNL     1      -6.822   5.327   0.848  0.00  0.00    +0.183 C 
BRANCH  29  34
ATOM     30  C   UNL     1      -7.188   6.147   5.811  0.00  0.00    +0.086 C 
ATOM     31  C   UNL     1      -7.039   6.396   4.332  0.00  0.00    +0.102 A 
ATOM     32  C   UNL     1      -6.888   7.599   3.749  0.00  0.00    +0.045 A 
ATOM     33  C   UNL     1      -6.785   7.369   2.358  0.00  0.00    +0.046 A 
ATOM     34  C   UNL     1      -6.879   6.040   2.174  0.00  0.00    +0.122 A 
ATOM     35  O   UNL     1      -7.038   5.456   3.373  0.00  0.00    -0.463 OA
ENDBRANCH  29  34
ENDBRANCH   1  29
TORSDOF 5
