REMARK  Name = ZINC63557572
REMARK  9 active torsions:
REMARK  status: ('A' for Active; 'I' for Inactive)
REMARK    1  A    between atoms: C_1  and  C_2
REMARK    2  A    between atoms: C_4  and  C_31
REMARK    3  A    between atoms: C_6  and  N_8
REMARK    4  A    between atoms: C_9  and  C_11
REMARK    5  A    between atoms: N_16  and  C_18
REMARK    6  A    between atoms: C_18  and  C_19
REMARK    7  A    between atoms: C_19  and  C_20
REMARK    8  A    between atoms: C_23  and  O_29
REMARK    9  A    between atoms: O_29  and  C_30
REMARK                            x       y       z     vdW  Elec       q    Type
REMARK                         _______ _______ _______ _____ _____    ______ ____
ROOT
ATOM      1  C   UNL     1       0.280  -2.900   4.854  0.00  0.00    +0.101 C 
ATOM      2  C   UNL     1       1.604  -3.698   4.893  0.00  0.00    +0.110 C 
ATOM      3  C   UNL     1       2.052  -3.602   6.335  0.00  0.00    +0.216 C 
ATOM      4  O   UNL     1       2.888  -4.313   6.851  0.00  0.00    -0.276 OA
ATOM      5  N   UNL     1       1.390  -2.614   6.960  0.00  0.00    -0.300 N 
ATOM      6  C   UNL     1       0.455  -1.939   6.051  0.00  0.00    +0.121 C 
ENDROOT
BRANCH   1   8
ATOM      7  N   UNL     1       0.052  -2.797   2.393  0.00  0.00    -0.285 N 
ATOM      8  C   UNL     1       0.150  -2.134   3.562  0.00  0.00    +0.222 C 
ATOM      9  O   UNL     1       0.134  -0.922   3.575  0.00  0.00    -0.275 OA
ATOM     10  H   UNL     1      -0.012  -3.765   2.388  0.00  0.00    +0.155 HD
BRANCH   7  16
ATOM     11  C   UNL     1      -1.512  -2.365  -2.248  0.00  0.00    +0.044 C 
ATOM     12  C   UNL     1      -0.706  -1.857  -1.080  0.00  0.00    -0.048 A 
ATOM     13  C   UNL     1       0.025  -0.690  -1.201  0.00  0.00    +0.006 A 
ATOM     14  C   UNL     1       0.765  -0.220  -0.131  0.00  0.00    -0.048 A 
ATOM     15  C   UNL     1       0.776  -0.917   1.061  0.00  0.00    +0.026 A 
ATOM     16  C   UNL     1       0.043  -2.089   1.186  0.00  0.00    +0.034 A 
ATOM     17  C   UNL     1      -0.704  -2.555   0.112  0.00  0.00    +0.026 A 
ATOM     18  C   UNL     1       1.561   1.052  -0.268  0.00  0.00    +0.044 C 
ENDBRANCH   7  16
ENDBRANCH   1   8
BRANCH   5  19
ATOM     19  C   UNL     1       1.576  -2.255   8.368  0.00  0.00    +0.112 C 
BRANCH  19  20
ATOM     20  C   UNL     1       2.677  -1.199   8.484  0.00  0.00    +0.052 C 
BRANCH  20  21
ATOM     21  C   UNL     1       2.869  -0.830   9.933  0.00  0.00    -0.040 C 
ATOM     22  C   UNL     1       3.780  -1.345  10.789  0.00  0.00    +0.002 A 
ATOM     23  C   UNL     1       4.825  -2.364  10.636  0.00  0.00    +0.055 A 
ATOM     24  C   UNL     1       5.605  -2.683  11.697  0.00  0.00    +0.121 A 
ATOM     25  C   UNL     1       5.452  -2.070  12.953  0.00  0.00    +0.047 A 
ATOM     26  C   UNL     1       4.519  -1.123  13.191  0.00  0.00    +0.029 A 
ATOM     27  C   UNL     1       3.620  -0.700  12.113  0.00  0.00    +0.043 A 
ATOM     28  N   UNL     1       2.649   0.178  12.076  0.00  0.00    -0.380 N 
ATOM     29  C   UNL     1       2.085   0.195  10.721  0.00  0.00    +0.144 C 
ATOM     30  H   UNL     1       2.354   0.728  12.819  0.00  0.00    +0.160 HD
BRANCH  24  31
ATOM     31  O   UNL     1       6.569  -3.628  11.541  0.00  0.00    -0.495 OA
ATOM     32  C   UNL     1       7.369  -3.934  12.685  0.00  0.00    +0.277 C 
ENDBRANCH  24  31
ENDBRANCH  20  21
ENDBRANCH  19  20
ENDBRANCH   5  19
TORSDOF 6
