REMARK  Name = ZINC20790439
REMARK  5 active torsions:
REMARK  status: ('A' for Active; 'I' for Inactive)
REMARK    1  A    between atoms: C_4  and  C_22
REMARK    2  A    between atoms: C_15  and  C_20
REMARK    3  A    between atoms: N_16  and  C_17
REMARK    4  A    between atoms: C_17  and  C_18
REMARK    5  A    between atoms: C_18  and  O_19
REMARK                            x       y       z     vdW  Elec       q    Type
REMARK                         _______ _______ _______ _____ _____    ______ ____
ROOT
ATOM      1  C   UNL     1      -2.651   4.967   2.272  0.00  0.00    +0.000 C 
ATOM      2  C   UNL     1      -1.754   4.240   3.276  0.00  0.00    +0.003 C 
ATOM      3  C   UNL     1      -2.194   2.779   3.387  0.00  0.00    +0.038 C 
ATOM      4  C   UNL     1      -2.077   2.105   2.019  0.00  0.00    +0.113 C 
ATOM      5  C   UNL     1      -2.972   2.832   1.012  0.00  0.00    +0.024 C 
ATOM      6  C   UNL     1      -2.533   4.294   0.903  0.00  0.00    +0.006 C 
ATOM      7  C   UNL     1      -2.839   2.161  -0.358  0.00  0.00    +0.012 C 
ATOM      8  C   UNL     1      -1.370   2.189  -0.787  0.00  0.00    +0.024 C 
ATOM      9  C   UNL     1      -1.212   1.473  -2.129  0.00  0.00    +0.006 C 
ATOM     10  C   UNL     1       0.258   1.505  -2.553  0.00  0.00    +0.000 C 
ATOM     11  C   UNL     1       1.110   0.801  -1.495  0.00  0.00    +0.003 C 
ATOM     12  C   UNL     1       0.949   1.515  -0.150  0.00  0.00    +0.038 C 
ATOM     13  C   UNL     1      -0.521   1.480   0.271  0.00  0.00    +0.113 C 
ATOM     14  N   UNL     1      -0.682   2.159   1.562  0.00  0.00    -0.264 NA
ENDROOT
BRANCH  13  15
ATOM     15  C   UNL     1      -0.962   0.081   0.395  0.00  0.00    +0.085 C 
ATOM     16  N   UNL     1      -1.302  -0.999   0.491  0.00  0.00    -0.195 NA
ENDBRANCH  13  15
BRANCH   4  17
ATOM     17  C   UNL     1      -2.502   0.700   2.126  0.00  0.00    +0.085 C 
ATOM     18  N   UNL     1      -2.830  -0.384   2.209  0.00  0.00    -0.195 NA
ENDBRANCH   4  17
BRANCH  14  19
ATOM     19  C   UNL     1       0.221   1.591   2.572  0.00  0.00    +0.115 C 
BRANCH  19  20
ATOM     20  C   UNL     1       0.085   0.067   2.577  0.00  0.00    +0.171 C 
BRANCH  20  21
ATOM     21  O   UNL     1       0.922  -0.489   1.561  0.00  0.00    -0.394 OA
ATOM     22  H   UNL     1       0.957  -1.579   1.413  0.00  0.00    +0.209 HD
ENDBRANCH  20  21
ENDBRANCH  19  20
ENDBRANCH  14  19
TORSDOF 5
