REMARK  Name = ZINC20355922
REMARK  6 active torsions:
REMARK  status: ('A' for Active; 'I' for Inactive)
REMARK    1  A    between atoms: C_1  and  C_2
REMARK    2  A    between atoms: C_5  and  S_8
REMARK    3  A    between atoms: S_8  and  C_11
REMARK    4  A    between atoms: N_24  and  C_25
REMARK    5  A    between atoms: C_25  and  C_27
REMARK    6  A    between atoms: C_25  and  C_28
REMARK                            x       y       z     vdW  Elec       q    Type
REMARK                         _______ _______ _______ _____ _____    ______ ____
ROOT
ATOM      1  C   UNL     1       8.334   3.537   1.587  0.00  0.00    +0.249 A 
ATOM      2  C   UNL     1       7.002   3.891   1.710  0.00  0.00    +0.204 A 
ATOM      3  N   UNL     1       5.878   3.377   1.180  0.00  0.00    -0.209 NA
ATOM      4  C   UNL     1       4.692   3.886   1.435  0.00  0.00    +0.131 A 
ATOM      5  C   UNL     1       4.591   5.045   2.333  0.00  0.00    +0.040 A 
ATOM      6  C   UNL     1       3.362   5.626   2.645  0.00  0.00    +0.013 A 
ATOM      7  C   UNL     1       3.318   6.711   3.492  0.00  0.00    +0.001 A 
ATOM      8  C   UNL     1       4.487   7.226   4.035  0.00  0.00    +0.002 A 
ATOM      9  C   UNL     1       5.710   6.662   3.736  0.00  0.00    +0.028 A 
ATOM     10  C   UNL     1       5.774   5.569   2.885  0.00  0.00    +0.080 A 
ATOM     11  N   UNL     1       6.977   4.970   2.555  0.00  0.00    -0.192 N 
ATOM     12  N   UNL     1       8.306   5.227   2.913  0.00  0.00    -0.057 NA
ATOM     13  N   UNL     1       9.062   4.367   2.325  0.00  0.00    -0.108 NA
ATOM     14  N   UNL     1       3.559   3.337   0.870  0.00  0.00    -0.322 N 
ATOM     15  H   UNL     1       2.571   3.766   1.092  0.00  0.00    +0.148 HD
ENDROOT
BRANCH   1  16
ATOM     16  S   UNL     1       8.959   2.207   0.615  0.00  0.00    +0.047 S 
ATOM     17  O   UNL     1      10.211   1.844   1.180  0.00  0.00    -0.163 OA
ATOM     18  O   UNL     1       7.893   1.279   0.463  0.00  0.00    -0.163 OA
BRANCH  16  23
ATOM     19  C   UNL     1      10.121   4.412  -4.881  0.00  0.00    +0.044 C 
ATOM     20  C   UNL     1       9.831   3.860  -3.508  0.00  0.00    -0.050 A 
ATOM     21  C   UNL     1      10.811   3.880  -2.534  0.00  0.00    +0.005 A 
ATOM     22  C   UNL     1      10.545   3.375  -1.275  0.00  0.00    +0.028 A 
ATOM     23  C   UNL     1       9.298   2.851  -0.990  0.00  0.00    +0.095 A 
ATOM     24  C   UNL     1       8.319   2.826  -1.966  0.00  0.00    +0.028 A 
ATOM     25  C   UNL     1       8.584   3.335  -3.224  0.00  0.00    +0.005 A 
ENDBRANCH  16  23
ENDBRANCH   1  16
BRANCH  14  26
ATOM     26  C   UNL     1       3.672   2.182  -0.024  0.00  0.00    +0.099 C 
ATOM     27  C   UNL     1       3.968   2.665  -1.446  0.00  0.00    +0.033 C 
BRANCH  26  28
ATOM     28  C   UNL     1       2.377   1.411  -0.015  0.00  0.00    -0.028 A 
ATOM     29  C   UNL     1       1.171   2.086   0.002  0.00  0.00    +0.005 A 
ATOM     30  C   UNL     1      -0.017   1.378   0.010  0.00  0.00    +0.000 A 
ATOM     31  C   UNL     1       0.002  -0.004   0.002  0.00  0.00    +0.000 A 
ATOM     32  C   UNL     1       1.208  -0.679  -0.013  0.00  0.00    +0.000 A 
ATOM     33  C   UNL     1       2.396   0.029  -0.022  0.00  0.00    +0.005 A 
ENDBRANCH  26  28
ENDBRANCH  14  26
TORSDOF 4
