REMARK  Name = ZINC33521305
REMARK  6 active torsions:
REMARK  status: ('A' for Active; 'I' for Inactive)
REMARK    1  A    between atoms: C_1  and  C_2
REMARK    2  A    between atoms: C_2  and  C_3
REMARK    3  A    between atoms: C_2  and  C_4
REMARK    4  A    between atoms: C_2  and  C_5
REMARK    5  A    between atoms: C_18  and  C_20
REMARK    6  A    between atoms: C_20  and  C_21
REMARK                            x       y       z     vdW  Elec       q    Type
REMARK                         _______ _______ _______ _____ _____    ______ ____
ROOT
ATOM      1  C   UNL     1       0.002  -0.004   0.002  0.00  0.00    -0.000 C 
ATOM      2  C   UNL     1       0.742  -0.515   1.242  0.00  0.00    +0.009 C 
ATOM      3  C   UNL     1       0.985  -2.019   1.118  0.00  0.00    +0.037 C 
ATOM      4  C   UNL     1      -0.342  -2.711   0.817  0.00  0.00    -0.023 A 
ATOM      5  C   UNL     1      -1.391  -2.005   0.335  0.00  0.00    -0.004 A 
ATOM      6  S   UNL     1      -2.697  -3.192   0.137  0.00  0.00    -0.073 S 
ATOM      7  C   UNL     1      -1.836  -4.626   0.698  0.00  0.00    +0.116 A 
ATOM      8  C   UNL     1      -0.553  -4.133   1.023  0.00  0.00    +0.075 A 
ATOM      9  C   UNL     1       0.404  -5.081   1.520  0.00  0.00    +0.260 A 
ATOM     10  O   UNL     1       1.538  -4.757   1.829  0.00  0.00    -0.267 OA
ATOM     11  N   UNL     1      -0.035  -6.358   1.623  0.00  0.00    -0.310 N 
ATOM     12  H   UNL     1       0.640  -7.143   1.995  0.00  0.00    +0.170 HD
ATOM     13  C   UNL     1      -1.290  -6.738   1.285  0.00  0.00    +0.112 A 
ATOM     14  N   UNL     1      -2.194  -5.900   0.827  0.00  0.00    -0.227 NA
ATOM     15  C   UNL     1      -1.437  -0.539   0.034  0.00  0.00    +0.046 C 
ENDROOT
BRANCH   1  17
ATOM     16  C   UNL     1       1.417   2.055  -0.000  0.00  0.00    +0.011 C 
ATOM     17  C   UNL     1      -0.019   1.526   0.010  0.00  0.00    -0.035 C 
ATOM     18  C   UNL     1      -0.759   2.033  -1.229  0.00  0.00    +0.011 C 
ATOM     19  C   UNL     1      -0.735   2.019   1.269  0.00  0.00    +0.011 C 
ENDBRANCH   1  17
BRANCH  13  20
ATOM     20  C   UNL     1      -1.669  -8.188   1.442  0.00  0.00    +0.090 C 
BRANCH  20  21
ATOM     21  C   UNL     1      -3.122  -8.386   1.004  0.00  0.00    +0.116 C 
ATOM     22 CL   UNL     1      -3.575 -10.121   1.192  0.00  0.00    -0.125 Cl
ENDBRANCH  20  21
ENDBRANCH  13  20
TORSDOF 3
