REMARK  Name = ZINC02253111
REMARK  4 active torsions:
REMARK  status: ('A' for Active; 'I' for Inactive)
REMARK    1  A    between atoms: C_3  and  C_6
REMARK    2  A    between atoms: N_8  and  C_9
REMARK    3  A    between atoms: C_12  and  C_26
REMARK    4  A    between atoms: C_15  and  C_19
REMARK                            x       y       z     vdW  Elec       q    Type
REMARK                         _______ _______ _______ _____ _____    ______ ____
ROOT
ATOM      1  C   UNL     1       5.549  -0.570  -0.055  0.00  0.00    +0.241 C 
ATOM      2  N   UNL     1       6.335   0.475  -0.051  0.00  0.00    -0.140 NA
ATOM      3  N   UNL     1       7.658   0.029  -0.068  0.00  0.00    -0.180 N 
ATOM      4  C   UNL     1       8.953   0.723  -0.073  0.00  0.00    +0.156 C 
ATOM      5  C   UNL     1      10.190  -0.157  -0.094  0.00  0.00    +0.030 C 
ATOM      6  C   UNL     1      10.001  -1.490  -0.106  0.00  0.00    +0.073 C 
ATOM      7  N   UNL     1       8.757  -2.032  -0.100  0.00  0.00    -0.217 NA
ATOM      8  C   UNL     1       7.644  -1.334  -0.082  0.00  0.00    +0.211 C 
ATOM      9  N   UNL     1       6.325  -1.714  -0.068  0.00  0.00    -0.254 N 
ATOM     10  H   UNL     1       5.995  -2.626  -0.070  0.00  0.00    +0.158 HD
ENDROOT
BRANCH   6  11
ATOM     11  C   UNL     1      11.181  -2.389  -0.127  0.00  0.00    +0.000 A 
ATOM     12  C   UNL     1      12.468  -1.853  -0.128  0.00  0.00    +0.011 A 
ATOM     13  C   UNL     1      13.562  -2.693  -0.148  0.00  0.00    +0.020 A 
ATOM     14  C   UNL     1      13.384  -4.066  -0.166  0.00  0.00    +0.041 A 
ATOM     15  C   UNL     1      12.108  -4.603  -0.165  0.00  0.00    +0.020 A 
ATOM     16  C   UNL     1      11.007  -3.772  -0.139  0.00  0.00    +0.011 A 
ATOM     17 CL   UNL     1      14.766  -5.117  -0.190  0.00  0.00    -0.084 Cl
ENDBRANCH   6  11
BRANCH   4  18
ATOM     18  C   UNL     1       9.022   1.595   1.154  0.00  0.00    -0.021 A 
ATOM     19  C   UNL     1       8.534   1.129   2.360  0.00  0.00    +0.008 A 
ATOM     20  C   UNL     1       8.596   1.927   3.486  0.00  0.00    +0.038 A 
ATOM     21  C   UNL     1       9.148   3.195   3.406  0.00  0.00    +0.123 A 
ATOM     22  C   UNL     1       9.636   3.661   2.197  0.00  0.00    +0.038 A 
ATOM     23  C   UNL     1       9.577   2.858   1.073  0.00  0.00    +0.008 A 
ATOM     24  F   UNL     1       9.209   3.977   4.506  0.00  0.00    -0.205 F 
ENDBRANCH   4  18
BRANCH   1  27
ATOM     25  C   UNL     1       3.561   0.618  -0.029  0.00  0.00    +0.316 C 
ATOM     26  O   UNL     1       4.265   1.773  -0.030  0.00  0.00    -0.262 OA
ATOM     27  N   UNL     1       4.191  -0.537  -0.041  0.00  0.00    -0.171 NA
BRANCH  25  30
ATOM     28  C   UNL     1      -0.016   1.346   0.009  0.00  0.00    +0.042 A 
ATOM     29  C   UNL     1       1.320   1.778  -0.001  0.00  0.00    +0.055 A 
ATOM     30  C   UNL     1       2.096   0.654  -0.014  0.00  0.00    +0.194 A 
ATOM     31  O   UNL     1       1.277  -0.418  -0.012  0.00  0.00    -0.458 OA
ATOM     32  C   UNL     1       0.002  -0.004   0.002  0.00  0.00    +0.196 A 
ENDBRANCH  25  30
ENDBRANCH   1  27
TORSDOF 4
