REMARK  Name = ZINC66246931
REMARK  6 active torsions:
REMARK  status: ('A' for Active; 'I' for Inactive)
REMARK    1  A    between atoms: C_1  and  C_2
REMARK    2  A    between atoms: C_4  and  C_23
REMARK    3  A    between atoms: N_11  and  S_12
REMARK    4  A    between atoms: S_12  and  C_15
REMARK    5  A    between atoms: C_16  and  C_22
REMARK    6  A    between atoms: N_18  and  C_21
REMARK                            x       y       z     vdW  Elec       q    Type
REMARK                         _______ _______ _______ _____ _____    ______ ____
ROOT
ATOM      1  C   UNL     1      -0.018   1.503   0.010  0.00  0.00    +0.044 C 
ATOM      2  C   UNL     1       0.002  -0.004   0.002  0.00  0.00    -0.049 A 
ATOM      3  C   UNL     1       0.006  -0.699  -1.195  0.00  0.00    +0.008 A 
ATOM      4  C   UNL     1       0.025  -2.073  -1.221  0.00  0.00    -0.026 A 
ATOM      5  C   UNL     1       0.041  -2.818  -0.030  0.00  0.00    +0.058 A 
ATOM      6  C   UNL     1       0.037  -2.086   1.165  0.00  0.00    +0.039 A 
ATOM      7  C   UNL     1       0.023  -0.712   1.192  0.00  0.00    +0.020 A 
ATOM      8  S   UNL     1       0.061  -3.341   2.422  0.00  0.00    -0.048 S 
ATOM      9  C   UNL     1       0.076  -4.768   1.350  0.00  0.00    +0.192 A 
ATOM     10  N   UNL     1       0.061  -4.198   0.101  0.00  0.00    -0.332 N 
ATOM     11  N   UNL     1       0.095  -6.035   1.672  0.00  0.00    -0.103 NA
ATOM     12  C   UNL     1       0.028  -2.791  -2.546  0.00  0.00    +0.046 C 
ATOM     13  H   UNL     1       0.065  -4.760  -0.690  0.00  0.00    +0.168 HD
ENDROOT
BRANCH  11  14
ATOM     14  S   UNL     1       0.109  -6.484   3.266  0.00  0.00    +0.106 S 
ATOM     15  O   UNL     1       1.351  -6.046   3.800  0.00  0.00    -0.146 OA
ATOM     16  O   UNL     1      -1.140  -6.081   3.812  0.00  0.00    -0.146 OA
BRANCH  14  17
ATOM     17  C   UNL     1       0.135  -8.245   3.311  0.00  0.00    +0.171 A 
ATOM     18  C   UNL     1      -0.984  -9.084   3.331  0.00  0.00    +0.088 A 
ATOM     19  N   UNL     1      -0.566 -10.323   3.363  0.00  0.00    -0.173 NA
ATOM     20  N   UNL     1       0.835 -10.313   3.364  0.00  0.00    -0.254 N 
ATOM     21  C   UNL     1       1.241  -9.026   3.325  0.00  0.00    +0.154 A 
ATOM     22 CL   UNL     1       2.886  -8.472   3.304  0.00  0.00    -0.060 Cl
ATOM     23  C   UNL     1       1.706 -11.491   3.395  0.00  0.00    +0.174 C 
ATOM     24  C   UNL     1      -2.424  -8.638   3.319  0.00  0.00    +0.069 C 
ENDBRANCH  14  17
ENDBRANCH  11  14
TORSDOF 2
