REMARK  Name = ZINC02229747
REMARK  7 active torsions:
REMARK  status: ('A' for Active; 'I' for Inactive)
REMARK    1  A    between atoms: C_1  and  C_2
REMARK    2  A    between atoms: C_2  and  C_4
REMARK    3  A    between atoms: C_2  and  O_26
REMARK    4  A    between atoms: C_4  and  N_5
REMARK    5  A    between atoms: C_6  and  C_8
REMARK    6  A    between atoms: C_22  and  C_24
REMARK    7  A    between atoms: C_22  and  C_25
REMARK                            x       y       z     vdW  Elec       q    Type
REMARK                         _______ _______ _______ _____ _____    ______ ____
ROOT
ATOM      1  C   UNL     1      -1.629   3.114  -5.557  0.00  0.00    +0.237 A 
ATOM      2  N   UNL     1      -1.382   2.892  -4.261  0.00  0.00    -0.202 NA
ATOM      3  C   UNL     1      -1.448   4.028  -3.600  0.00  0.00    +0.168 A 
ATOM      4  C   UNL     1      -1.268   4.384  -2.177  0.00  0.00    +0.055 A 
ATOM      5  C   UNL     1      -0.960   3.536  -1.086  0.00  0.00    -0.019 A 
ATOM      6  C   UNL     1      -0.847   4.102   0.140  0.00  0.00    +0.021 A 
ATOM      7  S   UNL     1      -1.154   5.824  -0.133  0.00  0.00    -0.071 S 
ATOM      8  C   UNL     1      -1.430   5.750  -1.886  0.00  0.00    +0.114 A 
ATOM      9  N   UNL     1      -1.721   6.643  -2.822  0.00  0.00    -0.228 NA
ATOM     10  C   UNL     1      -1.876   6.312  -4.074  0.00  0.00    +0.226 A 
ATOM     11  N   UNL     1      -1.747   5.022  -4.490  0.00  0.00    -0.201 N 
ATOM     12  N   UNL     1      -1.857   4.401  -5.743  0.00  0.00    -0.139 NA
ATOM     13  C   UNL     1      -0.531   3.395   1.420  0.00  0.00    +0.203 C 
ATOM     14  O   UNL     1      -0.682   1.984   1.191  0.00  0.00    -0.368 OA
ATOM     15  C   UNL     1      -0.019   1.526   0.010  0.00  0.00    +0.068 C 
ATOM     16  C   UNL     1      -0.753   2.030  -1.235  0.00  0.00    +0.071 C 
ATOM     17  C   UNL     1       0.002  -0.004   0.002  0.00  0.00    +0.041 C 
ATOM     18  C   UNL     1       1.418   2.052  -0.001  0.00  0.00    +0.041 C 
ENDROOT
BRANCH   1  20
ATOM     19  N   UNL     1      -1.907   2.425  -7.892  0.00  0.00    -0.306 N 
ATOM     20  C   UNL     1      -1.644   2.080  -6.616  0.00  0.00    +0.283 C 
ATOM     21  O   UNL     1      -1.419   0.919  -6.335  0.00  0.00    -0.267 OA
ATOM     22  H   UNL     1      -2.087   3.352  -8.116  0.00  0.00    +0.149 HD
BRANCH  19  23
ATOM     23  C   UNL     1      -1.922   1.401  -8.939  0.00  0.00    +0.135 C 
BRANCH  23  25
ATOM     24  C   UNL     1      -2.383   0.971 -11.357  0.00  0.00    +0.039 C 
ATOM     25  C   UNL     1      -2.244   2.054 -10.285  0.00  0.00    +0.128 C 
BRANCH  25  26
ATOM     26  O   UNL     1      -1.190   2.948 -10.646  0.00  0.00    -0.391 OA
ATOM     27  H   UNL     1      -0.326   2.523 -10.734  0.00  0.00    +0.210 HD
ENDBRANCH  25  26
ENDBRANCH  23  25
ENDBRANCH  19  23
ENDBRANCH   1  20
TORSDOF 4
