REMARK  Name = ZINC34787133
REMARK  8 active torsions:
REMARK  status: ('A' for Active; 'I' for Inactive)
REMARK    1  A    between atoms: C_1  and  C_2
REMARK    2  A    between atoms: C_7  and  N_8
REMARK    3  A    between atoms: N_8  and  N_9
REMARK    4  A    between atoms: N_9  and  N_28
REMARK    5  A    between atoms: C_12  and  C_27
REMARK    6  A    between atoms: C_13  and  C_26
REMARK    7  A    between atoms: C_20  and  C_25
REMARK    8  A    between atoms: C_22  and  C_24
REMARK                            x       y       z     vdW  Elec       q    Type
REMARK                         _______ _______ _______ _____ _____    ______ ____
ROOT
ATOM      1  N   UNL     1      -0.329  -0.371   3.701  0.00  0.00    -0.164 N 
ATOM      2  C   UNL     1       0.594  -0.861   4.607  0.00  0.00    +0.167 A 
ATOM      3  C   UNL     1       1.941  -1.090   4.208  0.00  0.00    +0.054 A 
ATOM      4  C   UNL     1       2.574  -0.886   2.917  0.00  0.00    -0.028 A 
ATOM      5  C   UNL     1       3.875  -1.175   2.772  0.00  0.00    -0.008 A 
ATOM      6  S   UNL     1       4.356  -1.752   4.389  0.00  0.00    -0.073 S 
ATOM      7  C   UNL     1       2.795  -1.590   5.215  0.00  0.00    +0.116 A 
ATOM      8  N   UNL     1       2.357  -1.822   6.437  0.00  0.00    -0.203 NA
ATOM      9  C   UNL     1       1.092  -1.590   6.750  0.00  0.00    +0.254 A 
ATOM     10  N   UNL     1       0.237  -1.116   5.854  0.00  0.00    -0.192 NA
ATOM     11  N   UNL     1       0.651  -1.844   8.049  0.00  0.00    -0.202 N 
ATOM     12  C   UNL     1       1.407  -2.319   9.073  0.00  0.00    +0.045 A 
ATOM     13  C   UNL     1       0.607  -2.424  10.158  0.00  0.00    +0.048 A 
ATOM     14  C   UNL     1      -0.676  -2.002   9.791  0.00  0.00    +0.061 A 
ATOM     15  N   UNL     1      -0.650  -1.650   8.532  0.00  0.00    -0.169 NA
ATOM     16  C   UNL     1      -1.882  -1.957  10.694  0.00  0.00    +0.067 C 
ATOM     17  C   UNL     1       2.873  -2.665   9.011  0.00  0.00    +0.066 C 
ATOM     18  C   UNL     1       4.729  -1.044   1.537  0.00  0.00    +0.052 C 
ATOM     19  C   UNL     1       1.777  -0.357   1.752  0.00  0.00    +0.045 C 
ENDROOT
BRANCH   1  20
ATOM     20  N   UNL     1      -1.493  -1.051   3.477  0.00  0.00    -0.208 NA
ATOM     21  C   UNL     1      -2.657  -0.282   3.967  0.00  0.00    +0.107 C 
ATOM     22  C   UNL     1      -3.225   0.420   2.708  0.00  0.00    +0.018 C 
ATOM     23  C   UNL     1      -3.012  -0.666   1.621  0.00  0.00    +0.018 C 
ATOM     24  C   UNL     1      -1.679  -1.321   2.040  0.00  0.00    +0.107 C 
ENDBRANCH   1  20
BRANCH   1  25
ATOM     25  N   UNL     1      -0.071   0.821   3.012  0.00  0.00    -0.248 N 
ATOM     26  H   UNL     1       0.142   0.799   2.066  0.00  0.00    +0.172 HD
BRANCH  25  33
ATOM     27  C   UNL     1       0.282   3.206   1.502  0.00  0.00    +0.046 C 
ATOM     28  C   UNL     1       0.048   3.232   2.990  0.00  0.00    -0.028 A 
ATOM     29  C   UNL     1      -0.006   4.438   3.661  0.00  0.00    +0.005 A 
ATOM     30  C   UNL     1      -0.222   4.462   5.026  0.00  0.00    +0.000 A 
ATOM     31  C   UNL     1      -0.384   3.280   5.725  0.00  0.00    +0.002 A 
ATOM     32  C   UNL     1      -0.330   2.070   5.061  0.00  0.00    +0.025 A 
ATOM     33  C   UNL     1      -0.119   2.042   3.688  0.00  0.00    +0.049 A 
ENDBRANCH  25  33
ENDBRANCH   1  25
TORSDOF 3
