REMARK  Name = ZINC09388956
REMARK  6 active torsions:
REMARK  status: ('A' for Active; 'I' for Inactive)
REMARK    1  A    between atoms: C_1  and  C_2
REMARK    2  A    between atoms: C_7  and  C_14
REMARK    3  A    between atoms: C_9  and  O_12
REMARK    4  A    between atoms: O_12  and  C_13
REMARK    5  A    between atoms: N_16  and  C_17
REMARK    6  A    between atoms: C_26  and  C_29
REMARK                            x       y       z     vdW  Elec       q    Type
REMARK                         _______ _______ _______ _____ _____    ______ ____
ROOT
ATOM      1  C   UNL     1      -0.027   1.208   0.175  0.00  0.00    +0.248 C 
ATOM      2  O   UNL     1      -0.029   0.002   0.324  0.00  0.00    -0.270 OA
ATOM      3  N   UNL     1      -1.191   1.870   0.018  0.00  0.00    -0.281 N 
ATOM      4  H   UNL     1      -1.196   2.839  -0.024  0.00  0.00    +0.155 HD
ENDROOT
BRANCH   3   5
ATOM      5  C   UNL     1      -2.392   1.158  -0.086  0.00  0.00    +0.036 A 
ATOM      6  C   UNL     1      -3.565   1.698   0.424  0.00  0.00    +0.027 A 
ATOM      7  C   UNL     1      -4.754   1.000   0.323  0.00  0.00    +0.049 A 
ATOM      8  C   UNL     1      -4.776  -0.242  -0.288  0.00  0.00    +0.143 A 
ATOM      9  C   UNL     1      -3.600  -0.788  -0.800  0.00  0.00    +0.077 A 
ATOM     10  C   UNL     1      -2.410  -0.086  -0.704  0.00  0.00    +0.050 A 
ATOM     11  N   UNL     1      -3.639  -2.048  -1.415  0.00  0.00    -0.279 N 
ATOM     12  C   UNL     1      -4.834  -2.561  -1.780  0.00  0.00    +0.258 C 
ATOM     13  O   UNL     1      -4.894  -3.662  -2.286  0.00  0.00    -0.271 OA
ATOM     14  C   UNL     1      -6.091  -1.760  -1.558  0.00  0.00    +0.256 C 
ATOM     15  O   UNL     1      -5.939  -0.940  -0.396  0.00  0.00    -0.478 OA
ATOM     16  C   UNL     1      -6.353  -0.873  -2.776  0.00  0.00    +0.062 C 
ATOM     17  H   UNL     1      -2.820  -2.543  -1.575  0.00  0.00    +0.155 HD
ENDBRANCH   3   5
BRANCH   1  23
ATOM     18  C   UNL     1       7.152   2.952   0.717  0.00  0.00    +0.052 C 
ATOM     19  C   UNL     1       5.858   2.751  -0.075  0.00  0.00    +0.175 C 
ATOM     20  C   UNL     1       5.088   1.512   0.439  0.00  0.00    +0.083 C 
ATOM     21  C   UNL     1       3.646   1.962   0.306  0.00  0.00    +0.002 A 
ATOM     22  C   UNL     1       2.460   1.268   0.325  0.00  0.00    +0.020 A 
ATOM     23  C   UNL     1       1.250   1.948   0.162  0.00  0.00    +0.041 A 
ATOM     24  C   UNL     1       1.258   3.336  -0.008  0.00  0.00    +0.062 A 
ATOM     25  C   UNL     1       2.452   4.025  -0.017  0.00  0.00    +0.163 A 
ATOM     26  C   UNL     1       3.664   3.342   0.143  0.00  0.00    +0.166 A 
ATOM     27  O   UNL     1       4.936   3.825   0.175  0.00  0.00    -0.485 OA
BRANCH  25  28
ATOM     28  O   UNL     1       2.453   5.375  -0.181  0.00  0.00    -0.491 OA
ATOM     29  C   UNL     1       1.182   6.010  -0.338  0.00  0.00    +0.277 C 
ENDBRANCH  25  28
ENDBRANCH   1  23
TORSDOF 3
