REMARK  Name = ZINC14915224
REMARK  6 active torsions:
REMARK  status: ('A' for Active; 'I' for Inactive)
REMARK    1  A    between atoms: C_1  and  C_2
REMARK    2  A    between atoms: C_2  and  C_4
REMARK    3  A    between atoms: C_2  and  N_17
REMARK    4  A    between atoms: N_9  and  C_10
REMARK    5  A    between atoms: C_10  and  C_11
REMARK    6  A    between atoms: N_20  and  C_23
REMARK                            x       y       z     vdW  Elec       q    Type
REMARK                         _______ _______ _______ _____ _____    ______ ____
ROOT
ATOM      1  C   UNL     1       0.088   1.307   0.768  0.00  0.00    -0.004 C 
ATOM      2  C   UNL     1       0.020  -0.015   0.001  0.00  0.00    +0.017 C 
ENDROOT
BRANCH   2   3
ATOM      3  C   UNL     1      -1.362  -0.600   0.131  0.00  0.00    +0.207 C 
ATOM      4  O   UNL     1      -1.608  -1.382   1.024  0.00  0.00    -0.277 OA
ATOM      5  N   UNL     1      -2.325  -0.255  -0.747  0.00  0.00    -0.242 N 
ATOM      6  C   UNL     1      -3.562  -0.778  -0.631  0.00  0.00    +0.306 C 
ATOM      7  O   UNL     1      -3.808  -1.562   0.265  0.00  0.00    -0.252 OA
ATOM      8  N   UNL     1      -4.525  -0.432  -1.508  0.00  0.00    -0.295 N 
ATOM      9  H   UNL     1      -2.128   0.371  -1.461  0.00  0.00    +0.159 HD
ATOM     10  H   UNL     1      -4.328   0.193  -2.223  0.00  0.00    +0.151 HD
BRANCH   8  11
ATOM     11  C   UNL     1      -5.869  -1.002  -1.382  0.00  0.00    +0.141 C 
BRANCH  11  12
ATOM     12  C   UNL     1      -6.749  -0.457  -2.477  0.00  0.00    -0.030 A 
ATOM     13  C   UNL     1      -7.468   0.706  -2.273  0.00  0.00    +0.005 A 
ATOM     14  C   UNL     1      -8.276   1.205  -3.277  0.00  0.00    +0.000 A 
ATOM     15  C   UNL     1      -8.364   0.542  -4.487  0.00  0.00    +0.000 A 
ATOM     16  C   UNL     1      -7.645  -0.621  -4.692  0.00  0.00    +0.000 A 
ATOM     17  C   UNL     1      -6.834  -1.118  -3.689  0.00  0.00    +0.005 A 
ENDBRANCH  11  12
ENDBRANCH   8  11
ENDBRANCH   2   3
BRANCH   2  18
ATOM     18  N   UNL     1       1.004  -0.954   0.556  0.00  0.00    +0.389 N 
ATOM     19  C   UNL     1       2.341  -0.351   0.498  0.00  0.00    -0.059 C 
ATOM     20  C   UNL     1       3.350  -1.281   1.181  0.00  0.00    +0.086 C 
ATOM     21  N   UNL     1       3.256  -2.610   0.556  0.00  0.00    -0.333 N 
ATOM     22  C   UNL     1       1.924  -3.221   0.424  0.00  0.00    +0.086 C 
ATOM     23  C   UNL     1       0.983  -2.199  -0.222  0.00  0.00    -0.059 C 
ATOM     24  H   UNL     1       0.770  -1.156   1.517  0.00  0.00    -0.081 HD
BRANCH  21  25
ATOM     25  C   UNL     1       4.399  -3.273   0.101  0.00  0.00    +0.030 A 
ATOM     26  C   UNL     1       5.656  -2.726   0.325  0.00  0.00    +0.026 A 
ATOM     27  C   UNL     1       6.784  -3.383  -0.125  0.00  0.00    +0.040 A 
ATOM     28  C   UNL     1       6.663  -4.587  -0.799  0.00  0.00    +0.124 A 
ATOM     29  C   UNL     1       5.412  -5.134  -1.023  0.00  0.00    +0.040 A 
ATOM     30  C   UNL     1       4.281  -4.483  -0.570  0.00  0.00    +0.026 A 
ATOM     31  F   UNL     1       7.768  -5.228  -1.239  0.00  0.00    -0.205 F 
ENDBRANCH  21  25
ENDBRANCH   2  18
TORSDOF 5
