REMARK  Name = ZINC06230420
REMARK  5 active torsions:
REMARK  status: ('A' for Active; 'I' for Inactive)
REMARK    1  A    between atoms: C_1  and  O_2
REMARK    2  A    between atoms: O_2  and  C_3
REMARK    3  A    between atoms: C_6  and  N_9
REMARK    4  A    between atoms: C_10  and  S_23
REMARK    5  A    between atoms: C_11  and  C_21
REMARK                            x       y       z     vdW  Elec       q    Type
REMARK                         _______ _______ _______ _____ _____    ______ ____
ROOT
ATOM      1  N   UNL     1      -2.428   1.038   0.019  0.00  0.00    -0.269 N 
ATOM      2  C   UNL     1      -2.427  -0.329  -0.097  0.00  0.00    +0.090 C 
ATOM      3  C   UNL     1      -3.517  -0.934  -0.740  0.00  0.00    +0.141 C 
ATOM      4  C   UNL     1      -4.577  -0.069  -1.263  0.00  0.00    +0.258 C 
ATOM      5  O   UNL     1      -5.387  -0.507  -2.060  0.00  0.00    -0.269 OA
ATOM      6  N   UNL     1      -4.650   1.215  -0.859  0.00  0.00    -0.286 N 
ATOM      7  C   UNL     1      -3.713   1.737   0.139  0.00  0.00    +0.125 C 
ATOM      8  C   UNL     1      -4.284   1.498   1.540  0.00  0.00    +0.051 C 
ATOM      9  C   UNL     1      -5.486   2.430   1.738  0.00  0.00    +0.008 C 
ATOM     10  C   UNL     1      -4.977   3.872   1.786  0.00  0.00    +0.027 C 
ATOM     11  C   UNL     1      -4.059   4.135   0.628  0.00  0.00    -0.027 C 
ATOM     12  C   UNL     1      -3.506   3.207  -0.085  0.00  0.00    +0.014 C 
ATOM     13  H   UNL     1      -5.329   1.798  -1.232  0.00  0.00    +0.151 HD
ENDROOT
BRANCH   1  17
ATOM     14  C   UNL     1       1.152   3.175   0.014  0.00  0.00    +0.120 A 
ATOM     15  C   UNL     1       0.567   2.799  -1.187  0.00  0.00    +0.047 A 
ATOM     16  C   UNL     1      -0.617   2.088  -1.186  0.00  0.00    +0.027 A 
ATOM     17  C   UNL     1      -1.224   1.754   0.017  0.00  0.00    +0.037 A 
ATOM     18  C   UNL     1      -0.635   2.125   1.219  0.00  0.00    +0.027 A 
ATOM     19  C   UNL     1       0.548   2.836   1.216  0.00  0.00    +0.047 A 
BRANCH  14  21
ATOM     20  C   UNL     1       2.864   4.229   1.284  0.00  0.00    +0.277 C 
ATOM     21  O   UNL     1       2.317   3.875   0.012  0.00  0.00    -0.495 OA
ENDBRANCH  14  21
ENDBRANCH   1  17
BRANCH   3  22
ATOM     22  C   UNL     1      -3.591  -2.357  -0.885  0.00  0.00    +0.107 C 
ATOM     23  N   UNL     1      -3.649  -3.485  -1.000  0.00  0.00    -0.191 NA
ENDBRANCH   3  22
BRANCH   2  24
ATOM     24  S   UNL     1      -1.103  -1.298   0.545  0.00  0.00    -0.126 S 
ATOM     25  H   UNL     1      -1.549  -2.588   0.192  0.00  0.00    +0.108 HD
ENDBRANCH   2  24
TORSDOF 4
