REMARK  Name = ZINC03592845
REMARK  3 active torsions:
REMARK  status: ('A' for Active; 'I' for Inactive)
REMARK    1  A    between atoms: C_3  and  N_9
REMARK    2  A    between atoms: C_10  and  C_12
REMARK    3  A    between atoms: C_12  and  N_13
REMARK                            x       y       z     vdW  Elec       q    Type
REMARK                         _______ _______ _______ _____ _____    ______ ____
ROOT
ATOM      1  N   UNL     1       3.500  -2.408   0.266  0.00  0.00    -0.215 N 
ATOM      2  C   UNL     1       3.413  -3.229  -0.798  0.00  0.00    +0.247 C 
ATOM      3  O   UNL     1       3.516  -2.925  -1.967  0.00  0.00    -0.273 OA
ATOM      4  C   UNL     1       3.161  -4.616  -0.232  0.00  0.00    +0.113 C 
ATOM      5  C   UNL     1       4.398  -5.489  -0.544  0.00  0.00    +0.035 C 
ATOM      6  C   UNL     1       4.462  -6.612   0.453  0.00  0.00    +0.003 C 
ATOM      7  C   UNL     1       3.783  -7.899  -0.058  0.00  0.00    +0.000 C 
ATOM      8  C   UNL     1       2.454  -7.624  -0.788  0.00  0.00    +0.000 C 
ATOM      9  C   UNL     1       1.625  -6.578  -0.091  0.00  0.00    +0.003 C 
ATOM     10  C   UNL     1       1.928  -5.210  -0.732  0.00  0.00    +0.035 C 
ATOM     11  N   UNL     1       3.129  -4.386   1.227  0.00  0.00    -0.285 N 
ATOM     12  C   UNL     1       3.342  -3.072   1.416  0.00  0.00    +0.310 C 
ATOM     13  O   UNL     1       3.384  -2.546   2.511  0.00  0.00    -0.252 OA
ATOM     14  H   UNL     1       2.952  -5.227   1.913  0.00  0.00    +0.151 HD
ENDROOT
BRANCH   1  15
ATOM     15  C   UNL     1       3.743  -0.967   0.175  0.00  0.00    +0.214 C 
BRANCH  15  17
ATOM     16  N   UNL     1       2.403   1.104  -0.015  0.00  0.00    -0.283 N 
ATOM     17  C   UNL     1       2.426  -0.240   0.078  0.00  0.00    +0.235 C 
ATOM     18  O   UNL     1       1.387  -0.866   0.085  0.00  0.00    -0.274 OA
ATOM     19  H   UNL     1       3.344   1.665  -0.113  0.00  0.00    +0.155 HD
BRANCH  16  22
ATOM     20  C   UNL     1      -1.130   1.886   0.647  0.00  0.00    +0.040 A 
ATOM     21  C   UNL     1       0.077   1.213   0.627  0.00  0.00    +0.027 A 
ATOM     22  C   UNL     1       1.180   1.787   0.011  0.00  0.00    +0.052 A 
ATOM     23  C   UNL     1       1.070   3.041  -0.578  0.00  0.00    +0.065 A 
ATOM     24  C   UNL     1      -0.137   3.712  -0.551  0.00  0.00    +0.060 A 
ATOM     25  C   UNL     1      -1.236   3.137   0.064  0.00  0.00    +0.125 A 
ATOM     26  F   UNL     1      -2.416   3.795   0.090  0.00  0.00    -0.205 F 
ATOM     27 CL   UNL     1       2.449   3.763  -1.348  0.00  0.00    -0.082 Cl
ENDBRANCH  16  22
ENDBRANCH  15  17
ENDBRANCH   1  15
TORSDOF 3
