REMARK  Name = ZINC39879249
REMARK  9 active torsions:
REMARK  status: ('A' for Active; 'I' for Inactive)
REMARK    1  A    between atoms: C_1  and  C_2
REMARK    2  A    between atoms: C_2  and  O_3
REMARK    3  A    between atoms: O_3  and  C_4
REMARK    4  A    between atoms: C_6  and  C_11
REMARK    5  A    between atoms: C_9  and  O_10
REMARK    6  A    between atoms: C_18  and  C_35
REMARK    7  A    between atoms: N_26  and  C_27
REMARK    8  A    between atoms: C_30  and  O_33
REMARK    9  A    between atoms: O_33  and  C_34
REMARK                            x       y       z     vdW  Elec       q    Type
REMARK                         _______ _______ _______ _____ _____    ______ ____
ROOT
ATOM      1  C   UNL     1       0.654  -4.954  -0.018  0.00  0.00    +0.150 C 
ATOM      2  C   UNL     1       0.879  -5.499  -1.391  0.00  0.00    +0.072 A 
ATOM      3  C   UNL     1       1.149  -4.825  -2.665  0.00  0.00    +0.199 A 
ATOM      4  O   UNL     1       1.407  -3.638  -2.750  0.00  0.00    -0.287 OA
ATOM      5  C   UNL     1       1.080  -5.729  -3.841  0.00  0.00    +0.065 A 
ATOM      6  C   UNL     1       1.116  -5.209  -5.134  0.00  0.00    +0.018 A 
ATOM      7  C   UNL     1       1.046  -6.054  -6.207  0.00  0.00    -0.050 A 
ATOM      8  C   UNL     1       0.939  -7.424  -6.011  0.00  0.00    +0.007 A 
ATOM      9  C   UNL     1       0.904  -7.955  -4.742  0.00  0.00    +0.047 A 
ATOM     10  C   UNL     1       0.976  -7.114  -3.631  0.00  0.00    +0.139 A 
ATOM     11  O   UNL     1       0.950  -7.657  -2.393  0.00  0.00    -0.450 OA
ATOM     12  C   UNL     1       0.788  -6.860  -1.318  0.00  0.00    +0.199 A 
ATOM     13  C   UNL     1       0.501  -7.231   0.078  0.00  0.00    +0.287 C 
ATOM     14  O   UNL     1       0.356  -8.368   0.480  0.00  0.00    -0.266 OA
ATOM     15  N   UNL     1       0.422  -6.123   0.846  0.00  0.00    -0.253 N 
ATOM     16  C   UNL     1       1.084  -5.496  -7.606  0.00  0.00    +0.044 C 
ENDROOT
BRANCH   1  19
ATOM     17  C   UNL     1      -1.498  -1.849   0.006  0.00  0.00    +0.162 A 
ATOM     18  C   UNL     1      -0.389  -2.680  -0.003  0.00  0.00    +0.055 A 
ATOM     19  C   UNL     1      -0.553  -4.052  -0.008  0.00  0.00    -0.018 A 
ATOM     20  C   UNL     1      -1.823  -4.600  -0.005  0.00  0.00    +0.009 A 
ATOM     21  C   UNL     1      -2.934  -3.777   0.004  0.00  0.00    +0.049 A 
ATOM     22  C   UNL     1      -2.776  -2.400   0.016  0.00  0.00    +0.158 A 
BRANCH  22  23
ATOM     23  O   UNL     1      -3.868  -1.589   0.030  0.00  0.00    -0.503 OA
ATOM     24  H   UNL     1      -4.192  -1.350  -0.849  0.00  0.00    +0.292 HD
ENDBRANCH  22  23
BRANCH  17  25
ATOM     25  O   UNL     1      -1.339  -0.499   0.012  0.00  0.00    -0.489 OA
BRANCH  25  27
ATOM     26  C   UNL     1      -0.019   1.526   0.010  0.00  0.00    +0.048 C 
ATOM     27  C   UNL     1       0.002  -0.004   0.002  0.00  0.00    +0.226 C 
ENDBRANCH  25  27
ENDBRANCH  17  25
ENDBRANCH   1  19
BRANCH  15  28
ATOM     28  C   UNL     1       0.165  -6.091   2.221  0.00  0.00    +0.038 A 
ATOM     29  C   UNL     1       0.105  -4.874   2.889  0.00  0.00    +0.027 A 
ATOM     30  C   UNL     1      -0.148  -4.843   4.245  0.00  0.00    +0.047 A 
ATOM     31  C   UNL     1      -0.344  -6.027   4.942  0.00  0.00    +0.120 A 
ATOM     32  C   UNL     1      -0.284  -7.242   4.276  0.00  0.00    +0.047 A 
ATOM     33  C   UNL     1      -0.036  -7.275   2.918  0.00  0.00    +0.027 A 
BRANCH  31  34
ATOM     34  O   UNL     1      -0.593  -5.995   6.278  0.00  0.00    -0.495 OA
ATOM     35  C   UNL     1      -0.784  -7.252   6.932  0.00  0.00    +0.277 C 
ENDBRANCH  31  34
ENDBRANCH  15  28
TORSDOF 6
