REMARK  Name = ZINC66232906
REMARK  6 active torsions:
REMARK  status: ('A' for Active; 'I' for Inactive)
REMARK    1  A    between atoms: C_1  and  C_2
REMARK    2  A    between atoms: C_7  and  C_8
REMARK    3  A    between atoms: N_16  and  C_17
REMARK    4  A    between atoms: C_17  and  C_18
REMARK    5  A    between atoms: C_18  and  C_19
REMARK    6  A    between atoms: C_19  and  N_20
REMARK                            x       y       z     vdW  Elec       q    Type
REMARK                         _______ _______ _______ _____ _____    ______ ____
ROOT
ATOM      1  C   UNL     1       0.025   0.045   2.504  0.00  0.00    +0.038 C 
ATOM      2  C   UNL     1      -1.173  -0.385   3.392  0.00  0.00    +0.029 C 
ATOM      3  C   UNL     1      -0.663  -0.104   4.821  0.00  0.00    +0.110 C 
ATOM      4  N   UNL     1       0.806  -0.093   4.766  0.00  0.00    -0.285 N 
ATOM      5  C   UNL     1       1.230  -0.377   3.382  0.00  0.00    +0.117 C 
ATOM      6  C   UNL     1       1.630   0.139   5.807  0.00  0.00    +0.302 C 
ATOM      7  O   UNL     1       2.835   0.124   5.644  0.00  0.00    -0.253 OA
ATOM      8  N   UNL     1       1.118   0.388   7.028  0.00  0.00    -0.299 N 
ATOM      9  H   UNL     1       0.157   0.401   7.158  0.00  0.00    +0.150 HD
ENDROOT
BRANCH   1  16
ATOM     10  C   UNL     1      -0.018   1.503   0.010  0.00  0.00    +0.044 C 
ATOM     11  C   UNL     1       0.002  -0.004   0.002  0.00  0.00    -0.047 A 
ATOM     12  C   UNL     1       0.006  -0.689  -1.199  0.00  0.00    +0.003 A 
ATOM     13  C   UNL     1       0.025  -2.071  -1.207  0.00  0.00    +0.000 A 
ATOM     14  C   UNL     1       0.040  -2.768  -0.013  0.00  0.00    +0.000 A 
ATOM     15  C   UNL     1       0.037  -2.084   1.188  0.00  0.00    +0.004 A 
ATOM     16  C   UNL     1       0.023  -0.702   1.195  0.00  0.00    -0.040 A 
ENDBRANCH   1  16
BRANCH   8  17
ATOM     17  C   UNL     1       2.013   0.641   8.160  0.00  0.00    +0.107 C 
BRANCH  17  18
ATOM     18  C   UNL     1       1.183   0.893   9.420  0.00  0.00    +0.042 C 
BRANCH  18  19
ATOM     19  C   UNL     1       2.118   1.157  10.603  0.00  0.00    +0.150 C 
BRANCH  19  20
ATOM     20  N   UNL     1       1.323   1.399  11.809  0.00  0.00    -0.212 N 
ATOM     21  C   UNL     1       0.912   0.466  12.693  0.00  0.00    +0.351 A 
ATOM     22  O   UNL     1       1.136  -0.730  12.629  0.00  0.00    -0.244 OA
ATOM     23  N   UNL     1       0.209   1.092  13.659  0.00  0.00    -0.251 N 
ATOM     24  C   UNL     1      -0.424   0.619  14.783  0.00  0.00    +0.098 A 
ATOM     25  C   UNL     1      -1.073   1.459  15.609  0.00  0.00    +0.018 A 
ATOM     26  C   UNL     1      -1.115   2.842  15.338  0.00  0.00    +0.005 A 
ATOM     27  C   UNL     1      -0.498   3.333  14.236  0.00  0.00    +0.049 A 
ATOM     28  C   UNL     1       0.184   2.443  13.368  0.00  0.00    +0.162 A 
ATOM     29  N   UNL     1       0.857   2.642  12.258  0.00  0.00    -0.149 NA
ENDBRANCH  19  20
ENDBRANCH  18  19
ENDBRANCH  17  18
ENDBRANCH   8  17
TORSDOF 5
