REMARK  Name = ZINC45779099
REMARK  11 active torsions:
REMARK  status: ('A' for Active; 'I' for Inactive)
REMARK    1  A    between atoms: C_1  and  C_2
REMARK    2  A    between atoms: C_5  and  N_9
REMARK    3  A    between atoms: C_10  and  C_32
REMARK    4  A    between atoms: C_12  and  C_15
REMARK    5  A    between atoms: C_13  and  C_14
REMARK    6  A    between atoms: C_15  and  C_17
REMARK    7  A    between atoms: C_17  and  O_18
REMARK    8  A    between atoms: O_18  and  C_19
REMARK    9  A    between atoms: C_19  and  C_21
REMARK   10  A    between atoms: C_24  and  C_31
REMARK   11  A    between atoms: N_26  and  C_30
REMARK                            x       y       z     vdW  Elec       q    Type
REMARK                         _______ _______ _______ _____ _____    ______ ____
ROOT
ATOM      1  C   UNL     1       1.530  -7.432   0.619  0.00  0.00    +0.202 C 
ATOM      2  O   UNL     1       2.621  -7.288   1.130  0.00  0.00    -0.288 OA
ENDROOT
BRANCH   1   6
ATOM      3  N   UNL     1       0.058  -4.173  -0.023  0.00  0.00    -0.317 N 
ATOM      4  C   UNL     1      -0.949  -4.964  -0.503  0.00  0.00    +0.022 A 
ATOM      5  C   UNL     1      -0.603  -6.254  -0.359  0.00  0.00    +0.034 A 
ATOM      6  C   UNL     1       0.729  -6.260   0.261  0.00  0.00    +0.042 A 
ATOM      7  C   UNL     1       1.073  -4.932   0.434  0.00  0.00    +0.032 A 
ATOM      8  C   UNL     1       2.359  -4.422   1.032  0.00  0.00    +0.064 C 
ATOM      9  C   UNL     1      -2.241  -4.468  -1.098  0.00  0.00    +0.064 C 
BRANCH   3  14
ATOM     10  C   UNL     1      -0.018   1.503   0.010  0.00  0.00    +0.047 C 
ATOM     11  C   UNL     1       0.002  -0.004   0.002  0.00  0.00    -0.015 A 
ATOM     12  C   UNL     1       0.006  -0.688  -1.200  0.00  0.00    +0.008 A 
ATOM     13  C   UNL     1       0.024  -2.069  -1.211  0.00  0.00    +0.026 A 
ATOM     14  C   UNL     1       0.040  -2.772  -0.014  0.00  0.00    +0.049 A 
ATOM     15  C   UNL     1       0.036  -2.085   1.192  0.00  0.00    +0.064 A 
ATOM     16  C   UNL     1       0.023  -0.702   1.198  0.00  0.00    +0.128 A 
ATOM     17  F   UNL     1       0.025  -0.031   2.371  0.00  0.00    -0.205 F 
ENDBRANCH   3  14
ENDBRANCH   1   6
BRANCH   1  18
ATOM     18  C   UNL     1       1.000  -8.818   0.353  0.00  0.00    +0.311 C 
BRANCH  18  19
ATOM     19  O   UNL     1       1.957  -9.786   0.787  0.00  0.00    -0.453 OA
BRANCH  19  20
ATOM     20  C   UNL     1       1.634 -11.083   0.619  0.00  0.00    +0.341 C 
ATOM     21  O   UNL     1       0.569 -11.384   0.118  0.00  0.00    -0.245 OA
BRANCH  20  22
ATOM     22  C   UNL     1       2.574 -12.138   1.043  0.00  0.00    +0.078 A 
ATOM     23  C   UNL     1       2.250 -13.485   0.868  0.00  0.00    +0.030 A 
ATOM     24  C   UNL     1       3.178 -14.441   1.287  0.00  0.00    +0.042 A 
ATOM     25  C   UNL     1       3.208 -15.900   1.277  0.00  0.00    +0.069 A 
ATOM     26  N   UNL     1       4.340 -16.273   1.803  0.00  0.00    -0.174 NA
ATOM     27  N   UNL     1       5.090 -15.154   2.175  0.00  0.00    -0.249 N 
ATOM     28  C   UNL     1       4.394 -14.020   1.867  0.00  0.00    +0.158 A 
ATOM     29  N   UNL     1       4.653 -12.724   2.010  0.00  0.00    -0.235 NA
ATOM     30  C   UNL     1       3.805 -11.801   1.622  0.00  0.00    +0.128 A 
ATOM     31  C   UNL     1       6.416 -15.191   2.798  0.00  0.00    +0.174 C 
ATOM     32  C   UNL     1       2.127 -16.809   0.753  0.00  0.00    +0.068 C 
ENDBRANCH  20  22
ENDBRANCH  19  20
ENDBRANCH  18  19
ENDBRANCH   1  18
TORSDOF 6
