REMARK  Name = ZINC67535951
REMARK  7 active torsions:
REMARK  status: ('A' for Active; 'I' for Inactive)
REMARK    1  A    between atoms: C_1  and  C_2
REMARK    2  A    between atoms: C_3  and  C_9
REMARK    3  A    between atoms: C_4  and  C_8
REMARK    4  A    between atoms: N_5  and  C_7
REMARK    5  A    between atoms: C_9  and  C_11
REMARK    6  A    between atoms: C_9  and  N_12
REMARK    7  A    between atoms: C_21  and  C_23
REMARK                            x       y       z     vdW  Elec       q    Type
REMARK                         _______ _______ _______ _____ _____    ______ ____
ROOT
ATOM      1  N   UNL     1       0.220   1.696  -3.118  0.00  0.00    -0.293 N 
ATOM      2  C   UNL     1       0.972   1.710  -4.237  0.00  0.00    +0.303 C 
ATOM      3  O   UNL     1       0.763   0.899  -5.119  0.00  0.00    -0.253 OA
ATOM      4  N   UNL     1       1.954   2.622  -4.378  0.00  0.00    -0.283 N 
ATOM      5  C   UNL     1       2.326   3.499  -3.259  0.00  0.00    +0.128 C 
ATOM      6  C   UNL     1       3.828   3.345  -2.994  0.00  0.00    +0.127 C 
ATOM      7  N   UNL     1       4.547   3.479  -4.269  0.00  0.00    -0.292 N 
ATOM      8  C   UNL     1       4.175   2.602  -5.388  0.00  0.00    +0.127 C 
ATOM      9  C   UNL     1       2.676   2.753  -5.651  0.00  0.00    +0.128 C 
ATOM     10  C   UNL     1       5.529   4.391  -4.410  0.00  0.00    +0.282 C 
ATOM     11  O   UNL     1       6.024   4.588  -5.504  0.00  0.00    -0.267 OA
ATOM     12  H   UNL     1       0.431   2.295  -2.385  0.00  0.00    +0.151 HD
ENDROOT
BRANCH  10  13
ATOM     13  C   UNL     1       6.000   5.147  -3.245  0.00  0.00    +0.189 A 
ATOM     14  C   UNL     1       6.886   6.186  -3.268  0.00  0.00    +0.054 A 
ATOM     15  C   UNL     1       7.048   6.608  -1.939  0.00  0.00    +0.042 A 
ATOM     16  C   UNL     1       6.264   5.817  -1.173  0.00  0.00    +0.196 A 
ATOM     17  O   UNL     1       5.630   4.942  -1.964  0.00  0.00    -0.458 OA
ENDBRANCH  10  13
BRANCH   1  18
ATOM     18  C   UNL     1      -0.914   0.776  -3.009  0.00  0.00    +0.105 C 
ATOM     19  C   UNL     1      -2.149   1.409  -3.654  0.00  0.00    +0.033 C 
BRANCH  18  22
ATOM     20  C   UNL     1      -1.030   2.927  -0.685  0.00  0.00    +0.068 C 
ATOM     21  C   UNL     1      -1.247   1.444  -0.529  0.00  0.00    +0.065 A 
ATOM     22  C   UNL     1      -1.196   0.495  -1.555  0.00  0.00    +0.016 A 
ATOM     23  C   UNL     1      -1.443  -0.720  -1.012  0.00  0.00    +0.041 A 
ATOM     24  N   UNL     1      -1.644  -0.545   0.310  0.00  0.00    -0.271 N 
ATOM     25  N   UNL     1      -1.511   0.821   0.591  0.00  0.00    -0.176 NA
ATOM     26  C   UNL     1      -1.944  -1.600   1.283  0.00  0.00    +0.172 C 
ATOM     27  C   UNL     1      -1.487  -2.031  -1.753  0.00  0.00    +0.065 C 
ENDBRANCH  18  22
ENDBRANCH   1  18
TORSDOF 3
