REMARK  Name = ZINC21778510
REMARK  3 active torsions:
REMARK  status: ('A' for Active; 'I' for Inactive)
REMARK    1  A    between atoms: C_5  and  C_7
REMARK    2  A    between atoms: C_7  and  N_8
REMARK    3  A    between atoms: N_15  and  C_18
REMARK                            x       y       z     vdW  Elec       q    Type
REMARK                         _______ _______ _______ _____ _____    ______ ____
ROOT
ATOM      1  N   UNL     1       1.813  -2.663   1.495  0.00  0.00    -0.219 N 
ATOM      2  C   UNL     1       0.610  -2.913   2.308  0.00  0.00    +0.216 C 
ATOM      3  C   UNL     1       1.209  -3.533   3.600  0.00  0.00    +0.246 C 
ATOM      4  C   UNL     1       0.900  -2.498   4.659  0.00  0.00    +0.255 C 
ATOM      5  O   UNL     1       1.193  -2.586   5.832  0.00  0.00    -0.272 OA
ATOM      6  N   UNL     1       0.254  -1.468   4.099  0.00  0.00    -0.207 N 
ATOM      7  C   UNL     1       0.028  -1.595   2.766  0.00  0.00    +0.251 C 
ATOM      8  O   UNL     1      -0.540  -0.795   2.054  0.00  0.00    -0.273 OA
ATOM      9  N   UNL     1       2.652  -3.571   3.331  0.00  0.00    -0.156 NA
ATOM     10  N   UNL     1       2.916  -3.098   2.231  0.00  0.00    -0.082 NA
ENDROOT
BRANCH   6  11
ATOM     11  C   UNL     1      -0.165  -0.347   4.830  0.00  0.00    +0.044 A 
ATOM     12  C   UNL     1       0.773   0.521   5.370  0.00  0.00    +0.027 A 
ATOM     13  C   UNL     1       0.359   1.625   6.090  0.00  0.00    +0.040 A 
ATOM     14  C   UNL     1      -0.993   1.864   6.274  0.00  0.00    +0.124 A 
ATOM     15  C   UNL     1      -1.931   0.998   5.737  0.00  0.00    +0.040 A 
ATOM     16  C   UNL     1      -1.520  -0.103   5.011  0.00  0.00    +0.027 A 
ATOM     17  F   UNL     1      -1.397   2.943   6.979  0.00  0.00    -0.205 F 
ENDBRANCH   6  11
BRANCH   1  18
ATOM     18  C   UNL     1       1.845  -2.071   0.155  0.00  0.00    +0.166 C 
BRANCH  18  23
ATOM     19  C   UNL     1       0.996   1.607   0.240  0.00  0.00    +0.000 A 
ATOM     20  C   UNL     1       2.234   2.172   0.481  0.00  0.00    +0.003 A 
ATOM     21  C   UNL     1       3.348   1.365   0.617  0.00  0.00    +0.038 A 
ATOM     22  C   UNL     1       3.223  -0.010   0.512  0.00  0.00    +0.128 A 
ATOM     23  C   UNL     1       1.983  -0.575   0.271  0.00  0.00    +0.007 A 
ATOM     24  C   UNL     1       0.870   0.234   0.135  0.00  0.00    +0.008 A 
ATOM     25  F   UNL     1       4.311  -0.799   0.645  0.00  0.00    -0.205 F 
ENDBRANCH  18  23
ENDBRANCH   1  18
TORSDOF 3
