REMARK  Name = ZINC12872019
REMARK  2 active torsions:
REMARK  status: ('A' for Active; 'I' for Inactive)
REMARK    1  A    between atoms: C_4  and  N_7
REMARK    2  A    between atoms: C_15  and  C_18
REMARK                            x       y       z     vdW  Elec       q    Type
REMARK                         _______ _______ _______ _____ _____    ______ ____
ROOT
ATOM      1  N   UNL     1       5.101   7.023  -0.965  0.00  0.00    -0.181 N 
ATOM      2  C   UNL     1       4.316   6.482  -0.001  0.00  0.00    +0.242 A 
ATOM      3  N   UNL     1       4.178   7.392   0.939  0.00  0.00    -0.092 NA
ATOM      4  N   UNL     1       4.815   8.462   0.627  0.00  0.00    -0.021 NA
ATOM      5  N   UNL     1       5.399   8.321  -0.514  0.00  0.00    -0.038 NA
ATOM      6  N   UNL     1       3.769   5.212  -0.003  0.00  0.00    -0.298 N 
ATOM      7  C   UNL     1       2.980   4.977   1.213  0.00  0.00    +0.109 C 
ATOM      8  C   UNL     1       2.513   3.520   1.246  0.00  0.00    +0.032 C 
ATOM      9  C   UNL     1       1.667   3.232   0.003  0.00  0.00    +0.078 C 
ATOM     10  C   UNL     1       2.496   3.530  -1.249  0.00  0.00    +0.032 C 
ATOM     11  C   UNL     1       2.963   4.987  -1.210  0.00  0.00    +0.109 C 
ENDROOT
BRANCH   9  12
ATOM     12  C   UNL     1       1.253   1.783  -0.000  0.00  0.00    +0.200 A 
ATOM     13  N   UNL     1       2.075   0.776  -0.014  0.00  0.00    -0.213 NA
ATOM     14  C   UNL     1       1.354  -0.378  -0.013  0.00  0.00    +0.110 A 
ATOM     15  C   UNL     1       1.697  -1.731  -0.023  0.00  0.00    +0.031 A 
ATOM     16  C   UNL     1       0.706  -2.687  -0.018  0.00  0.00    +0.002 A 
ATOM     17  C   UNL     1      -0.630  -2.313  -0.003  0.00  0.00    +0.004 A 
ATOM     18  C   UNL     1      -0.983  -0.980   0.007  0.00  0.00    +0.048 A 
ATOM     19  C   UNL     1       0.002  -0.004   0.002  0.00  0.00    +0.155 A 
ATOM     20  O   UNL     1      -0.016   1.347   0.009  0.00  0.00    -0.439 OA
ENDBRANCH   9  12
BRANCH   1  24
ATOM     21  C   UNL     1       6.358   5.225  -4.511  0.00  0.00    +0.000 A 
ATOM     22  C   UNL     1       6.081   6.580  -4.484  0.00  0.00    +0.002 A 
ATOM     23  C   UNL     1       5.664   7.178  -3.311  0.00  0.00    +0.028 A 
ATOM     24  C   UNL     1       5.524   6.418  -2.158  0.00  0.00    +0.071 A 
ATOM     25  C   UNL     1       5.809   5.060  -2.186  0.00  0.00    +0.028 A 
ATOM     26  C   UNL     1       6.220   4.466  -3.364  0.00  0.00    +0.002 A 
ENDBRANCH   1  24
TORSDOF 2
