REMARK  Name = ZINC03545678
REMARK  5 active torsions:
REMARK  status: ('A' for Active; 'I' for Inactive)
REMARK    1  A    between atoms: C_1  and  C_2
REMARK    2  A    between atoms: C_2  and  C_4
REMARK    3  A    between atoms: C_2  and  N_11
REMARK    4  A    between atoms: C_12  and  C_14
REMARK    5  A    between atoms: C_14  and  N_15
REMARK                            x       y       z     vdW  Elec       q    Type
REMARK                         _______ _______ _______ _____ _____    ______ ____
ROOT
ATOM      1  N   UNL     1       1.246  -0.498  -0.012  0.00  0.00    -0.215 N 
ATOM      2  C   UNL     1       2.171   0.485  -0.016  0.00  0.00    +0.252 C 
ATOM      3  O   UNL     1       3.376   0.358  -0.029  0.00  0.00    -0.272 OA
ATOM      4  C   UNL     1       1.386   1.777  -0.002  0.00  0.00    +0.144 C 
ATOM      5  C   UNL     1       1.684   2.593  -1.256  0.00  0.00    +0.081 C 
ATOM      6  C   UNL     1       3.072   3.229  -1.098  0.00  0.00    +0.232 C 
ATOM      7  O   UNL     1       3.031   4.137   0.004  0.00  0.00    -0.492 OA
ATOM      8  C   UNL     1       2.506   3.696   1.177  0.00  0.00    +0.126 A 
ATOM      9  C   UNL     1       1.704   2.568   1.236  0.00  0.00    +0.027 A 
ATOM     10  C   UNL     1       1.183   2.158   2.451  0.00  0.00    +0.010 A 
ATOM     11  C   UNL     1       1.462   2.864   3.605  0.00  0.00    +0.001 A 
ATOM     12  C   UNL     1       2.267   3.987   3.550  0.00  0.00    +0.004 A 
ATOM     13  C   UNL     1       2.788   4.403   2.341  0.00  0.00    +0.046 A 
ATOM     14  N   UNL     1      -0.016   1.343   0.009  0.00  0.00    -0.281 N 
ATOM     15  C   UNL     1       0.002  -0.004   0.002  0.00  0.00    +0.310 C 
ATOM     16  O   UNL     1      -0.999  -0.694   0.007  0.00  0.00    -0.252 OA
ATOM     17  H   UNL     1      -0.801   1.913   0.016  0.00  0.00    +0.152 HD
ENDROOT
BRANCH   1  18
ATOM     18  C   UNL     1       1.565  -1.928  -0.023  0.00  0.00    +0.213 C 
BRANCH  18  20
ATOM     19  N   UNL     1       1.946  -3.703  -1.702  0.00  0.00    -0.307 N 
ATOM     20  C   UNL     1       1.661  -2.411  -1.447  0.00  0.00    +0.231 C 
ATOM     21  O   UNL     1       1.481  -1.637  -2.363  0.00  0.00    -0.274 OA
ATOM     22  H   UNL     1       2.090  -4.322  -0.970  0.00  0.00    +0.149 HD
BRANCH  19  24
ATOM     23  C   UNL     1       3.449  -3.908  -3.621  0.00  0.00    +0.033 C 
ATOM     24  C   UNL     1       2.040  -4.173  -3.087  0.00  0.00    +0.100 C 
BRANCH  24  25
ATOM     25  C   UNL     1       1.754  -5.651  -3.136  0.00  0.00    -0.027 A 
ATOM     26  C   UNL     1       2.252  -6.484  -2.152  0.00  0.00    +0.008 A 
ATOM     27  C   UNL     1       1.986  -7.840  -2.194  0.00  0.00    +0.038 A 
ATOM     28  C   UNL     1       1.229  -8.365  -3.227  0.00  0.00    +0.123 A 
ATOM     29  C   UNL     1       0.735  -7.530  -4.215  0.00  0.00    +0.038 A 
ATOM     30  C   UNL     1       0.998  -6.174  -4.169  0.00  0.00    +0.008 A 
ATOM     31  F   UNL     1       0.973  -9.691  -3.271  0.00  0.00    -0.205 F 
ENDBRANCH  24  25
ENDBRANCH  19  24
ENDBRANCH  18  20
ENDBRANCH   1  18
TORSDOF 4
