REMARK  Name = ZINC02801888
REMARK  3 active torsions:
REMARK  status: ('A' for Active; 'I' for Inactive)
REMARK    1  A    between atoms: C_12  and  C_14
REMARK    2  A    between atoms: N_16  and  N_17
REMARK    3  A    between atoms: C_18  and  C_19
REMARK                            x       y       z     vdW  Elec       q    Type
REMARK                         _______ _______ _______ _____ _____    ______ ____
ROOT
ATOM      1  C   UNL     1      -1.232   1.746   0.017  0.00  0.00    +0.001 A 
ATOM      2  C   UNL     1      -0.013   1.076   0.008  0.00  0.00    +0.001 A 
ATOM      3  C   UNL     1       1.165   1.765   0.000  0.00  0.00    +0.009 A 
ATOM      4  C   UNL     1       1.149   3.163   0.008  0.00  0.00    -0.007 A 
ATOM      5  C   UNL     1      -0.090   3.848   0.024  0.00  0.00    -0.017 A 
ATOM      6  C   UNL     1      -1.283   3.108   0.031  0.00  0.00    +0.008 A 
ATOM      7  C   UNL     1      -0.104   5.257   0.030  0.00  0.00    +0.012 A 
ATOM      8  C   UNL     1       1.049   5.970   0.023  0.00  0.00    +0.047 A 
ATOM      9  C   UNL     1       2.301   5.345   0.008  0.00  0.00    +0.136 A 
ATOM     10  C   UNL     1       2.382   3.946   0.000  0.00  0.00    +0.029 A 
ATOM     11  C   UNL     1       3.754   3.619  -0.015  0.00  0.00    +0.063 A 
ATOM     12  C   UNL     1       4.440   4.795  -0.015  0.00  0.00    +0.192 A 
ATOM     13  O   UNL     1       3.562   5.822  -0.002  0.00  0.00    -0.450 OA
ENDROOT
BRANCH  12  14
ATOM     14  C   UNL     1       5.901   4.927  -0.029  0.00  0.00    +0.299 C 
ATOM     15  O   UNL     1       6.602   3.932  -0.041  0.00  0.00    -0.265 OA
ATOM     16  N   UNL     1       6.468   6.150  -0.028  0.00  0.00    -0.200 N 
ATOM     17  H   UNL     1       5.909   6.943  -0.018  0.00  0.00    +0.178 HD
BRANCH  16  18
ATOM     18  N   UNL     1       7.863   6.276  -0.041  0.00  0.00    -0.184 NA
ATOM     19  C   UNL     1       8.410   7.457  -0.040  0.00  0.00    +0.176 C 
BRANCH  19  20
ATOM     20  C   UNL     1       9.869   7.588  -0.053  0.00  0.00    +0.149 A 
ATOM     21  C   UNL     1      10.569   8.761  -0.060  0.00  0.00    +0.052 A 
ATOM     22  C   UNL     1      11.933   8.418  -0.070  0.00  0.00    +0.057 A 
ATOM     23  C   UNL     1      12.003   7.070  -0.078  0.00  0.00    +0.171 A 
ATOM     24  O   UNL     1      10.756   6.573  -0.068  0.00  0.00    -0.447 OA
ATOM     25 BR   UNL     1      13.596   6.050  -0.100  0.00  0.00    -0.008 Br
ENDBRANCH  19  20
ENDBRANCH  16  18
ENDBRANCH  12  14
TORSDOF 3
