REMARK  Name = ZINC21735480
REMARK  3 active torsions:
REMARK  status: ('A' for Active; 'I' for Inactive)
REMARK    1  A    between atoms: C_1  and  C_2
REMARK    2  A    between atoms: N_13  and  C_16
REMARK    3  A    between atoms: C_16  and  C_17
REMARK                            x       y       z     vdW  Elec       q    Type
REMARK                         _______ _______ _______ _____ _____    ______ ____
ROOT
ATOM      1  C   UNL     1       3.546   2.093  -1.322  0.00  0.00    +0.008 C 
ATOM      2  C   UNL     1       2.194   1.398  -1.157  0.00  0.00    -0.009 C 
ATOM      3  C   UNL     1       1.421   2.037  -0.001  0.00  0.00    +0.008 C 
ATOM      4  C   UNL     1      -0.019   1.522   0.010  0.00  0.00    +0.037 C 
ATOM      5  C   UNL     1       0.002  -0.004   0.002  0.00  0.00    -0.023 A 
ATOM      6  C   UNL     1       1.113  -0.674  -0.386  0.00  0.00    -0.004 A 
ATOM      7  S   UNL     1       0.692  -2.393  -0.240  0.00  0.00    -0.073 S 
ATOM      8  C   UNL     1      -0.965  -2.210   0.338  0.00  0.00    +0.116 A 
ATOM      9  C   UNL     1      -1.139  -0.809   0.399  0.00  0.00    +0.076 A 
ATOM     10  C   UNL     1      -2.417  -0.330   0.843  0.00  0.00    +0.263 A 
ATOM     11  O   UNL     1      -2.669   0.859   0.931  0.00  0.00    -0.267 OA
ATOM     12  N   UNL     1      -3.325  -1.284   1.159  0.00  0.00    -0.293 N 
ATOM     13  C   UNL     1      -3.065  -2.611   1.068  0.00  0.00    +0.203 A 
ATOM     14  N   UNL     1      -1.908  -3.088   0.665  0.00  0.00    -0.230 NA
ATOM     15  C   UNL     1       2.414  -0.088  -0.839  0.00  0.00    +0.046 C 
ENDROOT
BRANCH  12  16
ATOM     16  C   UNL     1      -4.650  -0.862   1.620  0.00  0.00    +0.173 C 
BRANCH  16  17
ATOM     17  C   UNL     1      -5.571  -0.717   0.436  0.00  0.00    +0.031 C 
ATOM     18  C   UNL     1      -6.609  -1.509   0.311  0.00  0.00    +0.027 C 
ATOM     19 CL   UNL     1      -5.258   0.500  -0.763  0.00  0.00    -0.087 Cl
ENDBRANCH  16  17
ENDBRANCH  12  16
TORSDOF 2
