REMARK  Name = ZINC40051770
REMARK  6 active torsions:
REMARK  status: ('A' for Active; 'I' for Inactive)
REMARK    1  A    between atoms: C_1  and  C_2
REMARK    2  A    between atoms: C_6  and  C_8
REMARK    3  A    between atoms: C_9  and  C_10
REMARK    4  A    between atoms: C_9  and  C_12
REMARK    5  A    between atoms: C_12  and  C_14
REMARK    6  A    between atoms: C_22  and  C_24
REMARK                            x       y       z     vdW  Elec       q    Type
REMARK                         _______ _______ _______ _____ _____    ______ ____
ROOT
ATOM      1  C   UNL     1       2.308  -3.384   3.962  0.00  0.00    +0.202 C 
ATOM      2  O   UNL     1       1.710  -4.429   4.150  0.00  0.00    -0.286 OA
ENDROOT
BRANCH   1   3
ATOM      3  C   UNL     1       3.667  -3.214   4.477  0.00  0.00    +0.031 C 
ATOM      4  C   UNL     1       4.850  -3.437   3.800  0.00  0.00    +0.007 A 
ATOM      5  C   UNL     1       5.138  -3.869   2.482  0.00  0.00    +0.010 A 
ATOM      6  C   UNL     1       6.419  -4.003   2.074  0.00  0.00    +0.001 A 
ATOM      7  C   UNL     1       7.510  -3.728   2.914  0.00  0.00    +0.002 A 
ATOM      8  C   UNL     1       7.343  -3.309   4.188  0.00  0.00    +0.026 A 
ATOM      9  C   UNL     1       5.979  -3.136   4.712  0.00  0.00    +0.043 A 
ATOM     10  N   UNL     1       5.536  -2.753   5.877  0.00  0.00    -0.377 N 
ATOM     11  C   UNL     1       4.070  -2.753   5.860  0.00  0.00    +0.111 C 
ATOM     12  C   UNL     1       3.533  -3.721   6.916  0.00  0.00    +0.035 C 
ATOM     13  H   UNL     1       6.089  -2.505   6.634  0.00  0.00    +0.160 HD
ENDBRANCH   1   3
BRANCH   1  15
ATOM     14  C   UNL     1       0.422  -2.490   2.639  0.00  0.00    +0.068 C 
ATOM     15  C   UNL     1       1.662  -2.293   3.216  0.00  0.00    +0.102 C 
BRANCH  14  20
ATOM     16  C   UNL     1      -0.421   1.954   0.929  0.00  0.00    +0.052 C 
ATOM     17  C   UNL     1      -0.304   0.452   0.663  0.00  0.00    +0.174 C 
ATOM     18  C   UNL     1      -1.699  -0.219   0.667  0.00  0.00    +0.075 C 
ATOM     19  C   UNL     1      -1.403  -1.552   1.333  0.00  0.00    +0.022 C 
ATOM     20  C   UNL     1      -0.200  -1.439   1.921  0.00  0.00    +0.118 C 
ATOM     21  O   UNL     1       0.361  -0.213   1.754  0.00  0.00    -0.489 OA
ENDBRANCH  14  20
BRANCH  15  22
ATOM     22  C   UNL     1       2.319  -1.027   3.088  0.00  0.00    +0.103 C 
ATOM     23  N   UNL     1       2.840  -0.023   2.986  0.00  0.00    -0.191 NA
ENDBRANCH  15  22
ENDBRANCH   1  15
TORSDOF 4
