REMARK  Name = ZINC64881448
REMARK  7 active torsions:
REMARK  status: ('A' for Active; 'I' for Inactive)
REMARK    1  A    between atoms: C_1  and  C_2
REMARK    2  A    between atoms: C_2  and  O_3
REMARK    3  A    between atoms: O_3  and  C_4
REMARK    4  A    between atoms: C_7  and  N_14
REMARK    5  A    between atoms: C_8  and  C_10
REMARK    6  A    between atoms: C_15  and  C_17
REMARK    7  A    between atoms: C_22  and  N_23
REMARK                            x       y       z     vdW  Elec       q    Type
REMARK                         _______ _______ _______ _____ _____    ______ ____
ROOT
ATOM      1  N   UNL     1       1.042  -5.934  -1.759  0.00  0.00    -0.281 N 
ATOM      2  C   UNL     1       1.232  -6.748  -0.702  0.00  0.00    +0.250 C 
ATOM      3  O   UNL     1       1.203  -6.297   0.426  0.00  0.00    -0.270 OA
ATOM      4  H   UNL     1       1.004  -6.303  -2.655  0.00  0.00    +0.155 HD
ENDROOT
BRANCH   2   5
ATOM      5  C   UNL     1       1.477  -8.190  -0.915  0.00  0.00    +0.067 A 
ATOM      6  C   UNL     1       0.570  -8.953  -1.655  0.00  0.00    +0.017 A 
ATOM      7  C   UNL     1       0.804 -10.297  -1.850  0.00  0.00    +0.021 A 
ATOM      8  C   UNL     1       1.934 -10.892  -1.315  0.00  0.00    +0.043 A 
ATOM      9  C   UNL     1       2.837 -10.141  -0.580  0.00  0.00    +0.053 A 
ATOM     10  C   UNL     1       2.617  -8.793  -0.383  0.00  0.00    +0.140 A 
ATOM     11 CL   UNL     1       2.221 -12.586  -1.565  0.00  0.00    -0.083 Cl
BRANCH  10  12
ATOM     12  N   UNL     1       3.586  -7.991   0.397  0.00  0.00    +0.057 N 
ATOM     13  O   UNL     1       4.509  -8.534   0.957  0.00  0.00    -0.126 OA
ATOM     14  O   UNL     1       3.454  -6.791   0.473  0.00  0.00    -0.126 OA
ENDBRANCH  10  12
ENDBRANCH   2   5
BRANCH   1  18
ATOM     15  C   UNL     1       0.614  -1.828  -1.175  0.00  0.00    +0.121 A 
ATOM     16  C   UNL     1       0.113  -2.718  -0.236  0.00  0.00    +0.047 A 
ATOM     17  C   UNL     1       0.254  -4.077  -0.429  0.00  0.00    +0.027 A 
ATOM     18  C   UNL     1       0.898  -4.554  -1.563  0.00  0.00    +0.046 A 
ATOM     19  C   UNL     1       1.399  -3.663  -2.502  0.00  0.00    +0.079 A 
ATOM     20  C   UNL     1       1.252  -2.304  -2.311  0.00  0.00    +0.059 A 
BRANCH  19  21
ATOM     21  C   UNL     1       2.098  -4.180  -3.733  0.00  0.00    +0.419 C 
ATOM     22  F   UNL     1       2.511  -3.101  -4.523  0.00  0.00    -0.166 F 
ATOM     23  F   UNL     1       3.214  -4.934  -3.354  0.00  0.00    -0.166 F 
ATOM     24  F   UNL     1       1.219  -4.984  -4.466  0.00  0.00    -0.166 F 
ENDBRANCH  19  21
BRANCH  15  25
ATOM     25  O   UNL     1       0.474  -0.489  -0.985  0.00  0.00    -0.492 OA
BRANCH  25  27
ATOM     26  C   UNL     1      -0.254   1.459   0.247  0.00  0.00    +0.048 C 
ATOM     27  C   UNL     1      -0.193  -0.069   0.207  0.00  0.00    +0.225 C 
ENDBRANCH  25  27
ENDBRANCH  15  25
ENDBRANCH   1  18
TORSDOF 6
