REMARK  Name = ZINC41452186
REMARK  4 active torsions:
REMARK  status: ('A' for Active; 'I' for Inactive)
REMARK    1  A    between atoms: C_1  and  C_2
REMARK    2  A    between atoms: N_5  and  S_8
REMARK    3  A    between atoms: S_8  and  C_11
REMARK    4  A    between atoms: C_14  and  N_17
REMARK                            x       y       z     vdW  Elec       q    Type
REMARK                         _______ _______ _______ _____ _____    ______ ____
ROOT
ATOM      1  C   UNL     1      -0.794  -5.265   1.507  0.00  0.00    +0.106 A 
ATOM      2  C   UNL     1      -1.807  -6.182   1.297  0.00  0.00    +0.030 A 
ATOM      3  C   UNL     1      -1.514  -7.434   0.794  0.00  0.00    +0.025 A 
ATOM      4  C   UNL     1      -0.200  -7.773   0.500  0.00  0.00    +0.037 A 
ATOM      5  C   UNL     1       0.816  -6.849   0.713  0.00  0.00    +0.025 A 
ATOM      6  C   UNL     1       0.515  -5.597   1.211  0.00  0.00    +0.030 A 
ENDROOT
BRANCH   4   7
ATOM      7  N   UNL     1       0.101  -9.041  -0.008  0.00  0.00    -0.267 N 
ATOM      8  C   UNL     1       0.416 -10.117   0.929  0.00  0.00    +0.142 C 
ATOM      9  C   UNL     1       0.263 -11.473   0.237  0.00  0.00    +0.180 C 
ATOM     10  O   UNL     1       0.966 -11.433  -1.011  0.00  0.00    -0.369 OA
ATOM     11  C   UNL     1       0.359 -10.559  -1.966  0.00  0.00    +0.256 C 
ATOM     12  C   UNL     1       0.084  -9.223  -1.334  0.00  0.00    +0.246 C 
ATOM     13  O   UNL     1      -0.158  -8.276  -2.052  0.00  0.00    -0.273 OA
ENDBRANCH   4   7
BRANCH   1  14
ATOM     14  S   UNL     1      -1.172  -3.668   2.148  0.00  0.00    +0.061 S 
ATOM     15  O   UNL     1       0.015  -3.184   2.761  0.00  0.00    -0.153 OA
ATOM     16  O   UNL     1      -2.398  -3.794   2.856  0.00  0.00    -0.153 OA
BRANCH  14  21
ATOM     17  C   UNL     1      -2.507   1.182  -0.604  0.00  0.00    +0.007 C 
ATOM     18  C   UNL     1      -2.129  -0.298  -0.524  0.00  0.00    -0.012 C 
ATOM     19  C   UNL     1      -3.197  -1.055   0.269  0.00  0.00    +0.020 C 
ATOM     20  C   UNL     1      -2.834  -2.542   0.317  0.00  0.00    +0.110 C 
ATOM     21  N   UNL     1      -1.473  -2.679   0.854  0.00  0.00    -0.177 NA
ATOM     22  C   UNL     1      -0.384  -1.923   0.221  0.00  0.00    +0.110 C 
ATOM     23  C   UNL     1      -0.775  -0.442   0.174  0.00  0.00    +0.020 C 
ENDBRANCH  14  21
ENDBRANCH   1  14
TORSDOF 3
