REMARK  Name = ZINC00989055
REMARK  6 active torsions:
REMARK  status: ('A' for Active; 'I' for Inactive)
REMARK    1  A    between atoms: C_1  and  C_2
REMARK    2  A    between atoms: C_5  and  N_8
REMARK    3  A    between atoms: C_11  and  C_13
REMARK    4  A    between atoms: C_14  and  C_22
REMARK    5  A    between atoms: C_16  and  C_20
REMARK    6  A    between atoms: C_17  and  N_19
REMARK                            x       y       z     vdW  Elec       q    Type
REMARK                         _______ _______ _______ _____ _____    ______ ____
ROOT
ATOM      1  N   UNL     1       1.161   3.488   0.010  0.00  0.00    -0.200 N 
ATOM      2  C   UNL     1       2.049   4.291   0.636  0.00  0.00    +0.230 A 
ATOM      3  C   UNL     1       1.677   5.584   0.390  0.00  0.00    +0.050 A 
ATOM      4  C   UNL     1       0.532   5.561  -0.395  0.00  0.00    +0.068 A 
ATOM      5  N   UNL     1       0.217   4.309  -0.627  0.00  0.00    -0.168 NA
ATOM      6  C   UNL     1      -0.220   6.768  -0.895  0.00  0.00    +0.068 C 
ATOM      7  C   UNL     1       2.443   6.765   0.927  0.00  0.00    +0.101 C 
ATOM      8  C   UNL     1       3.425   6.262   1.956  0.00  0.00    +0.098 C 
ATOM      9  C   UNL     1       3.704   4.948   2.110  0.00  0.00    +0.200 C 
ATOM     10  O   UNL     1       3.139   3.969   1.375  0.00  0.00    -0.423 OA
ENDROOT
BRANCH   1  15
ATOM     11  C   UNL     1       1.225  -2.187  -0.021  0.00  0.00    +0.044 C 
ATOM     12  C   UNL     1       1.208  -0.680  -0.013  0.00  0.00    -0.050 A 
ATOM     13  C   UNL     1       0.002  -0.004   0.002  0.00  0.00    +0.005 A 
ATOM     14  C   UNL     1      -0.017   1.377   0.010  0.00  0.00    +0.028 A 
ATOM     15  C   UNL     1       1.177   2.086   0.002  0.00  0.00    +0.069 A 
ATOM     16  C   UNL     1       2.386   1.404  -0.013  0.00  0.00    +0.028 A 
ATOM     17  C   UNL     1       2.398   0.023  -0.020  0.00  0.00    +0.005 A 
ENDBRANCH   1  15
BRANCH   7  18
ATOM     18  C   UNL     1       3.185   7.444  -0.195  0.00  0.00    -0.034 A 
ATOM     19  C   UNL     1       4.133   6.744  -0.919  0.00  0.00    +0.006 A 
ATOM     20  C   UNL     1       4.810   7.364  -1.952  0.00  0.00    +0.020 A 
ATOM     21  C   UNL     1       4.547   8.688  -2.254  0.00  0.00    +0.041 A 
ATOM     22  C   UNL     1       3.603   9.390  -1.526  0.00  0.00    +0.020 A 
ATOM     23  C   UNL     1       2.923   8.767  -0.496  0.00  0.00    +0.006 A 
ATOM     24 CL   UNL     1       5.403   9.470  -3.547  0.00  0.00    -0.084 Cl
ENDBRANCH   7  18
BRANCH   9  25
ATOM     25  N   UNL     1       4.616   4.590   3.072  0.00  0.00    -0.328 N 
ATOM     26  H   UNL     1       5.039   5.272   3.617  0.00  0.00    +0.145 HD
ATOM     27  H   UNL     1       4.837   3.655   3.206  0.00  0.00    +0.145 HD
ENDBRANCH   9  25
BRANCH   8  28
ATOM     28  C   UNL     1       4.086   7.211   2.800  0.00  0.00    +0.101 C 
ATOM     29  N   UNL     1       4.610   7.964   3.470  0.00  0.00    -0.191 NA
ENDBRANCH   8  28
TORSDOF 4
