REMARK  Name = ZINC15835821
REMARK  4 active torsions:
REMARK  status: ('A' for Active; 'I' for Inactive)
REMARK    1  A    between atoms: C_1  and  C_2
REMARK    2  A    between atoms: C_7  and  C_8
REMARK    3  A    between atoms: C_11  and  C_13
REMARK    4  A    between atoms: N_14  and  N_15
REMARK                            x       y       z     vdW  Elec       q    Type
REMARK                         _______ _______ _______ _____ _____    ______ ____
ROOT
ATOM      1  C   UNL     1       1.029   6.221  -4.191  0.00  0.00    +0.177 C 
ATOM      2  N   UNL     1       1.818   5.418  -3.537  0.00  0.00    -0.175 NA
ENDROOT
BRANCH   2   3
ATOM      3  N   UNL     1       1.287   4.522  -2.603  0.00  0.00    -0.127 N 
ATOM      4  C   UNL     1       2.051   3.646  -1.875  0.00  0.00    +0.246 C 
ATOM      5  O   UNL     1       3.251   3.659  -1.731  0.00  0.00    -0.273 OA
ATOM      6  C   UNL     1       1.059   2.670  -1.300  0.00  0.00    +0.097 C 
ATOM      7  C   UNL     1       1.282   1.935   0.000  0.00  0.00    +0.027 C 
ATOM      8  C   UNL     1      -0.013   1.073   0.008  0.00  0.00    -0.026 C 
ATOM      9  C   UNL     1      -1.125   1.793   0.040  0.00  0.00    -0.026 C 
ATOM     10  C   UNL     1      -1.006   3.335   0.021  0.00  0.00    +0.027 C 
ATOM     11  C   UNL     1      -0.045   3.715  -1.033  0.00  0.00    +0.097 C 
ATOM     12  C   UNL     1      -0.054   4.470  -2.285  0.00  0.00    +0.246 C 
ATOM     13  O   UNL     1      -0.998   4.926  -2.881  0.00  0.00    -0.273 OA
ATOM     14  C   UNL     1      -0.191   3.551   1.339  0.00  0.00    +0.001 C 
ATOM     15  C   UNL     1       1.131   2.733   1.300  0.00  0.00    +0.001 C 
ATOM     16  C   UNL     1       1.140   4.245   1.379  0.00  0.00    +0.009 C 
ENDBRANCH   2   3
BRANCH   1  20
ATOM     17  C   UNL     1       3.026   8.249  -6.420  0.00  0.00    +0.136 A 
ATOM     18  C   UNL     1       1.793   8.748  -6.719  0.00  0.00    +0.050 A 
ATOM     19  C   UNL     1       0.867   8.054  -5.929  0.00  0.00    +0.051 A 
ATOM     20  C   UNL     1       1.585   7.159  -5.168  0.00  0.00    +0.148 A 
ATOM     21  O   UNL     1       2.889   7.292  -5.484  0.00  0.00    -0.454 OA
BRANCH  17  28
ATOM     22  C   UNL     1       5.255   8.940  -4.710  0.00  0.00    +0.044 C 
ATOM     23  C   UNL     1       5.384   9.023  -6.209  0.00  0.00    -0.040 A 
ATOM     24  C   UNL     1       6.574   9.425  -6.779  0.00  0.00    +0.005 A 
ATOM     25  C   UNL     1       6.693   9.508  -8.155  0.00  0.00    +0.020 A 
ATOM     26  C   UNL     1       5.621   9.182  -8.970  0.00  0.00    +0.042 A 
ATOM     27  C   UNL     1       4.426   8.773  -8.412  0.00  0.00    +0.031 A 
ATOM     28  C   UNL     1       4.301   8.687  -7.024  0.00  0.00    +0.022 A 
ATOM     29 CL   UNL     1       5.780   9.290 -10.695  0.00  0.00    -0.084 Cl
ENDBRANCH  17  28
ENDBRANCH   1  20
TORSDOF 3
