REMARK  Name = ZINC41649394
REMARK  6 active torsions:
REMARK  status: ('A' for Active; 'I' for Inactive)
REMARK    1  A    between atoms: C_1  and  C_2
REMARK    2  A    between atoms: C_4  and  C_9
REMARK    3  A    between atoms: C_9  and  S_10
REMARK    4  A    between atoms: S_10  and  C_11
REMARK    5  A    between atoms: C_14  and  C_17
REMARK    6  A    between atoms: N_15  and  C_16
REMARK                            x       y       z     vdW  Elec       q    Type
REMARK                         _______ _______ _______ _____ _____    ______ ____
ROOT
ATOM      1  C   UNL     1      -1.863  -1.722  -6.223  0.00  0.00    +0.192 A 
ATOM      2  N   UNL     1      -3.121  -2.091  -6.125  0.00  0.00    -0.122 NA
ATOM      3  N   UNL     1      -3.369  -3.038  -6.957  0.00  0.00    -0.128 NA
ATOM      4  C   UNL     1      -2.286  -3.332  -7.638  0.00  0.00    +0.165 A 
ATOM      5  N   UNL     1      -1.289  -2.494  -7.193  0.00  0.00    -0.305 N 
ATOM      6  C   UNL     1       0.098  -2.443  -7.660  0.00  0.00    +0.153 C 
ENDROOT
BRANCH   4   7
ATOM      7  C   UNL     1      -2.162  -4.364  -8.689  0.00  0.00    +0.019 A 
ATOM      8  C   UNL     1      -0.902  -4.835  -9.063  0.00  0.00    +0.012 A 
ATOM      9  C   UNL     1      -0.792  -5.799 -10.044  0.00  0.00    +0.016 A 
ATOM     10  C   UNL     1      -1.929  -6.298 -10.658  0.00  0.00    +0.018 A 
ATOM     11  C   UNL     1      -3.181  -5.834 -10.292  0.00  0.00    +0.016 A 
ATOM     12  C   UNL     1      -3.304  -4.876  -9.307  0.00  0.00    +0.012 A 
ATOM     13 BR   UNL     1      -1.770  -7.617 -12.003  0.00  0.00    -0.050 Br
ENDBRANCH   4   7
BRANCH   1  14
ATOM     14  S   UNL     1      -1.067  -0.461  -5.284  0.00  0.00    -0.080 S 
BRANCH  14  15
ATOM     15  C   UNL     1      -2.373   0.161  -4.189  0.00  0.00    +0.133 C 
BRANCH  15  19
ATOM     16  C   UNL     1       0.376   1.494  -0.377  0.00  0.00    +0.086 C 
ATOM     17  C   UNL     1      -0.521   1.889  -1.522  0.00  0.00    +0.107 A 
ATOM     18  N   UNL     1      -1.018   0.960  -2.294  0.00  0.00    -0.238 NA
ATOM     19  C   UNL     1      -1.818   1.259  -3.320  0.00  0.00    +0.059 A 
ATOM     20  C   UNL     1      -2.132   2.559  -3.580  0.00  0.00    +0.094 A 
ATOM     21  C   UNL     1      -1.596   3.562  -2.747  0.00  0.00    +0.252 A 
ATOM     22  N   UNL     1      -0.797   3.193  -1.722  0.00  0.00    -0.311 N 
ATOM     23  O   UNL     1      -1.851   4.739  -2.944  0.00  0.00    -0.268 OA
ATOM     24  H   UNL     1      -0.420   3.865  -1.134  0.00  0.00    +0.170 HD
ENDBRANCH  15  19
ENDBRANCH  14  15
ENDBRANCH   1  14
TORSDOF 4
