REMARK  Name = ZINC23646055
REMARK  9 active torsions:
REMARK  status: ('A' for Active; 'I' for Inactive)
REMARK    1  A    between atoms: C_1  and  C_2
REMARK    2  A    between atoms: C_12  and  C_14
REMARK    3  A    between atoms: C_14  and  C_16
REMARK    4  A    between atoms: C_14  and  S_17
REMARK    5  A    between atoms: S_17  and  C_18
REMARK    6  A    between atoms: C_22  and  S_27
REMARK    7  A    between atoms: S_27  and  N_30
REMARK    8  A    between atoms: N_30  and  C_31
REMARK    9  A    between atoms: N_30  and  C_32
REMARK                            x       y       z     vdW  Elec       q    Type
REMARK                         _______ _______ _______ _____ _____    ______ ____
ROOT
ATOM      1  S   UNL     1      -3.716  -1.398  -0.323  0.00  0.00    -0.055 S 
ENDROOT
BRANCH   1   2
ATOM      2  C   UNL     1      -5.164  -0.399  -0.231  0.00  0.00    +0.259 A 
ATOM      3  N   UNL     1      -6.380  -0.814  -0.484  0.00  0.00    -0.203 NA
ATOM      4  C   UNL     1      -7.241   0.226  -0.310  0.00  0.00    +0.112 A 
ATOM      5  C   UNL     1      -8.624   0.362  -0.434  0.00  0.00    +0.060 A 
ATOM      6  C   UNL     1      -9.216   1.582  -0.188  0.00  0.00    +0.108 A 
ATOM      7  C   UNL     1      -8.444   2.673   0.183  0.00  0.00    +0.032 A 
ATOM      8  C   UNL     1      -7.075   2.551   0.310  0.00  0.00    +0.050 A 
ATOM      9  C   UNL     1      -6.465   1.332   0.066  0.00  0.00    +0.156 A 
ATOM     10  O   UNL     1      -5.182   0.904   0.103  0.00  0.00    -0.431 OA
BRANCH   6  11
ATOM     11  S   UNL     1     -10.962   1.757  -0.345  0.00  0.00    +0.060 S 
ATOM     12  O   UNL     1     -11.517   0.460  -0.172  0.00  0.00    -0.153 OA
ATOM     13  O   UNL     1     -11.335   2.860   0.469  0.00  0.00    -0.153 OA
BRANCH  11  14
ATOM     14  N   UNL     1     -11.271   2.199  -1.911  0.00  0.00    -0.183 NA
ATOM     15  C   UNL     1     -11.500   1.171  -2.930  0.00  0.00    +0.131 C 
ATOM     16  C   UNL     1     -11.315   3.616  -2.277  0.00  0.00    +0.131 C 
ENDBRANCH  11  14
ENDBRANCH   6  11
ENDBRANCH   1   2
BRANCH   1  17
ATOM     17  C   UNL     1      -2.462  -0.177   0.138  0.00  0.00    +0.139 C 
ATOM     18  C   UNL     1      -2.688   0.265   1.585  0.00  0.00    +0.029 C 
BRANCH  17  29
ATOM     19  C   UNL     1       1.638  -1.244  -1.317  0.00  0.00    +0.029 C 
ATOM     20  C   UNL     1       1.386  -0.493  -0.008  0.00  0.00    +0.083 C 
ATOM     21  C   UNL     1       2.260   0.770   0.059  0.00  0.00    +0.059 C 
ATOM     22  C   UNL     1       1.272   1.912   0.145  0.00  0.00    -0.024 A 
ATOM     23  C   UNL     1       1.469   3.277   0.229  0.00  0.00    +0.005 A 
ATOM     24  C   UNL     1       0.386   4.133   0.298  0.00  0.00    +0.000 A 
ATOM     25  C   UNL     1      -0.898   3.619   0.284  0.00  0.00    +0.002 A 
ATOM     26  C   UNL     1      -1.100   2.258   0.205  0.00  0.00    +0.024 A 
ATOM     27  C   UNL     1      -0.011   1.388   0.130  0.00  0.00    +0.040 A 
ATOM     28  N   UNL     1       0.004  -0.008   0.042  0.00  0.00    -0.267 N 
ATOM     29  C   UNL     1      -1.092  -0.792   0.008  0.00  0.00    +0.233 C 
ATOM     30  O   UNL     1      -0.975  -1.991  -0.127  0.00  0.00    -0.274 OA
ENDBRANCH  17  29
ENDBRANCH   1  17
TORSDOF 5
