REMARK  Name = ZINC19894022
REMARK  4 active torsions:
REMARK  status: ('A' for Active; 'I' for Inactive)
REMARK    1  A    between atoms: C_7  and  C_23
REMARK    2  A    between atoms: N_9  and  C_12
REMARK    3  A    between atoms: C_12  and  C_13
REMARK    4  A    between atoms: N_15  and  N_16
REMARK                            x       y       z     vdW  Elec       q    Type
REMARK                         _______ _______ _______ _____ _____    ______ ____
ROOT
ATOM      1  C   UNL     1      -2.054  -0.047   1.546  0.00  0.00    +0.001 A 
ATOM      2  C   UNL     1      -2.108   1.340   1.488  0.00  0.00    +0.001 A 
ATOM      3  C   UNL     1      -1.057   2.063   0.969  0.00  0.00    +0.014 A 
ATOM      4  C   UNL     1       0.067   1.392   0.488  0.00  0.00    +0.050 A 
ATOM      5  C   UNL     1       0.123  -0.017   0.548  0.00  0.00    +0.015 A 
ATOM      6  C   UNL     1      -0.951  -0.728   1.082  0.00  0.00    +0.011 A 
ATOM      7  C   UNL     1       1.324  -0.695   0.039  0.00  0.00    +0.099 A 
ATOM      8  N   UNL     1       2.310   0.010  -0.455  0.00  0.00    -0.167 NA
ATOM      9  N   UNL     1       2.275   1.403  -0.523  0.00  0.00    -0.219 N 
ATOM     10  C   UNL     1       1.215   2.111  -0.080  0.00  0.00    +0.275 A 
ATOM     11  O   UNL     1       1.210   3.327  -0.152  0.00  0.00    -0.266 OA
ENDROOT
BRANCH   7  12
ATOM     12  C   UNL     1       1.418  -2.173   0.084  0.00  0.00    +0.003 A 
ATOM     13  C   UNL     1       0.962  -2.869   1.203  0.00  0.00    +0.011 A 
ATOM     14  C   UNL     1       1.048  -4.246   1.238  0.00  0.00    +0.020 A 
ATOM     15  C   UNL     1       1.595  -4.935   0.169  0.00  0.00    +0.041 A 
ATOM     16  C   UNL     1       2.054  -4.249  -0.942  0.00  0.00    +0.020 A 
ATOM     17  C   UNL     1       1.968  -2.873  -0.990  0.00  0.00    +0.011 A 
ATOM     18 CL   UNL     1       1.706  -6.667   0.223  0.00  0.00    -0.084 Cl
ENDBRANCH   7  12
BRANCH   9  19
ATOM     19  C   UNL     1       3.421   2.117  -1.091  0.00  0.00    +0.244 C 
BRANCH  19  20
ATOM     20  C   UNL     1       4.405   2.439   0.004  0.00  0.00    +0.254 C 
ATOM     21  O   UNL     1       4.171   2.106   1.147  0.00  0.00    -0.272 OA
ATOM     22  N   UNL     1       5.544   3.099  -0.286  0.00  0.00    -0.206 N 
ATOM     23  H   UNL     1       5.756   3.401  -1.322  0.00  0.00    +0.177 HD
BRANCH  22  24
ATOM     24  N   UNL     1       6.459   3.398   0.732  0.00  0.00    -0.189 NA
ATOM     25  C   UNL     1       7.490   4.113   0.476  0.00  0.00    +0.037 C 
ATOM     26  C   UNL     1       7.673   4.752  -0.882  0.00  0.00    +0.052 C 
ATOM     27  C   UNL     1       7.966   6.246  -0.678  0.00  0.00    +0.006 C 
ATOM     28  C   UNL     1       9.165   6.403   0.259  0.00  0.00    +0.001 C 
ATOM     29  C   UNL     1       8.822   5.840   1.639  0.00  0.00    +0.006 C 
ATOM     30  C   UNL     1       8.559   4.335   1.523  0.00  0.00    +0.052 C 
ENDBRANCH  22  24
ENDBRANCH  19  20
ENDBRANCH   9  19
TORSDOF 4
