REMARK  Name = ZINC39855473
REMARK  7 active torsions:
REMARK  status: ('A' for Active; 'I' for Inactive)
REMARK    1  A    between atoms: C_1  and  C_2
REMARK    2  A    between atoms: C_7  and  N_8
REMARK    3  A    between atoms: C_9  and  C_11
REMARK    4  A    between atoms: C_12  and  C_24
REMARK    5  A    between atoms: C_17  and  C_22
REMARK    6  A    between atoms: C_17  and  C_23
REMARK    7  A    between atoms: C_19  and  O_21
REMARK                            x       y       z     vdW  Elec       q    Type
REMARK                         _______ _______ _______ _____ _____    ______ ____
ROOT
ATOM      1  C   UNL     1      -0.165   0.033   4.846  0.00  0.00    +0.193 A 
ATOM      2  C   UNL     1      -0.248  -0.530   6.090  0.00  0.00    +0.006 A 
ATOM      3  C   UNL     1      -0.336   0.526   7.000  0.00  0.00    +0.025 A 
ATOM      4  C   UNL     1      -0.303   1.679   6.287  0.00  0.00    +0.112 A 
ATOM      5  O   UNL     1      -0.193   1.376   4.991  0.00  0.00    -0.454 OA
ATOM      6  C   UNL     1      -0.379   3.053   6.909  0.00  0.00    +0.081 C 
ATOM      7  C   UNL     1      -0.906   2.909   8.341  0.00  0.00    -0.025 C 
ATOM      8  C   UNL     1      -0.102   1.834   9.077  0.00  0.00    +0.043 C 
ATOM      9  C   UNL     1      -0.446   0.455   8.501  0.00  0.00    +0.149 C 
ATOM     10  C   UNL     1      -0.763   4.244   9.074  0.00  0.00    +0.011 C 
ATOM     11  C   UNL     1      -2.381   2.504   8.303  0.00  0.00    +0.011 C 
ATOM     12  C   UNL     1      -0.247  -2.002   6.415  0.00  0.00    +0.048 C 
ENDROOT
BRANCH   1  14
ATOM     13  N   UNL     1       0.025  -0.015   2.417  0.00  0.00    -0.279 N 
ATOM     14  C   UNL     1      -0.056  -0.694   3.578  0.00  0.00    +0.284 C 
ATOM     15  O   UNL     1      -0.040  -1.911   3.573  0.00  0.00    -0.266 OA
ATOM     16  H   UNL     1       0.078   0.954   2.424  0.00  0.00    +0.155 HD
BRANCH  13  23
ATOM     17  C   UNL     1      -1.267   1.182   0.182  0.00  0.00    +0.046 C 
ATOM     18  C   UNL     1      -0.585  -0.158   0.085  0.00  0.00    -0.028 A 
ATOM     19  C   UNL     1      -0.571  -0.841  -1.116  0.00  0.00    +0.025 A 
ATOM     20  C   UNL     1       0.055  -2.071  -1.206  0.00  0.00    +0.041 A 
ATOM     21  C   UNL     1       0.667  -2.622  -0.094  0.00  0.00    +0.022 A 
ATOM     22  C   UNL     1       0.655  -1.945   1.109  0.00  0.00    +0.025 A 
ATOM     23  C   UNL     1       0.033  -0.706   1.201  0.00  0.00    +0.037 A 
ATOM     24 CL   UNL     1       0.071  -2.927  -2.717  0.00  0.00    -0.084 Cl
ENDBRANCH  13  23
ENDBRANCH   1  14
BRANCH   9  25
ATOM     25  O   UNL     1       0.470  -0.520   9.005  0.00  0.00    -0.387 OA
ATOM     26  H   UNL     1       0.319  -1.413   8.666  0.00  0.00    +0.210 HD
ENDBRANCH   9  25
TORSDOF 3
