REMARK  Name = ZINC29498399
REMARK  4 active torsions:
REMARK  status: ('A' for Active; 'I' for Inactive)
REMARK    1  A    between atoms: C_1  and  C_2
REMARK    2  A    between atoms: N_5  and  C_11
REMARK    3  A    between atoms: C_7  and  C_10
REMARK    4  A    between atoms: C_11  and  N_12
REMARK                            x       y       z     vdW  Elec       q    Type
REMARK                         _______ _______ _______ _____ _____    ______ ____
ROOT
ATOM      1  N   UNL     1      -2.553   1.338   0.034  0.00  0.00    -0.261 N 
ATOM      2  C   UNL     1      -1.221   1.754   0.017  0.00  0.00    +0.092 A 
ATOM      3  C   UNL     1      -0.013   1.076   0.008  0.00  0.00    +0.031 A 
ATOM      4  C   UNL     1       1.173   1.784   0.000  0.00  0.00    +0.017 A 
ATOM      5  C   UNL     1       1.157   3.169   0.008  0.00  0.00    +0.021 A 
ATOM      6  C   UNL     1      -0.045   3.852   0.022  0.00  0.00    +0.063 A 
ATOM      7  C   UNL     1      -1.239   3.149   0.030  0.00  0.00    +0.158 A 
ATOM      8  O   UNL     1      -2.539   3.534   0.044  0.00  0.00    -0.407 OA
ATOM      9  C   UNL     1      -3.322   2.445   0.046  0.00  0.00    +0.422 A 
ATOM     10  O   UNL     1      -4.538   2.454   0.058  0.00  0.00    -0.223 OA
ATOM     11 BR   UNL     1       2.785   4.130  -0.002  0.00  0.00    -0.050 Br
ENDROOT
BRANCH   1  12
ATOM     12  C   UNL     1      -3.028  -0.048   0.030  0.00  0.00    +0.216 C 
BRANCH  12  16
ATOM     13  C   UNL     1      -2.053  -1.804  -3.716  0.00  0.00    +0.039 C 
ATOM     14  C   UNL     1      -3.214  -2.392  -2.912  0.00  0.00    +0.130 C 
ATOM     15  C   UNL     1      -3.089  -1.966  -1.447  0.00  0.00    +0.117 C 
ATOM     16  N   UNL     1      -3.200  -0.503  -1.356  0.00  0.00    -0.280 NA
ATOM     17  C   UNL     1      -4.483  -0.043  -1.906  0.00  0.00    +0.117 C 
ATOM     18  C   UNL     1      -4.594  -0.487  -3.367  0.00  0.00    +0.130 C 
ATOM     19  O   UNL     1      -4.453  -1.909  -3.439  0.00  0.00    -0.371 OA
ATOM     20  C   UNL     1      -5.961  -0.081  -3.922  0.00  0.00    +0.039 C 
ENDBRANCH  12  16
ENDBRANCH   1  12
TORSDOF 2
