REMARK  Name = ZINC15546723
REMARK  4 active torsions:
REMARK  status: ('A' for Active; 'I' for Inactive)
REMARK    1  A    between atoms: C_1  and  N_2
REMARK    2  A    between atoms: C_3  and  C_5
REMARK    3  A    between atoms: N_8  and  C_16
REMARK    4  A    between atoms: C_16  and  C_17
REMARK                            x       y       z     vdW  Elec       q    Type
REMARK                         _______ _______ _______ _____ _____    ______ ____
ROOT
ATOM      1  C   UNL     1      -0.358  -3.301  -3.739  0.00  0.00    +0.276 C 
ATOM      2  C   UNL     1       0.367  -3.238  -2.389  0.00  0.00    +0.159 C 
ATOM      3  N   UNL     1      -0.615  -2.927  -1.344  0.00  0.00    -0.319 N 
ATOM      4  C   UNL     1      -1.732  -3.765  -1.404  0.00  0.00    +0.072 A 
ATOM      5  C   UNL     1      -2.532  -3.893  -0.273  0.00  0.00    +0.027 A 
ATOM      6  C   UNL     1      -3.645  -4.709  -0.296  0.00  0.00    +0.002 A 
ATOM      7  C   UNL     1      -3.972  -5.404  -1.446  0.00  0.00    +0.004 A 
ATOM      8  C   UNL     1      -3.182  -5.285  -2.574  0.00  0.00    +0.047 A 
ATOM      9  C   UNL     1      -2.061  -4.468  -2.558  0.00  0.00    +0.143 A 
ATOM     10  O   UNL     1      -1.299  -4.379  -3.683  0.00  0.00    -0.476 OA
ENDROOT
BRANCH   1  13
ATOM     11  C   UNL     1       2.526  -2.856  -6.216  0.00  0.00    +0.128 C 
ATOM     12  N   UNL     1       1.558  -2.614  -5.144  0.00  0.00    -0.315 N 
ATOM     13  C   UNL     1       0.638  -3.551  -4.842  0.00  0.00    +0.255 C 
ATOM     14  O   UNL     1       0.611  -4.595  -5.458  0.00  0.00    -0.272 OA
ATOM     15  H   UNL     1       1.579  -1.778  -4.651  0.00  0.00    +0.148 HD
ENDBRANCH   1  13
BRANCH   3  16
ATOM     16  C   UNL     1       0.003  -2.968  -0.011  0.00  0.00    +0.141 C 
BRANCH  16  17
ATOM     17  C   UNL     1       1.262  -2.141  -0.016  0.00  0.00    -0.013 A 
ATOM     18  C   UNL     1       2.484  -2.731  -0.027  0.00  0.00    +0.097 A 
ATOM     19  C   UNL     1       3.649  -1.933  -0.030  0.00  0.00    +0.338 A 
ATOM     20  O   UNL     1       4.740  -2.475  -0.039  0.00  0.00    -0.245 OA
ATOM     21  O   UNL     1       3.585  -0.593  -0.023  0.00  0.00    -0.422 OA
ATOM     22  C   UNL     1       2.401   0.057  -0.013  0.00  0.00    +0.140 A 
ATOM     23  C   UNL     1       1.201  -0.676  -0.008  0.00  0.00    +0.023 A 
ATOM     24  C   UNL     1      -0.023  -0.004   0.004  0.00  0.00    +0.015 A 
ATOM     25  C   UNL     1      -0.053   1.365   0.012  0.00  0.00    -0.043 A 
ATOM     26  C   UNL     1       1.129   2.092   0.007  0.00  0.00    -0.041 A 
ATOM     27  C   UNL     1       2.350   1.443  -0.005  0.00  0.00    +0.051 A 
ATOM     28  C   UNL     1       0.815   3.574   0.019  0.00  0.00    +0.036 C 
ATOM     29  C   UNL     1      -0.656   3.672   0.473  0.00  0.00    +0.009 C 
ATOM     30  C   UNL     1      -1.234   2.313   0.032  0.00  0.00    +0.036 C 
ENDBRANCH  16  17
ENDBRANCH   3  16
TORSDOF 3
