REMARK  Name = ZINC14740864
REMARK  11 active torsions:
REMARK  status: ('A' for Active; 'I' for Inactive)
REMARK    1  A    between atoms: C_1  and  C_2
REMARK    2  A    between atoms: C_3  and  C_8
REMARK    3  A    between atoms: N_6  and  C_7
REMARK    4  A    between atoms: C_8  and  N_67
REMARK    5  A    between atoms: N_16  and  C_28
REMARK    6  A    between atoms: N_19  and  C_20
REMARK    7  A    between atoms: C_20  and  C_21
REMARK    8  A    between atoms: C_21  and  C_22
REMARK    9  A    between atoms: C_28  and  C_29
REMARK   10  A    between atoms: C_29  and  C_30
REMARK   11  A    between atoms: C_29  and  C_31
REMARK                            x       y       z     vdW  Elec       q    Type
REMARK                         _______ _______ _______ _____ _____    ______ ____
ROOT
ATOM      1  C   UNL     1      -3.260   4.052   4.058  0.00  0.00    -0.076 C 
ATOM      2  C   UNL     1      -2.324   3.991   2.848  0.00  0.00    +0.017 C 
ATOM      3  C   UNL     1      -1.386   2.797   2.995  0.00  0.00    +0.112 C 
ATOM      4  C   UNL     1      -0.616   2.882   4.309  0.00  0.00    +0.017 C 
ATOM      5  C   UNL     1      -1.608   2.978   5.472  0.00  0.00    -0.076 C 
ATOM      6  C   UNL     1      -0.428   2.725   1.829  0.00  0.00    +0.247 C 
ATOM      7  O   UNL     1       0.396   3.553   1.504  0.00  0.00    -0.273 OA
ATOM      8  N   UNL     1      -0.684   1.546   1.225  0.00  0.00    -0.224 N 
ATOM      9  C   UNL     1      -1.658   0.873   1.851  0.00  0.00    +0.312 C 
ATOM     10  O   UNL     1      -2.061  -0.217   1.496  0.00  0.00    -0.252 OA
ATOM     11  N   UNL     1      -2.138   1.538   2.918  0.00  0.00    -0.271 N 
ATOM     12  N   UNL     1      -2.447   4.182   5.286  0.00  0.00    +0.383 N 
ATOM     13  H   UNL     1      -1.836   5.003   5.195  0.00  0.00    -0.081 HD
ENDROOT
BRANCH  12  14
ATOM     14  C   UNL     1      -3.328   4.369   6.457  0.00  0.00    -0.040 C 
BRANCH  14  17
ATOM     15  C   UNL     1      -2.111   7.178   7.099  0.00  0.00    +0.065 C 
ATOM     16  C   UNL     1      -1.952   5.931   7.930  0.00  0.00    +0.037 A 
ATOM     17  C   UNL     1      -2.478   4.716   7.653  0.00  0.00    -0.024 A 
ATOM     18  C   UNL     1      -2.099   3.840   8.675  0.00  0.00    +0.136 A 
ATOM     19  N   UNL     1      -1.363   4.503   9.530  0.00  0.00    -0.179 NA
ATOM     20  N   UNL     1      -1.259   5.826   9.083  0.00  0.00    -0.271 N 
ATOM     21  C   UNL     1      -0.528   6.906   9.751  0.00  0.00    +0.172 C 
ENDBRANCH  14  17
ENDBRANCH  12  14
BRANCH  11  22
ATOM     22  C   UNL     1      -3.201   1.094   3.824  0.00  0.00    +0.115 C 
BRANCH  22  23
ATOM     23  C   UNL     1      -4.528   1.040   3.066  0.00  0.00    +0.054 C 
BRANCH  23  24
ATOM     24  C   UNL     1      -5.641   0.701   4.024  0.00  0.00    -0.046 A 
ATOM     25  C   UNL     1      -5.985  -0.619   4.245  0.00  0.00    +0.004 A 
ATOM     26  C   UNL     1      -7.002  -0.930   5.128  0.00  0.00    +0.000 A 
ATOM     27  C   UNL     1      -7.682   0.080   5.782  0.00  0.00    +0.000 A 
ATOM     28  C   UNL     1      -7.342   1.401   5.556  0.00  0.00    +0.000 A 
ATOM     29  C   UNL     1      -6.321   1.712   4.678  0.00  0.00    +0.004 A 
ENDBRANCH  23  24
ENDBRANCH  22  23
ENDBRANCH  11  22
BRANCH   8  30
ATOM     30  C   UNL     1       0.019   1.061   0.035  0.00  0.00    +0.121 C 
BRANCH  30  31
ATOM     31  C   UNL     1      -0.719   1.531  -1.221  0.00  0.00    +0.001 C 
ATOM     32  C   UNL     1      -0.656   3.057  -1.308  0.00  0.00    +0.009 C 
ATOM     33  C   UNL     1      -0.058   0.921  -2.459  0.00  0.00    +0.009 C 
ENDBRANCH  30  31
ENDBRANCH   8  30
TORSDOF 7
