REMARK  Name = ZINC66890336
REMARK  4 active torsions:
REMARK  status: ('A' for Active; 'I' for Inactive)
REMARK    1  A    between atoms: C_1  and  C_2
REMARK    2  A    between atoms: N_11  and  C_12
REMARK    3  A    between atoms: C_12  and  C_13
REMARK    4  A    between atoms: C_16  and  N_19
REMARK                            x       y       z     vdW  Elec       q    Type
REMARK                         _______ _______ _______ _____ _____    ______ ____
ROOT
ATOM      1  C   UNL     1       2.574   0.826   4.070  0.00  0.00    +0.141 C 
ENDROOT
BRANCH   1  11
ATOM      2  C   UNL     1       0.015   1.527  -0.010  0.00  0.00    +0.028 C 
ATOM      3  C   UNL     1       0.016  -0.003  -0.007  0.00  0.00    +0.074 C 
ATOM      4  C   UNL     1       0.633  -0.518  -1.312  0.00  0.00    +0.022 C 
ATOM      5  C   UNL     1       0.759  -2.042  -1.244  0.00  0.00    +0.003 C 
ATOM      6  C   UNL     1       1.683  -2.428  -0.087  0.00  0.00    +0.019 C 
ATOM      7  C   UNL     1       1.079  -1.934   1.231  0.00  0.00    +0.109 C 
ATOM      8  N   UNL     1       0.817  -0.492   1.123  0.00  0.00    -0.283 N 
ATOM      9  C   UNL     1       1.304   0.365   2.042  0.00  0.00    +0.303 C 
ATOM     10  O   UNL     1       0.995   1.540   2.001  0.00  0.00    -0.253 OA
ATOM     11  N   UNL     1       2.134  -0.080   3.006  0.00  0.00    -0.295 N 
ATOM     12  H   UNL     1       2.440  -1.001   2.995  0.00  0.00    +0.151 HD
ENDBRANCH   1  11
BRANCH   1  13
ATOM     13  C   UNL     1       3.489   0.087   5.012  0.00  0.00    -0.030 A 
ATOM     14  C   UNL     1       2.964  -0.578   6.105  0.00  0.00    +0.007 A 
ATOM     15  C   UNL     1       3.800  -1.256   6.970  0.00  0.00    +0.026 A 
ATOM     16  C   UNL     1       5.169  -1.270   6.742  0.00  0.00    +0.047 A 
ATOM     17  C   UNL     1       5.694  -0.602   5.644  0.00  0.00    +0.026 A 
ATOM     18  C   UNL     1       4.852   0.070   4.779  0.00  0.00    +0.007 A 
BRANCH  16  19
ATOM     19  N   UNL     1       6.021  -1.957   7.619  0.00  0.00    -0.306 N 
ATOM     20  C   UNL     1       7.385  -2.052   7.523  0.00  0.00    +0.112 A 
ATOM     21  C   UNL     1       7.798  -2.798   8.565  0.00  0.00    +0.130 A 
ATOM     22  N   UNL     1       6.720  -3.152   9.281  0.00  0.00    -0.244 NA
ATOM     23  C   UNL     1       5.650  -2.649   8.727  0.00  0.00    +0.204 A 
ENDBRANCH  16  19
ENDBRANCH   1  13
TORSDOF 3
