REMARK  Name = ZINC15239317
REMARK  9 active torsions:
REMARK  status: ('A' for Active; 'I' for Inactive)
REMARK    1  A    between atoms: C_1  and  C_2
REMARK    2  A    between atoms: C_5  and  C_31
REMARK    3  A    between atoms: C_6  and  O_9
REMARK    4  A    between atoms: C_7  and  C_8
REMARK    5  A    between atoms: O_9  and  C_10
REMARK    6  A    between atoms: C_10  and  C_11
REMARK    7  A    between atoms: C_11  and  C_13
REMARK    8  A    between atoms: C_11  and  O_30
REMARK    9  A    between atoms: C_13  and  N_14
REMARK                            x       y       z     vdW  Elec       q    Type
REMARK                         _______ _______ _______ _____ _____    ______ ____
ROOT
ATOM      1  N   UNL     1       1.246  -0.498  -0.012  0.00  0.00    -0.221 N 
ATOM      2  C   UNL     1       2.171   0.485  -0.016  0.00  0.00    +0.251 C 
ATOM      3  O   UNL     1       3.376   0.358  -0.029  0.00  0.00    -0.272 OA
ATOM      4  C   UNL     1       1.386   1.777  -0.002  0.00  0.00    +0.144 C 
ATOM      5  C   UNL     1       1.684   2.593  -1.256  0.00  0.00    +0.081 C 
ATOM      6  C   UNL     1       3.072   3.229  -1.098  0.00  0.00    +0.232 C 
ATOM      7  O   UNL     1       3.031   4.137   0.004  0.00  0.00    -0.492 OA
ATOM      8  C   UNL     1       2.506   3.696   1.177  0.00  0.00    +0.126 A 
ATOM      9  C   UNL     1       1.704   2.568   1.236  0.00  0.00    +0.027 A 
ATOM     10  C   UNL     1       1.183   2.158   2.451  0.00  0.00    +0.010 A 
ATOM     11  C   UNL     1       1.463   2.864   3.605  0.00  0.00    +0.001 A 
ATOM     12  C   UNL     1       2.268   3.986   3.550  0.00  0.00    +0.004 A 
ATOM     13  C   UNL     1       2.788   4.403   2.341  0.00  0.00    +0.046 A 
ATOM     14  N   UNL     1      -0.016   1.343   0.009  0.00  0.00    -0.281 N 
ATOM     15  C   UNL     1       0.002  -0.004   0.002  0.00  0.00    +0.310 C 
ATOM     16  O   UNL     1      -0.999  -0.694   0.007  0.00  0.00    -0.252 OA
ATOM     17  H   UNL     1      -0.801   1.913   0.016  0.00  0.00    +0.152 HD
ENDROOT
BRANCH   1  18
ATOM     18  C   UNL     1       1.565  -1.928  -0.024  0.00  0.00    +0.152 C 
BRANCH  18  19
ATOM     19  C   UNL     1       1.661  -2.417  -1.470  0.00  0.00    +0.170 C 
BRANCH  19  20
ATOM     20  O   UNL     1       2.765  -1.779  -2.116  0.00  0.00    -0.387 OA
ATOM     21  H   UNL     1       3.619  -1.953  -1.698  0.00  0.00    +0.210 HD
ENDBRANCH  19  20
BRANCH  19  22
ATOM     22  C   UNL     1       1.870  -3.933  -1.482  0.00  0.00    +0.262 C 
BRANCH  22  23
ATOM     23  O   UNL     1       1.844  -4.407  -2.830  0.00  0.00    -0.489 OA
BRANCH  23  29
ATOM     24  C   UNL     1      -0.100  -8.864  -3.244  0.00  0.00    +0.044 C 
ATOM     25  C   UNL     1       1.094  -7.944  -3.226  0.00  0.00    -0.044 A 
ATOM     26  C   UNL     1       2.365  -8.459  -3.402  0.00  0.00    +0.004 A 
ATOM     27  C   UNL     1       3.462  -7.617  -3.387  0.00  0.00    +0.007 A 
ATOM     28  C   UNL     1       3.290  -6.259  -3.201  0.00  0.00    -0.009 A 
ATOM     29  C   UNL     1       2.016  -5.741  -3.019  0.00  0.00    +0.127 A 
ATOM     30  C   UNL     1       0.917  -6.588  -3.035  0.00  0.00    -0.006 A 
ATOM     31  C   UNL     1      -0.469  -6.028  -2.842  0.00  0.00    +0.048 C 
ATOM     32  C   UNL     1       4.485  -5.341  -3.191  0.00  0.00    +0.047 C 
ENDBRANCH  23  29
ENDBRANCH  22  23
ENDBRANCH  19  22
ENDBRANCH  18  19
ENDBRANCH   1  18
TORSDOF 6
