REMARK  Name = ZINC20445832
REMARK  3 active torsions:
REMARK  status: ('A' for Active; 'I' for Inactive)
REMARK    1  A    between atoms: C_1  and  C_2
REMARK    2  A    between atoms: C_5  and  C_23
REMARK    3  A    between atoms: C_11  and  C_20
REMARK                            x       y       z     vdW  Elec       q    Type
REMARK                         _______ _______ _______ _____ _____    ______ ____
ROOT
ATOM      1  C   UNL     1      -1.617   3.779   0.315  0.00  0.00    +0.009 C 
ATOM      2  C   UNL     1      -0.899   3.426  -0.988  0.00  0.00    +0.004 C 
ATOM      3  C   UNL     1       0.504   4.040  -0.981  0.00  0.00    +0.009 C 
ATOM      4  C   UNL     1       1.310   3.438   0.173  0.00  0.00    +0.004 C 
ATOM      5  C   UNL     1       1.361   1.917   0.015  0.00  0.00    +0.109 C 
ATOM      6  N   UNL     1      -0.005   1.378   0.015  0.00  0.00    -0.315 N 
ATOM      7  C   UNL     1      -0.784   1.905  -1.113  0.00  0.00    +0.109 C 
ATOM      8  C   UNL     1       0.008  -0.004   0.005  0.00  0.00    +0.114 A 
ATOM      9  C   UNL     1      -0.499  -0.711   1.121  0.00  0.00    +0.102 A 
ATOM     10  C   UNL     1      -0.487  -2.100   1.111  0.00  0.00    +0.028 A 
ATOM     11  C   UNL     1       0.035  -2.749  -0.021  0.00  0.00    -0.001 A 
ATOM     12  C   UNL     1       0.079  -4.152  -0.098  0.00  0.00    +0.010 A 
ATOM     13  C   UNL     1       0.590  -4.750  -1.209  0.00  0.00    +0.001 A 
ATOM     14  C   UNL     1       1.073  -3.989  -2.272  0.00  0.00    +0.002 A 
ATOM     15  C   UNL     1       1.046  -2.628  -2.231  0.00  0.00    +0.026 A 
ATOM     16  C   UNL     1       0.526  -1.973  -1.102  0.00  0.00    +0.048 A 
ATOM     17  N   UNL     1       0.486  -0.637  -1.045  0.00  0.00    -0.342 N 
ATOM     18  C   UNL     1       2.732   4.002   0.151  0.00  0.00    +0.009 C 
ATOM     19  H   UNL     1       0.868  -0.066  -1.905  0.00  0.00    +0.167 HD
ENDROOT
BRANCH   9  20
ATOM     20  C   UNL     1      -1.036   0.020   2.283  0.00  0.00    +0.390 C 
ATOM     21  O   UNL     1      -1.133   1.230   2.247  0.00  0.00    -0.240 OA
ATOM     22  O   UNL     1      -1.418  -0.655   3.385  0.00  0.00    -0.240 OA
ENDBRANCH   9  20
TORSDOF 1
