REMARK  Name = ZINC40526660
REMARK  7 active torsions:
REMARK  status: ('A' for Active; 'I' for Inactive)
REMARK    1  A    between atoms: C_1  and  C_2
REMARK    2  A    between atoms: C_7  and  C_10
REMARK    3  A    between atoms: N_13  and  C_14
REMARK    4  A    between atoms: C_16  and  O_23
REMARK    5  A    between atoms: C_19  and  O_20
REMARK    6  A    between atoms: O_20  and  C_21
REMARK    7  A    between atoms: O_23  and  C_24
REMARK                            x       y       z     vdW  Elec       q    Type
REMARK                         _______ _______ _______ _____ _____    ______ ____
ROOT
ATOM      1  C   UNL     1       0.239  -2.304   3.647  0.00  0.00    +0.039 C 
ATOM      2  C   UNL     1      -0.903  -1.956   2.689  0.00  0.00    +0.133 C 
ATOM      3  C   UNL     1      -0.590  -2.514   1.296  0.00  0.00    +0.140 C 
ATOM      4  N   UNL     1      -1.603  -2.010   0.356  0.00  0.00    -0.280 N 
ATOM      5  C   UNL     1      -1.871  -0.563   0.338  0.00  0.00    +0.140 C 
ATOM      6  C   UNL     1      -2.122  -0.100   1.778  0.00  0.00    +0.133 C 
ATOM      7  O   UNL     1      -1.042  -0.536   2.608  0.00  0.00    -0.371 OA
ATOM      8  C   UNL     1      -3.433  -0.702   2.287  0.00  0.00    +0.039 C 
ATOM      9  C   UNL     1      -2.266  -2.848  -0.465  0.00  0.00    +0.307 C 
ATOM     10  O   UNL     1      -3.164  -2.427  -1.169  0.00  0.00    -0.252 OA
ATOM     11  N   UNL     1      -1.933  -4.154  -0.507  0.00  0.00    -0.266 N 
ATOM     12  H   UNL     1      -1.262  -4.503   0.100  0.00  0.00    +0.156 HD
ENDROOT
BRANCH  11  13
ATOM     13  C   UNL     1      -2.557  -5.007  -1.428  0.00  0.00    +0.080 A 
ATOM     14  C   UNL     1      -3.223  -4.479  -2.524  0.00  0.00    +0.074 A 
ATOM     15  C   UNL     1      -3.839  -5.324  -3.433  0.00  0.00    +0.140 A 
ATOM     16  C   UNL     1      -3.790  -6.699  -3.247  0.00  0.00    +0.086 A 
ATOM     17  C   UNL     1      -3.127  -7.228  -2.155  0.00  0.00    +0.071 A 
ATOM     18  C   UNL     1      -2.505  -6.387  -1.247  0.00  0.00    +0.143 A 
ATOM     19 CL   UNL     1      -4.563  -7.756  -4.387  0.00  0.00    -0.080 Cl
BRANCH  18  20
ATOM     20  O   UNL     1      -1.848  -6.908  -0.175  0.00  0.00    -0.493 OA
ATOM     21  C   UNL     1      -1.834  -8.332  -0.052  0.00  0.00    +0.277 C 
ENDBRANCH  18  20
BRANCH  15  22
ATOM     22  O   UNL     1      -4.492  -4.807  -4.508  0.00  0.00    -0.494 OA
ATOM     23  C   UNL     1      -4.503  -3.384  -4.637  0.00  0.00    +0.277 C 
ENDBRANCH  15  22
ENDBRANCH  11  13
TORSDOF 3
