REMARK  Name = ZINC23129790
REMARK  7 active torsions:
REMARK  status: ('A' for Active; 'I' for Inactive)
REMARK    1  A    between atoms: C_1  and  C_2
REMARK    2  A    between atoms: C_5  and  C_7
REMARK    3  A    between atoms: C_8  and  C_19
REMARK    4  A    between atoms: N_10  and  C_12
REMARK    5  A    between atoms: C_19  and  N_20
REMARK    6  A    between atoms: N_20  and  C_21
REMARK    7  A    between atoms: C_21  and  C_22
REMARK                            x       y       z     vdW  Elec       q    Type
REMARK                         _______ _______ _______ _____ _____    ______ ____
ROOT
ATOM      1  C   UNL     1       3.841  -0.549  -0.060  0.00  0.00    +0.129 A 
ATOM      2  C   UNL     1       4.531   0.682  -0.057  0.00  0.00    -0.016 A 
ATOM      3  C   UNL     1       3.612   1.671  -0.048  0.00  0.00    +0.117 A 
ATOM      4  N   UNL     1       2.380   1.098  -0.045  0.00  0.00    -0.239 N 
ATOM      5  N   UNL     1       2.548  -0.293  -0.047  0.00  0.00    -0.163 NA
ENDROOT
BRANCH   4   6
ATOM      6  C   UNL     1       1.156   1.778  -0.036  0.00  0.00    +0.068 A 
ATOM      7  C   UNL     1       1.132   3.167  -0.028  0.00  0.00    +0.028 A 
ATOM      8  C   UNL     1      -0.076   3.837  -0.019  0.00  0.00    +0.005 A 
ATOM      9  C   UNL     1      -1.262   3.127  -0.017  0.00  0.00    +0.038 A 
ATOM     10  C   UNL     1      -1.243   1.742  -0.030  0.00  0.00    +0.125 A 
ATOM     11  C   UNL     1      -0.036   1.066  -0.035  0.00  0.00    +0.066 A 
ATOM     12  F   UNL     1      -2.404   1.050  -0.034  0.00  0.00    -0.205 F 
ENDBRANCH   4   6
BRANCH   1  17
ATOM     13  C   UNL     1       7.039  -4.295  -1.033  0.00  0.00    +0.086 C 
ATOM     14  C   UNL     1       5.856  -3.534  -0.493  0.00  0.00    +0.103 A 
ATOM     15  C   UNL     1       4.880  -4.045   0.281  0.00  0.00    +0.045 A 
ATOM     16  C   UNL     1       3.979  -2.997   0.558  0.00  0.00    +0.052 A 
ATOM     17  C   UNL     1       4.461  -1.891  -0.070  0.00  0.00    +0.155 A 
ATOM     18  O   UNL     1       5.597  -2.233  -0.708  0.00  0.00    -0.458 OA
ENDBRANCH   1  17
BRANCH   2  19
ATOM     19  C   UNL     1       6.027   0.861  -0.062  0.00  0.00    -0.042 C 
BRANCH  19  20
ATOM     20  N   UNL     1       6.536   0.687  -1.429  0.00  0.00    +0.385 N 
ATOM     21  H   UNL     1       6.286  -0.323  -1.788  0.00  0.00    -0.085 HD
ATOM     22  H   UNL     1       6.075   1.435  -2.090  0.00  0.00    -0.085 HD
BRANCH  20  23
ATOM     23  C   UNL     1       7.995   0.854  -1.473  0.00  0.00    -0.026 C 
BRANCH  23  24
ATOM     24  C   UNL     1       8.479   0.669  -2.888  0.00  0.00    +0.023 A 
ATOM     25  C   UNL     1       8.882  -0.542  -3.467  0.00  0.00    -0.006 A 
ATOM     26  C   UNL     1       9.263  -0.288  -4.738  0.00  0.00    +0.066 A 
ATOM     27  N   UNL     1       9.116   1.039  -4.955  0.00  0.00    -0.178 NA
ATOM     28  H   UNL     1       8.379   2.656  -3.519  0.00  0.00    +0.188 HD
ATOM     29  N   UNL     1       8.629   1.617  -3.777  0.00  0.00    -0.283 N 
ATOM     30  C   UNL     1       9.700  -1.566  -5.421  0.00  0.00    +0.058 C 
ATOM     31  C   UNL     1       9.134  -2.703  -4.545  0.00  0.00    +0.011 C 
ATOM     32  C   UNL     1       9.035  -2.016  -3.159  0.00  0.00    +0.039 C 
ENDBRANCH  23  24
ENDBRANCH  20  23
ENDBRANCH  19  20
ENDBRANCH   2  19
TORSDOF 6
