REMARK  Name = ZINC11149106
REMARK  7 active torsions:
REMARK  status: ('A' for Active; 'I' for Inactive)
REMARK    1  A    between atoms: C_1  and  C_2
REMARK    2  A    between atoms: C_6  and  N_8
REMARK    3  A    between atoms: C_9  and  C_32
REMARK    4  A    between atoms: C_12  and  S_13
REMARK    5  A    between atoms: S_13  and  C_14
REMARK    6  A    between atoms: C_14  and  C_15
REMARK    7  A    between atoms: C_25  and  C_27
REMARK                            x       y       z     vdW  Elec       q    Type
REMARK                         _______ _______ _______ _____ _____    ______ ____
ROOT
ATOM      1  C   UNL     1       2.276   4.328   1.877  0.00  0.00    +0.227 C 
ATOM      2  O   UNL     1       1.643   3.294   1.846  0.00  0.00    -0.275 OA
ATOM      3  N   UNL     1       2.027   5.298   0.975  0.00  0.00    -0.289 N 
ATOM      4  C   UNL     1       2.849   6.517   0.943  0.00  0.00    +0.114 C 
ATOM      5  C   UNL     1       3.607   6.555  -0.393  0.00  0.00    +0.062 C 
ATOM      6  C   UNL     1       2.670   6.157  -1.486  0.00  0.00    -0.003 A 
ATOM      7  C   UNL     1       1.469   5.528  -1.371  0.00  0.00    -0.012 A 
ATOM      8  C   UNL     1       0.787   5.261  -2.557  0.00  0.00    +0.013 A 
ATOM      9  C   UNL     1       1.323   5.627  -3.744  0.00  0.00    +0.046 A 
ATOM     10  S   UNL     1       2.859   6.385  -3.235  0.00  0.00    -0.101 S 
ATOM     11  C   UNL     1       0.930   5.151   0.007  0.00  0.00    +0.144 C 
ENDROOT
BRANCH  11  12
ATOM     12  C   UNL     1       0.448   3.724  -0.005  0.00  0.00    +0.015 A 
ATOM     13  C   UNL     1      -0.767   3.230   0.337  0.00  0.00    +0.013 A 
ATOM     14  C   UNL     1      -0.989   1.869   0.240  0.00  0.00    +0.008 A 
ATOM     15  C   UNL     1       0.019   1.067  -0.183  0.00  0.00    +0.045 A 
ATOM     16  S   UNL     1       1.330   2.244  -0.474  0.00  0.00    -0.099 S 
ENDBRANCH  11  12
BRANCH   1  17
ATOM     17  C   UNL     1       3.342   4.528   2.923  0.00  0.00    +0.173 C 
BRANCH  17  18
ATOM     18  S   UNL     1       3.437   3.059   3.976  0.00  0.00    -0.076 S 
BRANCH  18  23
ATOM     19  N   UNL     1       5.231   2.823   6.114  0.00  0.00    -0.274 N 
ATOM     20  C   UNL     1       6.206   3.606   6.674  0.00  0.00    +0.135 A 
ATOM     21  N   UNL     1       6.244   4.719   5.998  0.00  0.00    -0.133 NA
ATOM     22  N   UNL     1       5.373   4.694   5.054  0.00  0.00    -0.122 NA
ATOM     23  C   UNL     1       4.723   3.553   5.075  0.00  0.00    +0.197 A 
ATOM     24  C   UNL     1       7.069   3.248   7.857  0.00  0.00    +0.088 C 
BRANCH  19  30
ATOM     25  C   UNL     1       4.863  -1.991   5.173  0.00  0.00    +0.044 C 
ATOM     26  C   UNL     1       4.647  -0.810   6.084  0.00  0.00    -0.048 A 
ATOM     27  C   UNL     1       4.059  -0.991   7.322  0.00  0.00    +0.003 A 
ATOM     28  C   UNL     1       3.859   0.090   8.161  0.00  0.00    +0.002 A 
ATOM     29  C   UNL     1       4.251   1.354   7.765  0.00  0.00    +0.026 A 
ATOM     30  C   UNL     1       4.837   1.540   6.521  0.00  0.00    +0.050 A 
ATOM     31  C   UNL     1       5.036   0.453   5.681  0.00  0.00    +0.029 A 
ENDBRANCH  19  30
ENDBRANCH  18  23
ENDBRANCH  17  18
ENDBRANCH   1  17
TORSDOF 5
