REMARK  Name = ZINC14128947
REMARK  4 active torsions:
REMARK  status: ('A' for Active; 'I' for Inactive)
REMARK    1  A    between atoms: C_1  and  C_2
REMARK    2  A    between atoms: C_10  and  C_11
REMARK    3  A    between atoms: C_11  and  C_13
REMARK    4  A    between atoms: C_13  and  N_14
REMARK                            x       y       z     vdW  Elec       q    Type
REMARK                         _______ _______ _______ _____ _____    ______ ____
ROOT
ATOM      1  C   UNL     1       2.685   7.849   0.013  0.00  0.00    +0.198 C 
ENDROOT
BRANCH   1   2
ATOM      2  N   UNL     1       3.876   8.701   0.005  0.00  0.00    -0.217 N 
ATOM      3  C   UNL     1       4.482   9.148  -1.115  0.00  0.00    +0.247 C 
ATOM      4  O   UNL     1       4.159   8.930  -2.264  0.00  0.00    -0.273 OA
ATOM      5  C   UNL     1       5.647   9.976  -0.635  0.00  0.00    +0.113 C 
ATOM      6  C   UNL     1       5.532  11.426  -1.124  0.00  0.00    +0.035 C 
ATOM      7  C   UNL     1       7.001  11.851  -1.383  0.00  0.00    +0.003 C 
ATOM      8  C   UNL     1       7.638  10.560  -1.957  0.00  0.00    +0.003 C 
ATOM      9  C   UNL     1       6.976   9.420  -1.152  0.00  0.00    +0.035 C 
ATOM     10  N   UNL     1       5.570   9.903   0.826  0.00  0.00    -0.285 N 
ATOM     11  C   UNL     1       4.496   9.139   1.109  0.00  0.00    +0.310 C 
ATOM     12  O   UNL     1       4.134   8.874   2.238  0.00  0.00    -0.252 OA
ATOM     13  H   UNL     1       6.169  10.325   1.462  0.00  0.00    +0.151 HD
ENDBRANCH   1   2
BRANCH   1  14
ATOM     14  C   UNL     1       3.103   6.401   0.002  0.00  0.00    +0.188 C 
ATOM     15  O   UNL     1       4.281   6.110  -0.011  0.00  0.00    -0.290 OA
BRANCH  14  25
ATOM     16  C   UNL     1       3.691   3.450  -0.016  0.00  0.00    +0.045 C 
ATOM     17  C   UNL     1       2.299   4.027  -0.000  0.00  0.00    -0.025 A 
ATOM     18  C   UNL     1       1.183   3.173   0.007  0.00  0.00    -0.007 A 
ATOM     19  C   UNL     1       1.163   1.754   0.000  0.00  0.00    +0.009 A 
ATOM     20  C   UNL     1      -0.013   1.076   0.008  0.00  0.00    +0.001 A 
ATOM     21  C   UNL     1      -1.235   1.737   0.017  0.00  0.00    +0.001 A 
ATOM     22  C   UNL     1      -1.262   3.117   0.030  0.00  0.00    +0.015 A 
ATOM     23  C   UNL     1      -0.076   3.820   0.022  0.00  0.00    +0.020 A 
ATOM     24  S   UNL     1       0.343   5.545   0.025  0.00  0.00    -0.085 S 
ATOM     25  C   UNL     1       2.120   5.379   0.007  0.00  0.00    +0.060 A 
ENDBRANCH  14  25
ENDBRANCH   1  14
TORSDOF 3
