REMARK  Name = ZINC12693748
REMARK  7 active torsions:
REMARK  status: ('A' for Active; 'I' for Inactive)
REMARK    1  A    between atoms: C_3  and  C_9
REMARK    2  A    between atoms: N_13  and  C_17
REMARK    3  A    between atoms: C_17  and  C_18
REMARK    4  A    between atoms: C_18  and  N_19
REMARK    5  A    between atoms: C_20  and  C_22
REMARK    6  A    between atoms: C_22  and  C_23
REMARK    7  A    between atoms: C_23  and  N_24
REMARK                            x       y       z     vdW  Elec       q    Type
REMARK                         _______ _______ _______ _____ _____    ______ ____
ROOT
ATOM      1  C   UNL     1       1.583   3.323   0.004  0.00  0.00    +0.029 C 
ATOM      2  C   UNL     1       1.282   2.009   0.148  0.00  0.00    +0.080 C 
ATOM      3  C   UNL     1      -0.037   1.351   0.258  0.00  0.00    +0.260 C 
ATOM      4  O   UNL     1      -1.073   1.987   0.221  0.00  0.00    -0.269 OA
ATOM      5  N   UNL     1      -0.033   0.036   0.392  0.00  0.00    -0.227 N 
ATOM      6  C   UNL     1       1.118  -0.666   0.426  0.00  0.00    +0.286 C 
ATOM      7  O   UNL     1       1.267  -1.868   0.543  0.00  0.00    -0.262 OA
ATOM      8  S   UNL     1       2.371   0.595   0.258  0.00  0.00    -0.026 S 
ENDROOT
BRANCH   1  11
ATOM      9  C   UNL     1       5.248   3.378   0.792  0.00  0.00    +0.020 A 
ATOM     10  C   UNL     1       3.941   2.950   0.702  0.00  0.00    +0.011 A 
ATOM     11  C   UNL     1       2.979   3.772   0.104  0.00  0.00    -0.005 A 
ATOM     12  C   UNL     1       3.354   5.023  -0.403  0.00  0.00    +0.050 A 
ATOM     13  C   UNL     1       4.665   5.440  -0.299  0.00  0.00    +0.040 A 
ATOM     14  C   UNL     1       5.611   4.619   0.293  0.00  0.00    +0.042 A 
ATOM     15 CL   UNL     1       7.260   5.149   0.412  0.00  0.00    -0.083 Cl
ATOM     16 CL   UNL     1       2.171   6.049  -1.152  0.00  0.00    -0.083 Cl
ENDBRANCH   1  11
BRANCH   5  17
ATOM     17  C   UNL     1      -1.309  -0.676   0.505  0.00  0.00    +0.136 C 
BRANCH  17  18
ATOM     18  C   UNL     1      -1.798  -1.070  -0.890  0.00  0.00    +0.123 C 
BRANCH  18  19
ATOM     19  N   UNL     1      -3.074  -1.781  -0.777  0.00  0.00    -0.314 N 
ATOM     20  C   UNL     1      -3.698  -2.227  -1.885  0.00  0.00    +0.215 C 
ATOM     21  O   UNL     1      -3.203  -2.039  -2.977  0.00  0.00    -0.276 OA
ATOM     22  H   UNL     1      -3.470  -1.932   0.096  0.00  0.00    +0.149 HD
BRANCH  20  23
ATOM     23  C   UNL     1      -5.010  -2.959  -1.769  0.00  0.00    +0.114 C 
BRANCH  23  24
ATOM     24  C   UNL     1      -5.500  -3.353  -3.164  0.00  0.00    +0.115 C 
BRANCH  24  25
ATOM     25  N   UNL     1      -6.776  -4.064  -3.050  0.00  0.00    -0.299 N 
ATOM     26  C   UNL     1      -7.399  -4.510  -4.159  0.00  0.00    +0.297 C 
ATOM     27  O   UNL     1      -6.903  -4.321  -5.253  0.00  0.00    -0.253 OA
ATOM     28  N   UNL     1      -8.573  -5.164  -4.055  0.00  0.00    -0.313 N 
ATOM     29  H   UNL     1      -7.171  -4.215  -2.178  0.00  0.00    +0.150 HD
ATOM     30  H   UNL     1      -8.969  -5.315  -3.182  0.00  0.00    +0.146 HD
ATOM     31  H   UNL     1      -9.022  -5.485  -4.853  0.00  0.00    +0.146 HD
ENDBRANCH  24  25
ENDBRANCH  23  24
ENDBRANCH  20  23
ENDBRANCH  18  19
ENDBRANCH  17  18
ENDBRANCH   5  17
TORSDOF 7
