REMARK  Name = ZINC64683350
REMARK  8 active torsions:
REMARK  status: ('A' for Active; 'I' for Inactive)
REMARK    1  A    between atoms: C_1  and  C_2
REMARK    2  A    between atoms: C_8  and  N_10
REMARK    3  A    between atoms: C_11  and  C_13
REMARK    4  A    between atoms: C_13  and  N_14
REMARK    5  A    between atoms: N_17  and  CA_18
REMARK    6  A    between atoms: CA_18  and  CB_20
REMARK    7  A    between atoms: CA_18  and  C_30
REMARK    8  A    between atoms: CB_20  and  CG_21
REMARK                            x       y       z     vdW  Elec       q    Type
REMARK                         _______ _______ _______ _____ _____    ______ ____
ROOT
ATOM      1  N   UNK A   0       4.722   0.698   3.749  0.00  0.00    -0.291 N 
ATOM      2  C   UNK A   0       5.975   1.135   3.985  0.00  0.00    +0.301 C 
ATOM      3  O   UNK A   0       6.679   1.489   3.059  0.00  0.00    -0.253 OA
ATOM      4  N   TRP A   1       6.447   1.180   5.246  0.00  0.00    -0.286 N 
ATOM      5  H   UNK A   0       4.160   0.416   4.487  0.00  0.00    +0.151 HD
ATOM      6  H   TRP A   1       5.884   0.898   5.985  0.00  0.00    +0.151 HD
ENDROOT
BRANCH   1   7
ATOM      7  C   UNK A   0       4.209   0.649   2.377  0.00  0.00    +0.201 C 
BRANCH   7   9
ATOM      8  N   UNK A   0       2.116  -0.004   1.231  0.00  0.00    -0.311 N 
ATOM      9  C   UNK A   0       2.795   0.128   2.388  0.00  0.00    +0.230 C 
ATOM     10  O   UNK A   0       2.268  -0.174   3.438  0.00  0.00    -0.274 OA
ATOM     11  H   UNK A   0       2.538   0.237   0.392  0.00  0.00    +0.149 HD
BRANCH   8  18
ATOM     12  C   UNK A   0      -0.019   1.526   0.010  0.00  0.00    +0.009 C 
ATOM     13  C   UNK A   0       0.002  -0.004   0.002  0.00  0.00    +0.006 C 
ATOM     14  C   UNK A   0      -1.433  -0.534   0.013  0.00  0.00    +0.005 C 
ATOM     15  C   UNK A   0      -1.413  -2.063   0.004  0.00  0.00    +0.000 C 
ATOM     16  C   UNK A   0      -0.673  -2.570   1.244  0.00  0.00    +0.002 C 
ATOM     17  C   UNK A   0       0.763  -2.041   1.233  0.00  0.00    +0.022 C 
ATOM     18  C   UNK A   0       0.742  -0.511   1.242  0.00  0.00    +0.076 C 
ENDBRANCH   8  18
ENDBRANCH   7   9
ENDBRANCH   1   7
BRANCH   4  19
ATOM     19  CA  TRP A   1       7.808   1.655   5.503  0.00  0.00    +0.191 C 
BRANCH  19  20
ATOM     20  C   TRP A   1       8.779   0.514   5.334  0.00  0.00    +0.376 C 
ATOM     21  O   TRP A   1       9.918   0.734   4.961  0.00  0.00    -0.244 OA
ATOM     22  OXT TRP A   1       8.424  -0.628   5.571  0.00  0.00    -0.244 OA
ENDBRANCH  19  20
BRANCH  19  23
ATOM     23  CB  TRP A   1       7.900   2.196   6.931  0.00  0.00    +0.067 C 
BRANCH  23  24
ATOM     24  CG  TRP A   1       7.021   3.413   7.065  0.00  0.00    -0.039 C 
ATOM     25  CD2 TRP A   1       5.749   3.450   7.523  0.00  0.00    -0.001 A 
ATOM     26  CE3 TRP A   1       4.837   2.410   8.013  0.00  0.00    +0.010 A 
ATOM     27  CZ3 TRP A   1       3.594   2.762   8.412  0.00  0.00    +0.001 A 
ATOM     28  CH2 TRP A   1       3.155   4.093   8.368  0.00  0.00    +0.002 A 
ATOM     29  CZ2 TRP A   1       3.935   5.104   7.930  0.00  0.00    +0.026 A 
ATOM     30  CE2 TRP A   1       5.261   4.848   7.487  0.00  0.00    +0.043 A 
ATOM     31  NE1 TRP A   1       6.196   5.643   7.025  0.00  0.00    -0.380 N 
ATOM     32  CD1 TRP A   1       7.385   4.839   6.721  0.00  0.00    +0.144 C 
ATOM     33  HE1 TRP A   1       6.116   6.602   6.908  0.00  0.00    +0.160 HD
ENDBRANCH  23  24
ENDBRANCH  19  23
ENDBRANCH   4  19
TORSDOF 7
