REMARK  Name = ZINC44432329
REMARK  9 active torsions:
REMARK  status: ('A' for Active; 'I' for Inactive)
REMARK    1  A    between atoms: C_1  and  C_2
REMARK    2  A    between atoms: C_5  and  C_9
REMARK    3  A    between atoms: C_7  and  C_8
REMARK    4  A    between atoms: C_9  and  N_10
REMARK    5  A    between atoms: C_11  and  C_17
REMARK    6  A    between atoms: C_19  and  C_22
REMARK    7  A    between atoms: C_22  and  C_23
REMARK    8  A    between atoms: C_22  and  C_24
REMARK    9  A    between atoms: C_22  and  C_25
REMARK                            x       y       z     vdW  Elec       q    Type
REMARK                         _______ _______ _______ _____ _____    ______ ____
ROOT
ATOM      1  N   UNL     1       1.447  -4.746  -0.032  0.00  0.00    -0.285 N 
ATOM      2  C   UNL     1       2.226  -5.000  -1.249  0.00  0.00    +0.165 C 
ATOM      3  C   UNL     1       3.701  -5.044  -0.792  0.00  0.00    +0.041 C 
ATOM      4  C   UNL     1       3.560  -5.458   0.691  0.00  0.00    +0.098 C 
ATOM      5  C   UNL     1       2.171  -4.995   1.073  0.00  0.00    +0.217 C 
ATOM      6  O   UNL     1       1.770  -4.869   2.210  0.00  0.00    -0.276 OA
ENDROOT
BRANCH   2   7
ATOM      7  C   UNL     1       1.827  -6.319  -1.858  0.00  0.00    +0.248 A 
ATOM      8  N   UNL     1       1.603  -6.540  -3.124  0.00  0.00    -0.194 NA
ATOM      9  C   UNL     1       1.270  -7.822  -3.314  0.00  0.00    +0.177 A 
ATOM     10  N   UNL     1       1.278  -8.435  -2.165  0.00  0.00    -0.061 NA
ATOM     11  O   UNL     1       1.647  -7.468  -1.194  0.00  0.00    -0.336 OA
BRANCH   9  12
ATOM     12  C   UNL     1       0.938  -8.453  -4.642  0.00  0.00    +0.025 C 
ATOM     13  C   UNL     1       2.138  -8.322  -5.582  0.00  0.00    +0.019 C 
ATOM     14  C   UNL     1       0.611  -9.933  -4.435  0.00  0.00    +0.019 C 
ATOM     15  C   UNL     1      -0.271  -7.744  -5.256  0.00  0.00    +0.019 C 
ENDBRANCH   9  12
ENDBRANCH   2   7
BRANCH   1  16
ATOM     16  C   UNL     1       0.059  -4.275  -0.021  0.00  0.00    +0.143 C 
BRANCH  16  21
ATOM     17  C   UNL     1      -0.018   1.503   0.010  0.00  0.00    +0.044 C 
ATOM     18  C   UNL     1       0.002  -0.004   0.002  0.00  0.00    -0.048 A 
ATOM     19  C   UNL     1       0.006  -0.689  -1.199  0.00  0.00    +0.004 A 
ATOM     20  C   UNL     1       0.025  -2.071  -1.207  0.00  0.00    +0.005 A 
ATOM     21  C   UNL     1       0.040  -2.768  -0.013  0.00  0.00    -0.030 A 
ATOM     22  C   UNL     1       0.037  -2.084   1.188  0.00  0.00    +0.008 A 
ATOM     23  C   UNL     1       0.023  -0.702   1.195  0.00  0.00    -0.047 A 
ATOM     24  C   UNL     1       0.025   0.045   2.504  0.00  0.00    +0.044 C 
ENDBRANCH  16  21
ENDBRANCH   1  16
TORSDOF 4
