REMARK  Name = ZINC55173731
REMARK  3 active torsions:
REMARK  status: ('A' for Active; 'I' for Inactive)
REMARK    1  A    between atoms: C_1  and  C_2
REMARK    2  A    between atoms: C_3  and  C_8
REMARK    3  A    between atoms: C_13  and  C_23
REMARK                            x       y       z     vdW  Elec       q    Type
REMARK                         _______ _______ _______ _____ _____    ______ ____
ROOT
ATOM      1  C   UNL     1      -0.008  -0.258  -2.565  0.00  0.00    +0.255 C 
ATOM      2  O   UNL     1      -0.101   0.933  -2.802  0.00  0.00    -0.269 OA
ATOM      3  N   UNL     1       0.101  -1.139  -3.579  0.00  0.00    -0.294 N 
ATOM      4  C   UNL     1       0.119  -2.586  -3.318  0.00  0.00    +0.108 C 
ATOM      5  C   UNL     1       1.355  -3.195  -3.986  0.00  0.00    +0.022 C 
ATOM      6  C   UNL     1       1.373  -2.818  -5.470  0.00  0.00    -0.008 C 
ATOM      7  C   UNL     1       1.452  -1.293  -5.604  0.00  0.00    +0.012 C 
ATOM      8  C   UNL     1       0.198  -0.678  -4.968  0.00  0.00    +0.080 C 
ATOM      9  C   UNL     1       0.271   0.845  -5.012  0.00  0.00    +0.023 C 
ATOM     10  C   UNL     1       1.522   1.329  -4.277  0.00  0.00    +0.002 C 
ATOM     11  C   UNL     1       2.763   0.736  -4.950  0.00  0.00    +0.000 C 
ATOM     12  C   UNL     1       2.711  -0.800  -4.885  0.00  0.00    +0.005 C 
ATOM     13  C   UNL     1       2.589  -3.456  -6.144  0.00  0.00    +0.008 C 
ENDROOT
BRANCH   1  16
ATOM     14  C   UNL     1       1.175   1.212  -0.080  0.00  0.00    +0.067 C 
ATOM     15  C   UNL     1       0.490  -0.130  -0.037  0.00  0.00    +0.060 A 
ATOM     16  C   UNL     1      -0.015  -0.731  -1.182  0.00  0.00    +0.098 A 
ATOM     17  S   UNL     1      -0.675  -2.242  -0.496  0.00  0.00    -0.048 S 
ATOM     18  C   UNL     1      -0.260  -1.970   1.112  0.00  0.00    +0.156 A 
ATOM     19  N   UNL     1       0.345  -0.795   1.081  0.00  0.00    -0.230 NA
ATOM     20  N   UNL     1      -0.492  -2.781   2.202  0.00  0.00    -0.337 N 
ATOM     21  H   UNL     1      -0.948  -3.629   2.086  0.00  0.00    +0.144 HD
ATOM     22  H   UNL     1      -0.199  -2.505   3.084  0.00  0.00    +0.144 HD
ENDBRANCH   1  16
TORSDOF 1
