REMARK  Name = ZINC06830070
REMARK  6 active torsions:
REMARK  status: ('A' for Active; 'I' for Inactive)
REMARK    1  A    between atoms: C_1  and  C_2
REMARK    2  A    between atoms: C_2  and  C_3
REMARK    3  A    between atoms: C_5  and  C_25
REMARK    4  A    between atoms: C_10  and  C_23
REMARK    5  A    between atoms: C_11  and  C_17
REMARK    6  A    between atoms: C_13  and  C_16
REMARK                            x       y       z     vdW  Elec       q    Type
REMARK                         _______ _______ _______ _____ _____    ______ ____
ROOT
ATOM      1  C   UNL     1       0.484  -0.258   1.452  0.00  0.00    +0.153 C 
ATOM      2  C   UNL     1       0.414  -1.746   1.164  0.00  0.00    +0.184 C 
ATOM      3  C   UNL     1      -0.848  -2.372   1.744  0.00  0.00    +0.219 C 
ATOM      4  N   UNL     1      -0.691  -3.636   1.765  0.00  0.00    -0.197 NA
ATOM      5  C   UNL     1       0.638  -3.915   1.904  0.00  0.00    +0.177 C 
ATOM      6  N   UNL     1       1.213  -5.020   1.798  0.00  0.00    -0.131 NA
ATOM      7  C   UNL     1       1.264  -2.531   2.226  0.00  0.00    +0.160 C 
ATOM      8  C   UNL     1       0.633  -2.131   3.583  0.00  0.00    +0.120 C 
ATOM      9  C   UNL     1      -0.485  -1.088   3.464  0.00  0.00    +0.220 C 
ATOM     10  O   UNL     1       0.057   0.046   2.778  0.00  0.00    -0.333 OA
ATOM     11  O   UNL     1      -1.555  -1.604   2.604  0.00  0.00    -0.446 OA
ATOM     12  C   UNL     1      -1.014  -0.694   4.845  0.00  0.00    +0.090 C 
ENDROOT
BRANCH   8  13
ATOM     13  C   UNL     1       0.066  -3.368   4.232  0.00  0.00    -0.036 A 
ATOM     14  C   UNL     1       0.916  -4.339   4.729  0.00  0.00    +0.004 A 
ATOM     15  C   UNL     1       0.396  -5.473   5.324  0.00  0.00    +0.000 A 
ATOM     16  C   UNL     1      -0.973  -5.635   5.424  0.00  0.00    +0.000 A 
ATOM     17  C   UNL     1      -1.823  -4.664   4.928  0.00  0.00    +0.000 A 
ATOM     18  C   UNL     1      -1.303  -3.528   4.337  0.00  0.00    +0.004 A 
ENDBRANCH   8  13
BRANCH   1  20
ATOM     19  C   UNL     1      -0.234   1.992   0.638  0.00  0.00    +0.006 C 
ATOM     20  C   UNL     1      -0.413   0.484   0.458  0.00  0.00    +0.030 C 
ENDBRANCH   1  20
BRANCH   7  21
ATOM     21  C   UNL     1       2.728  -2.423   2.117  0.00  0.00    +0.080 C 
ATOM     22  N   UNL     1       3.858  -2.340   2.033  0.00  0.00    -0.195 NA
ENDBRANCH   7  21
BRANCH   2  23
ATOM     23  C   UNL     1       0.700  -2.093  -0.237  0.00  0.00    +0.084 C 
ATOM     24  N   UNL     1       0.920  -2.362  -1.319  0.00  0.00    -0.195 NA
ENDBRANCH   2  23
TORSDOF 4
