REMARK  Name = ZINC15866501
REMARK  2 active torsions:
REMARK  status: ('A' for Active; 'I' for Inactive)
REMARK    1  A    between atoms: C_3  and  C_6
REMARK    2  A    between atoms: C_9  and  C_17
REMARK                            x       y       z     vdW  Elec       q    Type
REMARK                         _______ _______ _______ _____ _____    ______ ____
ROOT
ATOM      1  C   UNL     1      -0.075   3.837  -0.538  0.00  0.00    +0.151 C 
ATOM      2  C   UNL     1       1.067   2.919  -0.994  0.00  0.00    +0.059 C 
ATOM      3  C   UNL     1       1.231   1.763  -0.000  0.00  0.00    +0.106 C 
ATOM      4  N   UNL     1      -0.011   0.966   0.007  0.00  0.00    -0.305 N 
ATOM      5  C   UNL     1      -1.199   1.683   0.017  0.00  0.00    +0.236 A 
ATOM      6  N   UNL     1      -1.242   3.017  -0.227  0.00  0.00    -0.205 N 
ATOM      7  N   UNL     1      -2.587   3.373  -0.118  0.00  0.00    -0.042 NA
ATOM      8  N   UNL     1      -3.233   2.290   0.155  0.00  0.00    -0.021 NA
ATOM      9  N   UNL     1      -2.421   1.292   0.243  0.00  0.00    -0.092 NA
ATOM     10  H   UNL     1       0.002  -0.004   0.002  0.00  0.00    +0.150 HD
ENDROOT
BRANCH   3  11
ATOM     11  C   UNL     1       1.486   2.315   1.379  0.00  0.00    -0.027 A 
ATOM     12  C   UNL     1       0.435   2.796   2.136  0.00  0.00    +0.006 A 
ATOM     13  C   UNL     1       0.668   3.297   3.403  0.00  0.00    +0.015 A 
ATOM     14  C   UNL     1       1.955   3.327   3.909  0.00  0.00    +0.018 A 
ATOM     15  C   UNL     1       3.008   2.850   3.149  0.00  0.00    +0.015 A 
ATOM     16  C   UNL     1       2.773   2.344   1.884  0.00  0.00    +0.006 A 
ATOM     17 BR   UNL     1       2.276   4.020   5.639  0.00  0.00    -0.050 Br
ENDBRANCH   3  11
BRANCH   1  20
ATOM     18  C   UNL     1      -0.738   6.848  -2.775  0.00  0.00    +0.008 A 
ATOM     19  C   UNL     1      -0.380   6.159  -1.631  0.00  0.00    +0.013 A 
ATOM     20  C   UNL     1      -0.417   4.804  -1.642  0.00  0.00    +0.014 A 
ATOM     21  S   UNL     1      -0.983   4.463  -3.300  0.00  0.00    -0.099 S 
ATOM     22  C   UNL     1      -1.125   6.149  -3.869  0.00  0.00    +0.045 A 
ENDBRANCH   1  20
TORSDOF 2
