REMARK  Name = ZINC19684392
REMARK  5 active torsions:
REMARK  status: ('A' for Active; 'I' for Inactive)
REMARK    1  A    between atoms: C_1  and  O_2
REMARK    2  A    between atoms: O_2  and  C_3
REMARK    3  A    between atoms: C_6  and  C_9
REMARK    4  A    between atoms: N_14  and  S_15
REMARK    5  A    between atoms: S_15  and  C_18
REMARK                            x       y       z     vdW  Elec       q    Type
REMARK                         _______ _______ _______ _____ _____    ______ ____
ROOT
ATOM      1  S   UNL     1      -4.654  -3.771  -2.482  0.00  0.00    +0.061 S 
ATOM      2  O   UNL     1      -5.229  -4.956  -3.015  0.00  0.00    -0.153 OA
ATOM      3  O   UNL     1      -5.025  -2.475  -2.932  0.00  0.00    -0.153 OA
ENDROOT
BRANCH   1   4
ATOM      4  C   UNL     1      -2.913  -3.905  -2.715  0.00  0.00    +0.106 A 
ATOM      5  C   UNL     1      -2.133  -2.764  -2.760  0.00  0.00    +0.030 A 
ATOM      6  C   UNL     1      -0.767  -2.866  -2.942  0.00  0.00    +0.025 A 
ATOM      7  C   UNL     1      -0.179  -4.117  -3.080  0.00  0.00    +0.037 A 
ATOM      8  C   UNL     1      -0.966  -5.260  -3.034  0.00  0.00    -0.024 A 
ATOM      9  C   UNL     1      -2.329  -5.152  -2.846  0.00  0.00    +0.034 A 
ATOM     10  C   UNL     1      -0.326  -6.616  -3.182  0.00  0.00    +0.046 C 
ATOM     11  C   UNL     1       0.859  -6.520  -4.143  0.00  0.00    +0.101 C 
ATOM     12  C   UNL     1       1.736  -5.358  -3.760  0.00  0.00    +0.218 C 
ATOM     13  O   UNL     1       2.938  -5.443  -3.900  0.00  0.00    -0.275 OA
ATOM     14  N   UNL     1       1.203  -4.227  -3.264  0.00  0.00    -0.285 N 
ATOM     15  H   UNL     1       1.780  -3.482  -3.033  0.00  0.00    +0.155 HD
ENDBRANCH   1   4
BRANCH   1  20
ATOM     16  C   UNL     1      -4.981  -2.629   0.035  0.00  0.00    +0.110 C 
ATOM     17  C   UNL     1      -5.298  -3.136   1.458  0.00  0.00    +0.027 C 
ATOM     18  C   UNL     1      -5.969  -4.510   1.196  0.00  0.00    +0.019 C 
ATOM     19  C   UNL     1      -5.178  -5.013  -0.038  0.00  0.00    +0.110 C 
ATOM     20  N   UNL     1      -4.934  -3.803  -0.850  0.00  0.00    -0.169 NA
BRANCH  16  24
ATOM     21  C   UNL     1      -1.200  -0.637   0.010  0.00  0.00    +0.120 A 
ATOM     22  C   UNL     1      -2.375   0.101   0.019  0.00  0.00    +0.046 A 
ATOM     23  C   UNL     1      -3.596  -0.545   0.027  0.00  0.00    +0.009 A 
ATOM     24  C   UNL     1      -3.648  -1.927   0.026  0.00  0.00    -0.028 A 
ATOM     25  C   UNL     1      -2.479  -2.665   0.017  0.00  0.00    +0.009 A 
ATOM     26  C   UNL     1      -1.255  -2.024   0.003  0.00  0.00    +0.046 A 
BRANCH  21  28
ATOM     27  C   UNL     1      -0.017   1.425   0.010  0.00  0.00    +0.277 C 
ATOM     28  O   UNL     1       0.002  -0.004   0.002  0.00  0.00    -0.495 OA
ENDBRANCH  21  28
ENDBRANCH  16  24
ENDBRANCH   1  20
TORSDOF 4
