REMARK  Name = ZINC12305354
REMARK  6 active torsions:
REMARK  status: ('A' for Active; 'I' for Inactive)
REMARK    1  A    between atoms: C_1  and  N_2
REMARK    2  A    between atoms: N_2  and  C_3
REMARK    3  A    between atoms: N_2  and  C_10
REMARK    4  A    between atoms: C_3  and  C_4
REMARK    5  A    between atoms: C_10  and  C_11
REMARK    6  A    between atoms: C_12  and  C_21
REMARK                            x       y       z     vdW  Elec       q    Type
REMARK                         _______ _______ _______ _____ _____    ______ ____
ROOT
ATOM      1  C   UNL     1      -0.053  -0.115   2.441  0.00  0.00    +0.039 A 
ATOM      2  C   UNL     1       0.100   1.032   3.168  0.00  0.00    +0.146 A 
ATOM      3  N   UNL     1      -0.727   0.969   4.229  0.00  0.00    -0.223 NA
ATOM      4  C   UNL     1      -1.390  -0.175   4.191  0.00  0.00    +0.139 A 
ATOM      5  N   UNL     1      -0.990  -0.870   3.077  0.00  0.00    -0.303 N 
ATOM      6  C   UNL     1      -1.530  -2.095   2.796  0.00  0.00    +0.113 A 
ATOM      7  C   UNL     1      -2.465  -2.636   3.605  0.00  0.00    +0.058 A 
ATOM      8  C   UNL     1      -2.897  -1.945   4.752  0.00  0.00    +0.025 A 
ATOM      9  C   UNL     1      -2.363  -0.731   5.049  0.00  0.00    +0.048 A 
ATOM     10 CL   UNL     1      -3.138  -4.191   3.229  0.00  0.00    -0.082 Cl
ENDROOT
BRANCH   2  11
ATOM     11  C   UNL     1       1.012   2.146   2.846  0.00  0.00    +0.267 C 
ATOM     12  O   UNL     1       1.796   2.043   1.922  0.00  0.00    -0.268 OA
ATOM     13  N   UNL     1       0.978   3.278   3.577  0.00  0.00    -0.292 N 
ATOM     14  C   UNL     1       1.816   4.438   3.233  0.00  0.00    +0.113 C 
ATOM     15  C   UNL     1       0.889   5.590   2.849  0.00  0.00    +0.054 C 
ATOM     16  C   UNL     1      -0.214   5.750   3.862  0.00  0.00    -0.041 A 
ATOM     17  C   UNL     1      -0.872   6.973   3.910  0.00  0.00    +0.004 A 
ATOM     18  C   UNL     1      -1.899   7.183   4.807  0.00  0.00    +0.000 A 
ATOM     19  C   UNL     1      -2.279   6.168   5.666  0.00  0.00    +0.000 A 
ATOM     20  C   UNL     1      -1.625   4.955   5.623  0.00  0.00    +0.005 A 
ATOM     21  C   UNL     1      -0.588   4.744   4.724  0.00  0.00    -0.027 A 
ATOM     22  C   UNL     1       0.098   3.406   4.744  0.00  0.00    +0.143 C 
ENDBRANCH   2  11
BRANCH   1  23
ATOM     23  C   UNL     1       0.674  -0.472   1.171  0.00  0.00    -0.022 C 
BRANCH  23  25
ATOM     24  C   UNL     1      -0.120   1.490   0.043  0.00  0.00    -0.095 C 
ATOM     25  N   UNL     1      -0.086   0.022   0.015  0.00  0.00    +0.384 N 
ATOM     26  H   UNL     1      -1.028  -0.337   0.054  0.00  0.00    -0.081 HD
BRANCH  25  27
ATOM     27  C   UNL     1       0.559  -0.429  -1.225  0.00  0.00    -0.041 C 
BRANCH  27  28
ATOM     28  C   UNL     1      -0.287  -0.027  -2.406  0.00  0.00    -0.046 A 
ATOM     29  C   UNL     1      -1.276  -0.875  -2.882  0.00  0.00    +0.005 A 
ATOM     30  C   UNL     1      -2.029  -0.464  -3.971  0.00  0.00    +0.020 A 
ATOM     31  C   UNL     1      -1.771   0.769  -4.542  0.00  0.00    +0.111 A 
ATOM     32  N   UNL     1      -0.822   1.549  -4.062  0.00  0.00    -0.263 NA
ATOM     33  C   UNL     1      -0.090   1.193  -3.024  0.00  0.00    +0.112 A 
ENDBRANCH  27  28
ENDBRANCH  25  27
ENDBRANCH  23  25
ENDBRANCH   1  23
TORSDOF 5
