REMARK  Name = ZINC36342311
REMARK  4 active torsions:
REMARK  status: ('A' for Active; 'I' for Inactive)
REMARK    1  A    between atoms: C_6  and  C_7
REMARK    2  A    between atoms: C_10  and  C_26
REMARK    3  A    between atoms: C_13  and  C_15
REMARK    4  A    between atoms: C_15  and  N_16
REMARK                            x       y       z     vdW  Elec       q    Type
REMARK                         _______ _______ _______ _____ _____    ______ ____
ROOT
ATOM      1  C   UNL     1      -1.293  -0.775   0.010  0.00  0.00    +0.137 C 
ATOM      2  C   UNL     1      -1.617  -1.305  -1.400  0.00  0.00    +0.087 C 
ATOM      3  C   UNL     1      -1.635  -2.808  -1.229  0.00  0.00    +0.069 C 
ATOM      4  N   UNL     1      -1.380  -3.104  -0.002  0.00  0.00    -0.181 NA
ATOM      5  N   UNL     1      -1.164  -1.996   0.821  0.00  0.00    -0.187 N 
ATOM      6  C   UNL     1      -0.882  -2.036   2.138  0.00  0.00    +0.219 C 
ATOM      7  O   UNL     1      -0.712  -1.005   2.754  0.00  0.00    -0.276 OA
ENDROOT
BRANCH   1  13
ATOM      8  C   UNL     1      -0.017   1.378   0.010  0.00  0.00    +0.008 A 
ATOM      9  C   UNL     1       1.170   2.086   0.002  0.00  0.00    +0.038 A 
ATOM     10  C   UNL     1       2.379   1.410  -0.013  0.00  0.00    +0.123 A 
ATOM     11  C   UNL     1       2.396   0.026  -0.021  0.00  0.00    +0.038 A 
ATOM     12  C   UNL     1       1.208  -0.680  -0.013  0.00  0.00    +0.008 A 
ATOM     13  C   UNL     1       0.002  -0.004   0.002  0.00  0.00    -0.025 A 
ATOM     14  F   UNL     1       3.540   2.101  -0.021  0.00  0.00    -0.205 F 
ENDBRANCH   1  13
BRANCH   3  15
ATOM     15  C   UNL     1      -1.903  -3.783  -2.302  0.00  0.00    -0.002 A 
ATOM     16  C   UNL     1      -2.163  -3.342  -3.602  0.00  0.00    +0.012 A 
ATOM     17  C   UNL     1      -2.412  -4.259  -4.601  0.00  0.00    +0.039 A 
ATOM     18  C   UNL     1      -2.405  -5.616  -4.318  0.00  0.00    +0.123 A 
ATOM     19  C   UNL     1      -2.148  -6.059  -3.030  0.00  0.00    +0.039 A 
ATOM     20  C   UNL     1      -1.892  -5.152  -2.024  0.00  0.00    +0.012 A 
ATOM     21  F   UNL     1      -2.651  -6.510  -5.301  0.00  0.00    -0.205 F 
ENDBRANCH   3  15
BRANCH   6  22
ATOM     22  C   UNL     1      -0.779  -3.362   2.847  0.00  0.00    +0.021 C 
BRANCH  22  23
ATOM     23  N   UNL     1      -0.466  -3.138   4.264  0.00  0.00    +0.386 N 
ATOM     24  C   UNL     1      -1.582  -2.431   4.904  0.00  0.00    -0.073 C 
ATOM     25  C   UNL     1      -1.226  -2.118   6.359  0.00  0.00    +0.046 C 
ATOM     26  C   UNL     1      -0.948  -3.427   7.102  0.00  0.00    +0.167 C 
ATOM     27  C   UNL     1       0.162  -4.197   6.382  0.00  0.00    +0.046 C 
ATOM     28  C   UNL     1      -0.248  -4.429   4.926  0.00  0.00    -0.073 C 
ATOM     29  O   UNL     1      -0.536  -3.137   8.447  0.00  0.00    -0.346 OA
ATOM     30  C   UNL     1      -1.746  -3.246   9.235  0.00  0.00    +0.191 C 
ATOM     31  C   UNL     1      -2.477  -4.416   8.530  0.00  0.00    +0.191 C 
ATOM     32  O   UNL     1      -2.139  -4.222   7.141  0.00  0.00    -0.346 OA
ATOM     33  H   UNL     1       0.370  -2.578   4.338  0.00  0.00    -0.081 HD
ENDBRANCH  22  23
ENDBRANCH   6  22
TORSDOF 4
