REMARK  Name = ZINC12735382
REMARK  8 active torsions:
REMARK  status: ('A' for Active; 'I' for Inactive)
REMARK    1  A    between atoms: C_1  and  C_2
REMARK    2  A    between atoms: C_2  and  C_3
REMARK    3  A    between atoms: C_2  and  C_4
REMARK    4  A    between atoms: C_2  and  N_5
REMARK    5  A    between atoms: C_6  and  C_8
REMARK    6  A    between atoms: C_11  and  N_14
REMARK    7  A    between atoms: N_14  and  S_15
REMARK    8  A    between atoms: S_15  and  C_18
REMARK                            x       y       z     vdW  Elec       q    Type
REMARK                         _______ _______ _______ _____ _____    ______ ____
ROOT
ATOM      1  N   UNL     1       0.005  -0.007   0.002  0.00  0.00    -0.216 N 
ATOM      2  H   UNL     1       0.563  -0.483  -0.633  0.00  0.00    +0.174 HD
ENDROOT
BRANCH   1   6
ATOM      3  C   UNL     1      -0.122   4.152  -0.045  0.00  0.00    +0.037 A 
ATOM      4  C   UNL     1       1.106   3.488  -0.110  0.00  0.00    +0.015 A 
ATOM      5  C   UNL     1       1.145   2.113  -0.095  0.00  0.00    +0.025 A 
ATOM      6  C   UNL     1      -0.038   1.383  -0.014  0.00  0.00    +0.048 A 
ATOM      7  C   UNL     1      -1.263   2.041   0.045  0.00  0.00    +0.025 A 
ATOM      8  C   UNL     1      -1.308   3.416   0.035  0.00  0.00    +0.015 A 
BRANCH   3  10
ATOM      9  N   UNL     1      -1.352   6.266   0.001  0.00  0.00    -0.307 N 
ATOM     10  C   UNL     1      -0.167   5.627  -0.061  0.00  0.00    +0.244 C 
ATOM     11  O   UNL     1       0.865   6.266  -0.131  0.00  0.00    -0.270 OA
ATOM     12  H   UNL     1      -2.175   5.756   0.057  0.00  0.00    +0.150 HD
BRANCH   9  14
ATOM     13  C   UNL     1      -0.767   8.245  -1.310  0.00  0.00    +0.031 C 
ATOM     14  C   UNL     1      -1.397   7.730  -0.015  0.00  0.00    +0.026 C 
ATOM     15  C   UNL     1      -2.852   8.197   0.066  0.00  0.00    +0.031 C 
ATOM     16  C   UNL     1      -0.618   8.277   1.184  0.00  0.00    +0.031 C 
ENDBRANCH   9  14
ENDBRANCH   3  10
ENDBRANCH   1   6
BRANCH   1  17
ATOM     17  S   UNL     1      -0.898  -0.850   1.105  0.00  0.00    +0.072 S 
ATOM     18  O   UNL     1      -2.231  -0.372   0.989  0.00  0.00    -0.150 OA
ATOM     19  O   UNL     1      -0.563  -2.222   0.940  0.00  0.00    -0.150 OA
BRANCH  17  20
ATOM     20  C   UNL     1      -0.333  -0.383   2.707  0.00  0.00    +0.109 A 
ATOM     21  C   UNL     1      -0.983   0.620   3.402  0.00  0.00    +0.030 A 
ATOM     22  C   UNL     1      -0.543   0.989   4.658  0.00  0.00    +0.025 A 
ATOM     23  C   UNL     1       0.554   0.351   5.223  0.00  0.00    +0.037 A 
ATOM     24  C   UNL     1       1.204  -0.656   4.522  0.00  0.00    -0.024 A 
ATOM     25  C   UNL     1       0.756  -1.024   3.268  0.00  0.00    +0.034 A 
ATOM     26  C   UNL     1       2.394  -1.348   5.134  0.00  0.00    +0.046 C 
ATOM     27  C   UNL     1       3.182  -0.351   5.986  0.00  0.00    +0.101 C 
ATOM     28  C   UNL     1       2.247   0.396   6.897  0.00  0.00    +0.218 C 
ATOM     29  O   UNL     1       2.617   0.710   8.009  0.00  0.00    -0.275 OA
ATOM     30  N   UNL     1       1.004   0.719   6.494  0.00  0.00    -0.285 N 
ATOM     31  H   UNL     1       0.417   1.212   7.089  0.00  0.00    +0.155 HD
ENDBRANCH  17  20
ENDBRANCH   1  17
TORSDOF 5
