REMARK  Name = ZINC33085400
REMARK  8 active torsions:
REMARK  status: ('A' for Active; 'I' for Inactive)
REMARK    1  A    between atoms: C_1  and  C_2
REMARK    2  A    between atoms: C_2  and  S_3
REMARK    3  A    between atoms: S_3  and  C_4
REMARK    4  A    between atoms: C_9  and  C_25
REMARK    5  A    between atoms: C_11  and  C_15
REMARK    6  A    between atoms: C_12  and  C_14
REMARK    7  A    between atoms: N_17  and  C_18
REMARK    8  A    between atoms: C_23  and  C_24
REMARK                            x       y       z     vdW  Elec       q    Type
REMARK                         _______ _______ _______ _____ _____    ______ ____
ROOT
ATOM      1  C   UNL     1      -1.527   3.703   3.253  0.00  0.00    +0.210 A 
ATOM      2  N   UNL     1      -1.355   4.743   2.424  0.00  0.00    -0.187 NA
ATOM      3  C   UNL     1      -1.262   4.311   1.196  0.00  0.00    +0.219 A 
ATOM      4  N   UNL     1      -1.371   2.960   1.215  0.00  0.00    -0.220 N 
ATOM      5  N   UNL     1      -1.544   2.592   2.548  0.00  0.00    -0.141 NA
ATOM      6  C   UNL     1      -1.305   2.127   0.017  0.00  0.00    +0.179 C 
ATOM      7  C   UNL     1      -1.403   2.999  -1.206  0.00  0.00    +0.060 C 
ATOM      8  C   UNL     1      -1.291   4.335  -1.164  0.00  0.00    +0.018 C 
ATOM      9  N   UNL     1      -1.089   5.015   0.012  0.00  0.00    -0.287 N 
ATOM     10  C   UNL     1      -1.392   5.115  -2.449  0.00  0.00    +0.061 C 
ATOM     11  H   UNL     1      -0.800   6.076   0.040  0.00  0.00    +0.155 HD
ENDROOT
BRANCH   6  12
ATOM     12  C   UNL     1       0.003   1.378  -0.003  0.00  0.00    -0.000 A 
ATOM     13  C   UNL     1       0.018  -0.009  -0.011  0.00  0.00    +0.009 A 
ATOM     14  C   UNL     1       1.244  -0.655  -0.035  0.00  0.00    +0.020 A 
ATOM     15  C   UNL     1       2.403   0.099  -0.051  0.00  0.00    +0.111 A 
ATOM     16  N   UNL     1       2.350   1.417  -0.043  0.00  0.00    -0.263 NA
ATOM     17  C   UNL     1       1.202   2.065  -0.020  0.00  0.00    +0.116 A 
ENDBRANCH   6  12
BRANCH   7  18
ATOM     18  C   UNL     1      -1.622   2.380  -2.460  0.00  0.00    +0.248 C 
ATOM     19  O   UNL     1      -1.706   3.059  -3.467  0.00  0.00    -0.270 OA
ATOM     20  N   UNL     1      -1.739   1.040  -2.538  0.00  0.00    -0.281 N 
ATOM     21  H   UNL     1      -1.590   0.421  -1.641  0.00  0.00    +0.155 HD
BRANCH  20  22
ATOM     22  C   UNL     1      -2.049   0.435  -3.760  0.00  0.00    +0.037 A 
ATOM     23  C   UNL     1      -1.562   0.972  -4.946  0.00  0.00    +0.023 A 
ATOM     24  C   UNL     1      -1.870   0.372  -6.151  0.00  0.00    +0.002 A 
ATOM     25  C   UNL     1      -2.662  -0.761  -6.179  0.00  0.00    +0.000 A 
ATOM     26  C   UNL     1      -3.148  -1.298  -5.001  0.00  0.00    +0.005 A 
ATOM     27  C   UNL     1      -2.839  -0.707  -3.792  0.00  0.00    -0.029 A 
ATOM     28  C   UNL     1      -3.364  -1.296  -2.508  0.00  0.00    +0.045 C 
ENDBRANCH  20  22
ENDBRANCH   7  18
BRANCH   1  29
ATOM     29  S   UNL     1      -1.704   3.807   5.003  0.00  0.00    -0.085 S 
BRANCH  29  31
ATOM     30  C   UNL     1      -1.735   5.820   6.855  0.00  0.00    +0.016 C 
ATOM     31  C   UNL     1      -1.595   5.584   5.349  0.00  0.00    +0.074 C 
ENDBRANCH  29  31
ENDBRANCH   1  29
TORSDOF 5
