REMARK  Name = ZINC35380443
REMARK  6 active torsions:
REMARK  status: ('A' for Active; 'I' for Inactive)
REMARK    1  A    between atoms: C_1  and  C_2
REMARK    2  A    between atoms: C_5  and  C_8
REMARK    3  A    between atoms: C_8  and  C_10
REMARK    4  A    between atoms: N_24  and  C_27
REMARK    5  A    between atoms: C_29  and  C_34
REMARK    6  A    between atoms: C_31  and  C_33
REMARK                            x       y       z     vdW  Elec       q    Type
REMARK                         _______ _______ _______ _____ _____    ______ ____
ROOT
ATOM      1  C   UNL     1       0.188  -5.000   1.277  0.00  0.00    +0.141 C 
ATOM      2  C   UNL     1       1.593  -4.847   1.835  0.00  0.00    +0.114 C 
ATOM      3  C   UNL     1       1.675  -6.204   2.632  0.00  0.00    +0.107 C 
ATOM      4  C   UNL     1       1.209  -7.182   1.629  0.00  0.00    +0.070 C 
ATOM      5  N   UNL     1       0.005  -6.461   1.044  0.00  0.00    -0.288 NA
ATOM      6  C   UNL     1      -1.171  -6.933   1.806  0.00  0.00    +0.085 C 
ATOM      7  C   UNL     1      -0.883  -8.436   2.034  0.00  0.00    +0.017 C 
ATOM      8  C   UNL     1       0.678  -8.474   2.279  0.00  0.00    +0.021 C 
ATOM      9  C   UNL     1       2.800  -5.969   3.500  0.00  0.00    +0.232 C 
ATOM     10  O   UNL     1       3.616  -6.779   3.886  0.00  0.00    -0.274 OA
ATOM     11  N   UNL     1       2.749  -4.629   3.796  0.00  0.00    -0.210 N 
ATOM     12  C   UNL     1       1.885  -3.932   2.982  0.00  0.00    +0.232 C 
ATOM     13  O   UNL     1       1.445  -2.815   3.155  0.00  0.00    -0.274 OA
ENDROOT
BRANCH  11  14
ATOM     14  C   UNL     1       3.505  -4.029   4.813  0.00  0.00    +0.044 A 
ATOM     15  C   UNL     1       4.369  -4.796   5.583  0.00  0.00    +0.027 A 
ATOM     16  C   UNL     1       5.112  -4.202   6.584  0.00  0.00    -0.048 A 
ATOM     17  C   UNL     1       4.996  -2.845   6.820  0.00  0.00    +0.006 A 
ATOM     18  C   UNL     1       4.137  -2.078   6.055  0.00  0.00    -0.048 A 
ATOM     19  C   UNL     1       3.395  -2.665   5.049  0.00  0.00    +0.027 A 
ATOM     20  C   UNL     1       4.013  -0.599   6.316  0.00  0.00    +0.044 C 
ATOM     21  C   UNL     1       6.050  -5.034   7.420  0.00  0.00    +0.044 C 
ENDBRANCH  11  14
BRANCH   1  22
ATOM     22  C   UNL     1       0.058  -4.245  -0.021  0.00  0.00    +0.181 C 
ATOM     23  O   UNL     1       0.264  -4.810  -1.074  0.00  0.00    -0.290 OA
BRANCH  22  28
ATOM     24  C   UNL     1      -1.417   1.311   0.019  0.00  0.00    +0.044 C 
ATOM     25  C   UNL     1      -1.030  -0.146   0.009  0.00  0.00    -0.050 A 
ATOM     26  C   UNL     1      -0.675  -0.755  -1.182  0.00  0.00    +0.004 A 
ATOM     27  C   UNL     1      -0.320  -2.087  -1.200  0.00  0.00    +0.011 A 
ATOM     28  C   UNL     1      -0.319  -2.823  -0.011  0.00  0.00    +0.019 A 
ATOM     29  C   UNL     1      -0.678  -2.200   1.188  0.00  0.00    +0.011 A 
ATOM     30  C   UNL     1      -1.026  -0.866   1.191  0.00  0.00    +0.004 A 
ENDBRANCH  22  28
ENDBRANCH   1  22
TORSDOF 3
