REMARK  Name = ZINC00120005
REMARK  5 active torsions:
REMARK  status: ('A' for Active; 'I' for Inactive)
REMARK    1  A    between atoms: C_1  and  C_2
REMARK    2  A    between atoms: C_2  and  S_3
REMARK    3  A    between atoms: S_3  and  N_6
REMARK    4  A    between atoms: C_11  and  C_12
REMARK    5  A    between atoms: C_11  and  N_43
REMARK                            x       y       z     vdW  Elec       q    Type
REMARK                         _______ _______ _______ _____ _____    ______ ____
ROOT
ATOM      1  N   UNL     1       3.509   3.692   0.699  0.00  0.00    -0.185 NA
ATOM      2  C   UNL     1       2.615   4.190  -0.357  0.00  0.00    +0.090 C 
ATOM      3  C   UNL     1       1.218   3.603  -0.129  0.00  0.00    -0.061 C 
ATOM      4  C   UNL     1       2.123   1.732   1.121  0.00  0.00    -0.061 C 
ATOM      5  C   UNL     1       3.557   2.243   0.944  0.00  0.00    +0.090 C 
ATOM      6  N   UNL     1       1.328   2.129  -0.061  0.00  0.00    +0.382 N 
ATOM      7  H   UNL     1       1.800   1.791  -0.908  0.00  0.00    -0.082 HD
ENDROOT
BRANCH   1   8
ATOM      8  S   UNL     1       4.439   4.736   1.587  0.00  0.00    +0.031 S 
ATOM      9  O   UNL     1       5.548   3.958   2.015  0.00  0.00    -0.158 OA
ATOM     10  O   UNL     1       4.627   5.863   0.742  0.00  0.00    -0.158 OA
BRANCH   8  12
ATOM     11  C   UNL     1       4.171   6.158   3.908  0.00  0.00    +0.029 C 
ATOM     12  C   UNL     1       3.405   5.186   3.008  0.00  0.00    +0.182 C 
ENDBRANCH   8  12
ENDBRANCH   1   8
BRANCH   6  13
ATOM     13  C   UNL     1      -0.019   1.526   0.010  0.00  0.00    -0.075 C 
BRANCH  13  14
ATOM     14  C   UNL     1      -0.638   1.544  -1.389  0.00  0.00    -0.020 C 
ATOM     15  C   UNL     1       0.096   0.550  -2.322  0.00  0.00    +0.010 C 
ATOM     16  C   UNL     1      -1.018  -0.467  -2.727  0.00  0.00    +0.012 C 
ATOM     17  C   UNL     1      -1.832  -0.547  -1.383  0.00  0.00    +0.015 C 
ATOM     18  C   UNL     1      -2.102   1.002  -1.348  0.00  0.00    +0.013 C 
ATOM     19  C   UNL     1      -2.616   1.209  -2.778  0.00  0.00    -0.027 C 
ATOM     20  C   UNL     1      -1.992   0.363  -3.572  0.00  0.00    -0.027 C 
ENDBRANCH  13  14
ENDBRANCH   6  13
TORSDOF 4
