REMARK  Name = ZINC65473520
REMARK  8 active torsions:
REMARK  status: ('A' for Active; 'I' for Inactive)
REMARK    1  A    between atoms: C_1  and  C_2
REMARK    2  A    between atoms: C_4  and  C_23
REMARK    3  A    between atoms: N_10  and  C_11
REMARK    4  A    between atoms: C_13  and  C_21
REMARK    5  A    between atoms: C_16  and  O_17
REMARK    6  A    between atoms: O_17  and  C_18
REMARK    7  A    between atoms: C_18  and  C_19
REMARK    8  A    between atoms: C_18  and  C_20
REMARK                            x       y       z     vdW  Elec       q    Type
REMARK                         _______ _______ _______ _____ _____    ______ ____
ROOT
ATOM      1  C   UNL     1      -0.361   1.339   0.567  0.00  0.00    +0.009 C 
ATOM      2  C   UNL     1      -0.280  -0.189   0.586  0.00  0.00    +0.004 C 
ATOM      3  C   UNL     1      -1.659  -0.769   0.903  0.00  0.00    +0.009 C 
ATOM      4  C   UNL     1      -1.587  -2.298   0.890  0.00  0.00    +0.004 C 
ATOM      5  C   UNL     1      -0.604  -2.768   1.968  0.00  0.00    +0.112 C 
ATOM      6  N   UNL     1       0.687  -2.100   1.755  0.00  0.00    -0.285 N 
ATOM      7  C   UNL     1       0.717  -0.634   1.660  0.00  0.00    +0.112 C 
ATOM      8  C   UNL     1       1.822  -2.819   1.648  0.00  0.00    +0.307 C 
ATOM      9  O   UNL     1       1.798  -4.023   1.817  0.00  0.00    -0.252 OA
ATOM     10  N   UNL     1       2.984  -2.203   1.354  0.00  0.00    -0.266 N 
ATOM     11  C   UNL     1      -1.105  -2.775  -0.482  0.00  0.00    +0.009 C 
ATOM     12  H   UNL     1       3.017  -1.236   1.284  0.00  0.00    +0.156 HD
ENDROOT
BRANCH  10  13
ATOM     13  C   UNL     1       4.146  -2.960   1.148  0.00  0.00    +0.078 A 
ATOM     14  C   UNL     1       4.051  -4.311   0.869  0.00  0.00    +0.046 A 
ATOM     15  C   UNL     1       5.212  -5.062   0.665  0.00  0.00    +0.054 A 
ATOM     16  C   UNL     1       6.463  -4.444   0.743  0.00  0.00    +0.022 A 
ATOM     17  C   UNL     1       6.551  -3.097   1.021  0.00  0.00    +0.049 A 
ATOM     18  C   UNL     1       5.399  -2.349   1.219  0.00  0.00    +0.142 A 
BRANCH  15  19
ATOM     19  C   UNL     1       5.119  -6.462   0.376  0.00  0.00    +0.099 C 
ATOM     20  N   UNL     1       5.046  -7.572   0.147  0.00  0.00    -0.191 NA
ENDBRANCH  15  19
BRANCH  18  21
ATOM     21  O   UNL     1       5.491  -1.021   1.488  0.00  0.00    -0.488 OA
BRANCH  21  22
ATOM     22  C   UNL     1       6.803  -0.486   1.671  0.00  0.00    +0.167 C 
ATOM     23  C   UNL     1       7.402  -0.127   0.310  0.00  0.00    +0.051 C 
ATOM     24  C   UNL     1       6.724   0.770   2.541  0.00  0.00    +0.051 C 
ENDBRANCH  21  22
ENDBRANCH  18  21
ENDBRANCH  10  13
TORSDOF 4
