REMARK  Name = ZINC09465941
REMARK  11 active torsions:
REMARK  status: ('A' for Active; 'I' for Inactive)
REMARK    1  A    between atoms: C_1  and  C_2
REMARK    2  A    between atoms: C_2  and  N_3
REMARK    3  A    between atoms: C_7  and  S_23
REMARK    4  A    between atoms: C_11  and  C_12
REMARK    5  A    between atoms: C_12  and  N_53
REMARK    6  A    between atoms: C_13  and  N_53
REMARK    7  A    between atoms: C_14  and  C_15
REMARK    8  A    between atoms: C_14  and  N_53
REMARK    9  A    between atoms: S_23  and  N_26
REMARK   10  A    between atoms: N_26  and  C_27
REMARK   11  A    between atoms: N_26  and  C_28
REMARK                            x       y       z     vdW  Elec       q    Type
REMARK                         _______ _______ _______ _____ _____    ______ ____
ROOT
ATOM      1  N   UNL     1      -2.103   1.072   1.277  0.00  0.00    -0.329 N 
ATOM      2  C   UNL     1      -3.210   1.698   0.740  0.00  0.00    +0.069 A 
ATOM      3  C   UNL     1      -3.413   2.897   0.071  0.00  0.00    +0.030 A 
ATOM      4  C   UNL     1      -4.682   3.240  -0.346  0.00  0.00    +0.030 A 
ATOM      5  C   UNL     1      -5.755   2.395  -0.102  0.00  0.00    +0.108 A 
ATOM      6  C   UNL     1      -5.573   1.208   0.548  0.00  0.00    +0.058 A 
ATOM      7  C   UNL     1      -4.297   0.841   0.985  0.00  0.00    +0.091 A 
ATOM      8  N   UNL     1      -3.809  -0.236   1.652  0.00  0.00    -0.234 NA
ATOM      9  C   UNL     1      -2.526  -0.100   1.823  0.00  0.00    +0.094 A 
ENDROOT
BRANCH   5  10
ATOM     10  S   UNL     1      -7.367   2.854  -0.644  0.00  0.00    +0.060 S 
ATOM     11  O   UNL     1      -8.288   2.156   0.183  0.00  0.00    -0.153 OA
ATOM     12  O   UNL     1      -7.370   4.270  -0.760  0.00  0.00    -0.153 OA
BRANCH  10  13
ATOM     13  N   UNL     1      -7.558   2.254  -2.176  0.00  0.00    -0.183 NA
ATOM     14  C   UNL     1      -8.110   0.911  -2.374  0.00  0.00    +0.131 C 
ATOM     15  C   UNL     1      -7.174   3.066  -3.334  0.00  0.00    +0.131 C 
ENDBRANCH  10  13
ENDBRANCH   5  10
BRANCH   1  17
ATOM     16  C   UNL     1      -0.013   1.086   0.008  0.00  0.00    +0.027 C 
ATOM     17  C   UNL     1      -0.729   1.579   1.267  0.00  0.00    +0.120 C 
ENDBRANCH   1  17
BRANCH   9  18
ATOM     18  C   UNL     1      -1.638  -1.097   2.522  0.00  0.00    -0.003 C 
BRANCH  18  20
ATOM     19  C   UNL     1      -0.904   0.509   4.179  0.00  0.00    -0.095 C 
ATOM     20  N   UNL     1      -1.604  -0.775   3.965  0.00  0.00    +0.385 N 
ATOM     21  H   UNL     1      -2.567  -0.691   4.311  0.00  0.00    -0.081 HD
BRANCH  20  22
ATOM     22  C   UNL     1      -0.919  -1.854   4.707  0.00  0.00    -0.043 C 
BRANCH  22  23
ATOM     23  C   UNL     1      -1.091  -1.613   6.184  0.00  0.00    -0.062 A 
ATOM     24  C   UNL     1      -0.150  -0.875   6.878  0.00  0.00    +0.003 A 
ATOM     25  C   UNL     1      -0.309  -0.648   8.232  0.00  0.00    +0.021 A 
ATOM     26  C   UNL     1      -1.405  -1.169   8.896  0.00  0.00    +0.059 A 
ATOM     27  C   UNL     1      -2.345  -1.912   8.203  0.00  0.00    +0.059 A 
ATOM     28  C   UNL     1      -2.187  -2.134   6.846  0.00  0.00    +0.023 A 
ATOM     29 CL   UNL     1      -3.721  -2.566   9.035  0.00  0.00    -0.082 Cl
ATOM     30 CL   UNL     1      -1.603  -0.889  10.598  0.00  0.00    -0.082 Cl
ENDBRANCH  22  23
ENDBRANCH  20  22
ENDBRANCH  18  20
ENDBRANCH   9  18
TORSDOF 7
