REMARK  Name = ZINC20469988
REMARK  3 active torsions:
REMARK  status: ('A' for Active; 'I' for Inactive)
REMARK    1  A    between atoms: C_4  and  C_7
REMARK    2  A    between atoms: N_12  and  N_13
REMARK    3  A    between atoms: C_14  and  C_15
REMARK                            x       y       z     vdW  Elec       q    Type
REMARK                         _______ _______ _______ _____ _____    ______ ____
ROOT
ATOM      1  C   UNL     1       3.690  -0.678  -0.037  0.00  0.00    +0.028 C 
ATOM      2  C   UNL     1       3.716  -2.031   0.058  0.00  0.00    +0.078 C 
ATOM      3  C   UNL     1       4.875  -2.941   0.168  0.00  0.00    +0.256 C 
ATOM      4  N   UNL     1       4.614  -4.235   0.247  0.00  0.00    -0.259 N 
ATOM      5  C   UNL     1       3.315  -4.693   0.226  0.00  0.00    +0.187 C 
ATOM      6  N   UNL     1       2.884  -5.937   0.295  0.00  0.00    -0.126 NA
ATOM      7  S   UNL     1       2.358  -3.192   0.091  0.00  0.00    -0.047 S 
ATOM      8  O   UNL     1       6.016  -2.520   0.184  0.00  0.00    -0.269 OA
ATOM      9  H   UNL     1       5.345  -4.869   0.321  0.00  0.00    +0.157 HD
ENDROOT
BRANCH   1  13
ATOM     10  C   UNL     1       0.029   1.325  -0.787  0.00  0.00    +0.000 A 
ATOM     11  C   UNL     1       1.114   2.034  -0.301  0.00  0.00    +0.001 A 
ATOM     12  C   UNL     1       2.308   1.390  -0.055  0.00  0.00    +0.008 A 
ATOM     13  C   UNL     1       2.421   0.016  -0.297  0.00  0.00    -0.024 A 
ATOM     14  C   UNL     1       1.319  -0.693  -0.788  0.00  0.00    +0.008 A 
ATOM     15  C   UNL     1       0.132  -0.034  -1.029  0.00  0.00    +0.001 A 
ENDBRANCH   1  13
BRANCH   6  16
ATOM     16  N   UNL     1       1.618  -6.184   0.261  0.00  0.00    -0.155 NA
ATOM     17  C   UNL     1       1.190  -7.416   0.329  0.00  0.00    +0.143 C 
BRANCH  17  18
ATOM     18  C   UNL     1      -0.253  -7.697   0.290  0.00  0.00    -0.005 A 
ATOM     19  C   UNL     1      -1.171  -6.648   0.174  0.00  0.00    +0.009 A 
ATOM     20  C   UNL     1      -2.522  -6.919   0.139  0.00  0.00    +0.001 A 
ATOM     21  C   UNL     1      -2.972  -8.226   0.217  0.00  0.00    +0.000 A 
ATOM     22  C   UNL     1      -2.070  -9.270   0.332  0.00  0.00    +0.001 A 
ATOM     23  C   UNL     1      -0.715  -9.015   0.363  0.00  0.00    +0.009 A 
ENDBRANCH  17  18
ENDBRANCH   6  16
TORSDOF 3
