REMARK  Name = ZINC54534534
REMARK  2 active torsions:
REMARK  status: ('A' for Active; 'I' for Inactive)
REMARK    1  A    between atoms: C_1  and  C_2
REMARK    2  A    between atoms: C_9  and  C_18
REMARK                            x       y       z     vdW  Elec       q    Type
REMARK                         _______ _______ _______ _____ _____    ______ ____
ROOT
ATOM      1  C   UNL     1       0.983   0.472  -2.164  0.00  0.00    +0.009 C 
ATOM      2  C   UNL     1       0.661  -0.012  -0.749  0.00  0.00    +0.005 C 
ATOM      3  C   UNL     1      -0.226  -1.285  -0.793  0.00  0.00    +0.024 C 
ATOM      4  C   UNL     1       0.133  -1.960   0.555  0.00  0.00    +0.107 C 
ATOM      5  N   UNL     1       1.573  -1.703   0.734  0.00  0.00    -0.316 N 
ATOM      6  C   UNL     1       1.939  -0.500  -0.035  0.00  0.00    +0.109 C 
ATOM      7  C   UNL     1       2.437  -2.461   1.500  0.00  0.00    +0.113 A 
ATOM      8  C   UNL     1       2.709  -2.088   2.829  0.00  0.00    +0.101 A 
ATOM      9  C   UNL     1       3.592  -2.877   3.574  0.00  0.00    +0.023 A 
ATOM     10  C   UNL     1       4.162  -3.993   2.977  0.00  0.00    -0.027 A 
ATOM     11  C   UNL     1       3.845  -4.301   1.670  0.00  0.00    +0.021 A 
ATOM     12  N   UNL     1       3.003  -3.537   0.984  0.00  0.00    -0.346 N 
ATOM     13  C   UNL     1       4.413  -5.507   0.967  0.00  0.00    +0.053 C 
ATOM     14  C   UNL     1       5.653  -6.020   1.696  0.00  0.00    +0.006 C 
ATOM     15  C   UNL     1       5.304  -6.200   3.178  0.00  0.00    +0.005 C 
ATOM     16  C   UNL     1       5.115  -4.818   3.800  0.00  0.00    +0.037 C 
ATOM     17  H   UNL     1       2.798  -3.777   0.067  0.00  0.00    +0.167 HD
ENDROOT
BRANCH   8  18
ATOM     18  C   UNL     1       2.079  -0.899   3.421  0.00  0.00    +0.390 C 
ATOM     19  O   UNL     1       2.393  -0.536   4.547  0.00  0.00    -0.240 OA
ATOM     20  O   UNL     1       1.240  -0.272   2.788  0.00  0.00    -0.240 OA
ENDBRANCH   8  18
TORSDOF 1
