REMARK  Name = ZINC43667858
REMARK  4 active torsions:
REMARK  status: ('A' for Active; 'I' for Inactive)
REMARK    1  A    between atoms: C_1  and  C_2
REMARK    2  A    between atoms: C_4  and  N_19
REMARK    3  A    between atoms: N_5  and  C_7
REMARK    4  A    between atoms: C_7  and  C_8
REMARK                            x       y       z     vdW  Elec       q    Type
REMARK                         _______ _______ _______ _____ _____    ______ ____
ROOT
ATOM      1  C   UNL     1       0.053  -3.291   1.500  0.00  0.00    +0.180 C 
ENDROOT
BRANCH   1   2
ATOM      2  C   UNL     1       1.481  -3.677   1.791  0.00  0.00    -0.021 A 
ATOM      3  C   UNL     1       2.142  -4.557   0.955  0.00  0.00    +0.055 A 
ATOM      4  C   UNL     1       3.456  -4.913   1.219  0.00  0.00    +0.164 A 
ATOM      5  C   UNL     1       4.107  -4.382   2.325  0.00  0.00    +0.180 A 
ATOM      6  C   UNL     1       3.438  -3.500   3.162  0.00  0.00    +0.086 A 
ATOM      7  C   UNL     1       2.129  -3.145   2.890  0.00  0.00    +0.029 A 
ATOM      8 CL   UNL     1       4.247  -2.837   4.548  0.00  0.00    -0.080 Cl
ATOM      9  O   UNL     1       5.399  -4.713   2.598  0.00  0.00    -0.483 OA
ATOM     10  C   UNL     1       5.914  -5.882   1.952  0.00  0.00    +0.270 C 
ATOM     11  C   UNL     1       5.520  -5.826   0.470  0.00  0.00    +0.270 C 
ATOM     12  O   UNL     1       4.091  -5.784   0.388  0.00  0.00    -0.485 OA
ENDBRANCH   1   2
BRANCH   1  17
ATOM     13  C   UNL     1      -0.018   1.503   0.010  0.00  0.00    +0.069 C 
ATOM     14  C   UNL     1       0.002  -0.004   0.002  0.00  0.00    +0.080 A 
ATOM     15  C   UNL     1       0.008  -0.815  -1.136  0.00  0.00    +0.103 A 
ATOM     16  C   UNL     1       0.027  -2.113  -0.724  0.00  0.00    +0.134 A 
ATOM     17  N   UNL     1       0.034  -2.109   0.634  0.00  0.00    -0.245 N 
ATOM     18  N   UNL     1       0.023  -0.775   1.059  0.00  0.00    -0.173 NA
ATOM     19 CL   UNL     1      -0.008  -0.266  -2.783  0.00  0.00    -0.078 Cl
BRANCH  16  20
ATOM     20  N   UNL     1       0.039  -3.238  -1.545  0.00  0.00    -0.342 N 
ATOM     21  H   UNL     1       0.033  -3.135  -2.510  0.00  0.00    +0.144 HD
ATOM     22  H   UNL     1       0.052  -4.125  -1.153  0.00  0.00    +0.144 HD
ENDBRANCH  16  20
ENDBRANCH   1  17
TORSDOF 3
