REMARK  Name = ZINC30551286
REMARK  6 active torsions:
REMARK  status: ('A' for Active; 'I' for Inactive)
REMARK    1  A    between atoms: C_1  and  C_2
REMARK    2  A    between atoms: C_5  and  N_9
REMARK    3  A    between atoms: N_9  and  N_10
REMARK    4  A    between atoms: C_11  and  C_13
REMARK    5  A    between atoms: C_13  and  N_14
REMARK    6  A    between atoms: C_22  and  C_24
REMARK                            x       y       z     vdW  Elec       q    Type
REMARK                         _______ _______ _______ _____ _____    ______ ____
ROOT
ATOM      1  C   UNL     1       1.199  -2.169  -0.021  0.00  0.00    +0.215 C 
ENDROOT
BRANCH   1   2
ATOM      2  N   UNL     1       2.586  -2.638  -0.037  0.00  0.00    -0.215 N 
ATOM      3  C   UNL     1       3.292  -2.880  -1.161  0.00  0.00    +0.247 C 
ATOM      4  O   UNL     1       2.914  -2.755  -2.306  0.00  0.00    -0.273 OA
ATOM      5  C   UNL     1       4.654  -3.338  -0.692  0.00  0.00    +0.115 C 
ATOM      6  C   UNL     1       5.737  -2.379  -1.173  0.00  0.00    +0.035 C 
ATOM      7  C   UNL     1       5.800  -2.402  -2.703  0.00  0.00    +0.003 C 
ATOM      8  C   UNL     1       6.106  -3.824  -3.178  0.00  0.00    +0.000 C 
ATOM      9  C   UNL     1       4.998  -4.769  -2.708  0.00  0.00    +0.006 C 
ATOM     10  C   UNL     1       4.932  -4.756  -1.179  0.00  0.00    +0.018 C 
ATOM     11  C   UNL     1       3.811  -5.685  -0.709  0.00  0.00    +0.010 C 
ATOM     12  N   UNL     1       4.555  -3.307   0.773  0.00  0.00    -0.285 N 
ATOM     13  C   UNL     1       3.309  -2.886   1.062  0.00  0.00    +0.310 C 
ATOM     14  O   UNL     1       2.889  -2.745   2.194  0.00  0.00    -0.252 OA
ATOM     15  H   UNL     1       5.418  -3.601   1.389  0.00  0.00    +0.151 HD
ENDBRANCH   1   2
BRANCH   1  17
ATOM     16  N   UNL     1       0.002  -0.004   0.002  0.00  0.00    -0.235 N 
ATOM     17  C   UNL     1       1.178  -0.662  -0.013  0.00  0.00    +0.247 C 
ATOM     18  O   UNL     1       2.220  -0.041  -0.019  0.00  0.00    -0.273 OA
ATOM     19  H   UNL     1      -0.943  -0.567   0.008  0.00  0.00    +0.173 HD
BRANCH  16  20
ATOM     20  N   UNL     1      -0.017   1.397   0.010  0.00  0.00    -0.264 N 
ATOM     21  H   UNL     1       0.928   1.960   0.008  0.00  0.00    +0.170 HD
BRANCH  20  26
ATOM     22  C   UNL     1      -4.968   4.163   0.049  0.00  0.00    +0.045 C 
ATOM     23  C   UNL     1      -3.652   3.428   0.038  0.00  0.00    -0.032 A 
ATOM     24  C   UNL     1      -3.634   2.046   0.030  0.00  0.00    +0.006 A 
ATOM     25  C   UNL     1      -2.430   1.369   0.015  0.00  0.00    +0.025 A 
ATOM     26  C   UNL     1      -1.236   2.079   0.019  0.00  0.00    +0.046 A 
ATOM     27  C   UNL     1      -1.256   3.467   0.027  0.00  0.00    +0.044 A 
ATOM     28  C   UNL     1      -2.465   4.139   0.036  0.00  0.00    +0.046 A 
ATOM     29 CL   UNL     1      -2.492   5.875   0.046  0.00  0.00    -0.083 Cl
ENDBRANCH  20  26
ENDBRANCH  16  20
ENDBRANCH   1  17
TORSDOF 4
