REMARK  Name = ZINC39468739
REMARK  4 active torsions:
REMARK  status: ('A' for Active; 'I' for Inactive)
REMARK    1  A    between atoms: C_4  and  C_7
REMARK    2  A    between atoms: C_7  and  C_8
REMARK    3  A    between atoms: C_25  and  C_26
REMARK    4  A    between atoms: C_31  and  O_32
REMARK                            x       y       z     vdW  Elec       q    Type
REMARK                         _______ _______ _______ _____ _____    ______ ____
ROOT
ATOM      1  C   UNL     1       4.164  -0.959   1.377  0.00  0.00    -0.039 C 
ATOM      2  C   UNL     1       3.893  -2.117   1.967  0.00  0.00    -0.019 C 
ATOM      3  C   UNL     1       4.361  -2.364   3.382  0.00  0.00    +0.016 C 
ATOM      4  C   UNL     1       3.381  -1.693   4.347  0.00  0.00    -0.003 C 
ATOM      5  C   UNL     1       3.885  -1.806   5.790  0.00  0.00    -0.020 C 
ATOM      6  C   UNL     1       2.852  -1.107   6.684  0.00  0.00    +0.159 C 
ATOM      7  O   UNL     1       3.247  -1.227   8.062  0.00  0.00    -0.297 OA
ATOM      8  P   UNL     1       4.773  -0.813   8.448  0.00  0.00    +0.421 P 
ATOM      9  O   UNL     1       5.199  -1.503   9.763  0.00  0.00    -0.239 OA
ATOM     10  N   UNL     1       5.699  -1.352   7.193  0.00  0.00    -0.267 NA
ATOM     11  N   UNL     1       5.205  -1.183   5.916  0.00  0.00    +0.399 N 
ATOM     12  C   UNL     1       6.170  -1.843   5.022  0.00  0.00    -0.046 C 
ATOM     13  C   UNL     1       5.748  -1.739   3.561  0.00  0.00    +0.005 C 
ATOM     14  C   UNL     1       5.701  -0.291   3.150  0.00  0.00    -0.016 C 
ATOM     15  C   UNL     1       4.919   0.080   2.112  0.00  0.00    -0.015 C 
ATOM     16  O   UNL     1       4.893   0.722   8.587  0.00  0.00    -0.128 OA
ATOM     17  H   UNL     1       6.560  -1.770   7.349  0.00  0.00    +0.113 HD
ATOM     18  H   UNL     1       5.139  -0.200   5.700  0.00  0.00    -0.055 HD
ENDROOT
BRANCH  15  19
ATOM     19  C   UNL     1       4.833   1.502   1.699  0.00  0.00    +0.024 A 
ATOM     20  C   UNL     1       5.500   1.940   0.557  0.00  0.00    +0.012 A 
ATOM     21  C   UNL     1       5.417   3.264   0.176  0.00  0.00    +0.001 A 
ATOM     22  C   UNL     1       4.674   4.159   0.926  0.00  0.00    +0.004 A 
ATOM     23  C   UNL     1       4.009   3.735   2.061  0.00  0.00    +0.046 A 
ATOM     24  C   UNL     1       4.079   2.407   2.451  0.00  0.00    +0.125 A 
BRANCH  24  25
ATOM     25  O   UNL     1       3.421   1.988   3.564  0.00  0.00    -0.506 OA
ATOM     26  H   UNL     1       3.942   2.052   4.376  0.00  0.00    +0.292 HD
ENDBRANCH  24  25
ENDBRANCH  15  19
BRANCH   1  27
ATOM     27  C   UNL     1       3.711  -0.707  -0.038  0.00  0.00    +0.070 C 
BRANCH  27  31
ATOM     28  C   UNL     1      -0.017   1.378   0.010  0.00  0.00    +0.000 A 
ATOM     29  C   UNL     1       1.171   2.086   0.002  0.00  0.00    +0.000 A 
ATOM     30  C   UNL     1       2.377   1.411  -0.013  0.00  0.00    +0.004 A 
ATOM     31  C   UNL     1       2.396   0.029  -0.020  0.00  0.00    -0.043 A 
ATOM     32  C   UNL     1       1.208  -0.679  -0.012  0.00  0.00    +0.004 A 
ATOM     33  C   UNL     1       0.002  -0.004   0.002  0.00  0.00    +0.000 A 
ENDBRANCH  27  31
ENDBRANCH   1  27
TORSDOF 4
