REMARK  Name = ZINC20153271
REMARK  10 active torsions:
REMARK  status: ('A' for Active; 'I' for Inactive)
REMARK    1  A    between atoms: C_1  and  C_2
REMARK    2  A    between atoms: C_5  and  C_8
REMARK    3  A    between atoms: C_8  and  N_9
REMARK    4  A    between atoms: C_10  and  C_12
REMARK    5  A    between atoms: C_12  and  C_13
REMARK    6  A    between atoms: C_13  and  C_14
REMARK    7  A    between atoms: C_14  and  N_15
REMARK    8  A    between atoms: N_24  and  C_27
REMARK    9  A    between atoms: C_27  and  C_28
REMARK   10  A    between atoms: C_33  and  C_39
REMARK                            x       y       z     vdW  Elec       q    Type
REMARK                         _______ _______ _______ _____ _____    ______ ____
ROOT
ATOM      1  N   UNL     1       0.899  -0.726  -0.329  0.00  0.00    -0.260 N 
ATOM      2  C   UNL     1      -0.316  -0.141  -0.417  0.00  0.00    +0.264 A 
ATOM      3  O   UNL     1      -1.327  -0.812  -0.489  0.00  0.00    -0.267 OA
ATOM      4  C   UNL     1      -0.383   1.331  -0.423  0.00  0.00    +0.063 A 
ATOM      5  C   UNL     1      -1.597   2.009  -0.505  0.00  0.00    +0.015 A 
ATOM      6  C   UNL     1      -1.606   3.388  -0.513  0.00  0.00    +0.001 A 
ATOM      7  C   UNL     1      -0.418   4.098  -0.428  0.00  0.00    +0.002 A 
ATOM      8  C   UNL     1       0.791   3.439  -0.341  0.00  0.00    +0.027 A 
ATOM      9  C   UNL     1       0.821   2.053  -0.337  0.00  0.00    +0.059 A 
ATOM     10  N   UNL     1       2.014   1.351  -0.251  0.00  0.00    -0.287 N 
ATOM     11  C   UNL     1       2.021   0.007  -0.249  0.00  0.00    +0.333 A 
ATOM     12  O   UNL     1       3.088  -0.570  -0.172  0.00  0.00    -0.246 OA
ENDROOT
BRANCH   1  13
ATOM     13  C   UNL     1       0.994  -2.188  -0.321  0.00  0.00    +0.130 C 
BRANCH  13  14
ATOM     14  C   UNL     1       1.130  -2.697  -1.757  0.00  0.00    +0.031 C 
BRANCH  14  15
ATOM     15  C   UNL     1       1.229  -4.224  -1.749  0.00  0.00    +0.097 C 
BRANCH  15  17
ATOM     16  N   UNL     1       1.466  -6.049  -3.402  0.00  0.00    -0.311 N 
ATOM     17  C   UNL     1       1.363  -4.726  -3.164  0.00  0.00    +0.213 C 
ATOM     18  O   UNL     1       1.378  -3.941  -4.088  0.00  0.00    -0.276 OA
ATOM     19  H   UNL     1       1.453  -6.762  -2.565  0.00  0.00    +0.149 HD
BRANCH  16  20
ATOM     20  C   UNL     1       1.597  -6.537  -4.778  0.00  0.00    +0.139 C 
BRANCH  20  25
ATOM     21  C   UNL     1       1.970 -12.304  -4.748  0.00  0.00    +0.044 C 
ATOM     22  C   UNL     1       1.873 -10.800  -4.756  0.00  0.00    -0.050 A 
ATOM     23  C   UNL     1       0.637 -10.188  -4.844  0.00  0.00    +0.003 A 
ATOM     24  C   UNL     1       0.547  -8.808  -4.852  0.00  0.00    +0.005 A 
ATOM     25  C   UNL     1       1.694  -8.041  -4.770  0.00  0.00    -0.030 A 
ATOM     26  C   UNL     1       2.931  -8.653  -4.686  0.00  0.00    +0.005 A 
ATOM     27  C   UNL     1       3.020 -10.032  -4.674  0.00  0.00    +0.003 A 
ENDBRANCH  20  25
ENDBRANCH  16  20
ENDBRANCH  15  17
ENDBRANCH  14  15
ENDBRANCH  13  14
ENDBRANCH   1  13
BRANCH  10  28
ATOM     28  C   UNL     1       3.281   2.083  -0.161  0.00  0.00    +0.182 C 
BRANCH  28  29
ATOM     29  C   UNL     1       3.816   2.332  -1.547  0.00  0.00    +0.069 A 
ATOM     30  C   UNL     1       3.916   3.624  -2.026  0.00  0.00    +0.095 A 
ATOM     31  C   UNL     1       4.421   3.831  -3.315  0.00  0.00    +0.259 A 
ATOM     32  O   UNL     1       4.526   4.961  -3.765  0.00  0.00    -0.267 OA
ATOM     33  N   UNL     1       4.785   2.762  -4.054  0.00  0.00    -0.265 N 
ATOM     34  C   UNL     1       5.272   2.946  -5.312  0.00  0.00    +0.025 A 
ATOM     35  C   UNL     1       5.644   1.891  -6.071  0.00  0.00    +0.021 A 
ATOM     36  C   UNL     1       5.530   0.587  -5.569  0.00  0.00    +0.005 A 
ATOM     37  C   UNL     1       5.043   0.392  -4.311  0.00  0.00    +0.047 A 
ATOM     38  C   UNL     1       4.662   1.502  -3.536  0.00  0.00    +0.141 A 
ATOM     39  N   UNL     1       4.185   1.313  -2.307  0.00  0.00    -0.232 NA
ATOM     40  C   UNL     1       5.399   4.343  -5.865  0.00  0.00    +0.064 C 
ENDBRANCH  28  29
ENDBRANCH  10  28
TORSDOF 8
