REMARK  Name = ZINC30947438
REMARK  7 active torsions:
REMARK  status: ('A' for Active; 'I' for Inactive)
REMARK    1  A    between atoms: C_1  and  N_2
REMARK    2  A    between atoms: N_2  and  C_3
REMARK    3  A    between atoms: N_2  and  S_4
REMARK    4  A    between atoms: S_4  and  C_7
REMARK    5  A    between atoms: C_16  and  C_18
REMARK    6  A    between atoms: N_21  and  C_24
REMARK    7  A    between atoms: C_24  and  C_25
REMARK                            x       y       z     vdW  Elec       q    Type
REMARK                         _______ _______ _______ _____ _____    ______ ____
ROOT
ATOM      1  C   UNL     1       1.936   6.259   0.293  0.00  0.00    +0.106 A 
ATOM      2  C   UNL     1       0.610   5.870   0.334  0.00  0.00    +0.030 A 
ATOM      3  C   UNL     1       0.274   4.536   0.242  0.00  0.00    +0.026 A 
ATOM      4  C   UNL     1       1.270   3.567   0.103  0.00  0.00    +0.040 A 
ATOM      5  C   UNL     1       2.597   3.967   0.069  0.00  0.00    -0.023 A 
ATOM      6  C   UNL     1       2.928   5.305   0.161  0.00  0.00    +0.034 A 
ATOM      7  C   UNL     1       3.466   2.738  -0.079  0.00  0.00    +0.056 C 
ATOM      8  C   UNL     1       2.473   1.565  -0.121  0.00  0.00    +0.118 C 
ATOM      9  N   UNL     1       1.148   2.178   0.002  0.00  0.00    -0.271 N 
ATOM     10  C   UNL     1      -0.018   1.503   0.010  0.00  0.00    +0.223 C 
ATOM     11  O   UNL     1      -1.069   2.108   0.021  0.00  0.00    -0.275 OA
ENDROOT
BRANCH  10  12
ATOM     12  C   UNL     1      -0.017  -0.004   0.001  0.00  0.00    +0.072 C 
ATOM     13  C   UNL     1      -0.157  -0.507  -1.439  0.00  0.00    -0.006 C 
ATOM     14  C   UNL     1      -0.215  -2.036  -1.437  0.00  0.00    -0.078 C 
ATOM     15  N   UNL     1      -1.359  -2.482  -0.630  0.00  0.00    +0.382 N 
ATOM     16  C   UNL     1      -1.222  -2.051   0.767  0.00  0.00    -0.078 C 
ATOM     17  C   UNL     1      -1.194  -0.523   0.831  0.00  0.00    -0.006 C 
ATOM     18  H   UNL     1      -2.263  -2.009  -1.040  0.00  0.00    -0.081 HD
BRANCH  15  19
ATOM     19  C   UNL     1      -1.528  -3.939  -0.718  0.00  0.00    -0.042 C 
BRANCH  19  20
ATOM     20  C   UNL     1      -1.908  -4.316  -2.127  0.00  0.00    -0.046 A 
ATOM     21  C   UNL     1      -0.974  -4.902  -2.961  0.00  0.00    +0.004 A 
ATOM     22  C   UNL     1      -1.322  -5.248  -4.253  0.00  0.00    +0.020 A 
ATOM     23  C   UNL     1      -2.605  -5.009  -4.712  0.00  0.00    +0.042 A 
ATOM     24  C   UNL     1      -3.540  -4.423  -3.878  0.00  0.00    +0.040 A 
ATOM     25  C   UNL     1      -3.193  -4.081  -2.583  0.00  0.00    +0.044 A 
ATOM     26 CL   UNL     1      -4.367  -3.352  -1.533  0.00  0.00    -0.083 Cl
ATOM     27 CL   UNL     1      -3.041  -5.444  -6.335  0.00  0.00    -0.083 Cl
ENDBRANCH  19  20
ENDBRANCH  15  19
ENDBRANCH  10  12
BRANCH   1  28
ATOM     28  S   UNL     1       2.361   7.965   0.410  0.00  0.00    +0.060 S 
ATOM     29  O   UNL     1       1.282   8.607   1.075  0.00  0.00    -0.153 OA
ATOM     30  O   UNL     1       3.695   8.019   0.895  0.00  0.00    -0.153 OA
BRANCH  28  32
ATOM     31  C   UNL     1       1.178   9.135  -1.722  0.00  0.00    +0.131 C 
ATOM     32  N   UNL     1       2.393   8.568  -1.131  0.00  0.00    -0.183 NA
ATOM     33  C   UNL     1       3.637   8.536  -1.905  0.00  0.00    +0.131 C 
ENDBRANCH  28  32
ENDBRANCH   1  28
TORSDOF 5
