REMARK  Name = ZINC00195126
REMARK  2 active torsions:
REMARK  status: ('A' for Active; 'I' for Inactive)
REMARK    1  A    between atoms: C_15  and  C_17
REMARK    2  A    between atoms: C_21  and  N_23
REMARK                            x       y       z     vdW  Elec       q    Type
REMARK                         _______ _______ _______ _____ _____    ______ ____
ROOT
ATOM      1  C   UNL     1      -0.016   1.357   0.009  0.00  0.00    +0.001 A 
ATOM      2  C   UNL     1       1.169   2.090   0.002  0.00  0.00    +0.001 A 
ATOM      3  C   UNL     1       2.378   1.466  -0.014  0.00  0.00    +0.010 A 
ATOM      4  C   UNL     1       2.437   0.064  -0.023  0.00  0.00    +0.004 A 
ATOM      5  C   UNL     1       1.233  -0.683  -0.014  0.00  0.00    -0.016 A 
ATOM      6  C   UNL     1       0.002  -0.004   0.002  0.00  0.00    +0.008 A 
ATOM      7  C   UNL     1       1.291  -2.087  -0.021  0.00  0.00    +0.009 A 
ATOM      8  C   UNL     1       2.497  -2.717  -0.039  0.00  0.00    +0.006 A 
ATOM      9  C   UNL     1       3.688  -1.996  -0.050  0.00  0.00    -0.018 A 
ATOM     10  C   UNL     1       3.672  -0.618  -0.041  0.00  0.00    +0.045 A 
ATOM     11  N   UNL     1       4.869   0.099  -0.052  0.00  0.00    -0.285 N 
ATOM     12  C   UNL     1       6.023  -0.494   0.304  0.00  0.00    +0.218 C 
ATOM     13  O   UNL     1       7.057   0.141   0.282  0.00  0.00    -0.275 OA
ATOM     14  C   UNL     1       6.043  -1.938   0.730  0.00  0.00    +0.109 C 
ATOM     15  C   UNL     1       5.007  -2.727  -0.070  0.00  0.00    +0.060 C 
ATOM     16  H   UNL     1       4.869   1.031  -0.319  0.00  0.00    +0.155 HD
ENDROOT
BRANCH  15  17
ATOM     17  C   UNL     1       5.478  -2.872  -1.494  0.00  0.00    -0.037 A 
ATOM     18  C   UNL     1       5.713  -1.747  -2.263  0.00  0.00    +0.004 A 
ATOM     19  C   UNL     1       6.146  -1.880  -3.568  0.00  0.00    +0.003 A 
ATOM     20  C   UNL     1       6.343  -3.139  -4.106  0.00  0.00    +0.033 A 
ATOM     21  C   UNL     1       6.109  -4.263  -3.338  0.00  0.00    +0.126 A 
ATOM     22  C   UNL     1       5.681  -4.130  -2.030  0.00  0.00    +0.037 A 
BRANCH  21  23
ATOM     23  N   UNL     1       6.320  -5.610  -3.913  0.00  0.00    +0.056 N 
ATOM     24  O   UNL     1       6.698  -5.727  -5.056  0.00  0.00    -0.126 OA
ATOM     25  O   UNL     1       6.116  -6.594  -3.241  0.00  0.00    -0.126 OA
ENDBRANCH  21  23
ENDBRANCH  15  17
TORSDOF 2
