REMARK  Name = ZINC65564026
REMARK  11 active torsions:
REMARK  status: ('A' for Active; 'I' for Inactive)
REMARK    1  A    between atoms: C_1  and  C_2
REMARK    2  A    between atoms: C_2  and  C_3
REMARK    3  A    between atoms: C_2  and  C_4
REMARK    4  A    between atoms: C_4  and  N_5
REMARK    5  A    between atoms: N_10  and  C_11
REMARK    6  A    between atoms: C_11  and  C_13
REMARK    7  A    between atoms: C_15  and  C_20
REMARK    8  A    between atoms: C_17  and  C_18
REMARK    9  A    between atoms: C_17  and  C_19
REMARK   10  A    between atoms: C_21  and  C_22
REMARK   11  A    between atoms: C_21  and  C_23
REMARK                            x       y       z     vdW  Elec       q    Type
REMARK                         _______ _______ _______ _____ _____    ______ ____
ROOT
ATOM      1  N   UNL     1       2.102  -4.408   0.951  0.00  0.00    -0.319 N 
ATOM      2  C   UNL     1       1.916  -4.730  -0.381  0.00  0.00    +0.106 A 
ATOM      3  C   UNL     1       0.611  -4.684  -0.638  0.00  0.00    +0.103 A 
ATOM      4  N   UNL     1      -0.042  -4.332   0.529  0.00  0.00    -0.333 N 
ATOM      5  C   UNL     1       0.888  -4.172   1.497  0.00  0.00    +0.200 A 
ATOM      6  N   UNL     1       0.651  -3.838   2.766  0.00  0.00    -0.146 NA
ATOM      7  H   UNL     1      -1.000  -4.223   0.636  0.00  0.00    +0.168 HD
ENDROOT
BRANCH   6   8
ATOM      8  C   UNL     1      -0.595  -3.633   3.176  0.00  0.00    +0.243 C 
ATOM      9  O   UNL     1      -1.520  -3.750   2.395  0.00  0.00    -0.273 OA
BRANCH   8  10
ATOM     10  C   UNL     1      -0.863  -3.256   4.611  0.00  0.00    +0.091 C 
ATOM     11  C   UNL     1      -2.309  -3.339   5.104  0.00  0.00    +0.030 C 
ATOM     12  C   UNL     1      -1.281  -4.373   5.569  0.00  0.00    -0.016 C 
ATOM     13  C   UNL     1      -1.394  -5.788   4.998  0.00  0.00    +0.012 C 
ATOM     14  C   UNL     1      -0.792  -4.282   7.016  0.00  0.00    +0.012 C 
BRANCH  11  15
ATOM     15  C   UNL     1      -3.356  -3.791   4.119  0.00  0.00    -0.023 C 
ATOM     16  C   UNL     1      -4.626  -3.720   4.433  0.00  0.00    -0.079 C 
ATOM     17  C   UNL     1      -5.040  -3.186   5.780  0.00  0.00    +0.038 C 
ATOM     18  C   UNL     1      -5.672  -4.173   3.448  0.00  0.00    +0.038 C 
ENDBRANCH  11  15
ENDBRANCH   8  10
ENDBRANCH   6   8
BRANCH   1  19
ATOM     19  C   UNL     1       3.388  -4.341   1.649  0.00  0.00    +0.127 C 
BRANCH  19  21
ATOM     20  C   UNL     1       5.119  -5.676   2.860  0.00  0.00    +0.009 C 
ATOM     21  C   UNL     1       3.721  -5.713   2.239  0.00  0.00    +0.003 C 
ATOM     22  C   UNL     1       2.694  -6.068   3.316  0.00  0.00    +0.009 C 
ENDBRANCH  19  21
ENDBRANCH   1  19
TORSDOF 5
