REMARK  Name = ZINC45808809
REMARK  4 active torsions:
REMARK  status: ('A' for Active; 'I' for Inactive)
REMARK    1  A    between atoms: C_5  and  N_7
REMARK    2  A    between atoms: N_10  and  C_13
REMARK    3  A    between atoms: C_13  and  N_14
REMARK    4  A    between atoms: C_18  and  C_21
REMARK                            x       y       z     vdW  Elec       q    Type
REMARK                         _______ _______ _______ _____ _____    ______ ____
ROOT
ATOM      1  C   UNL     1      -0.017   1.373   0.010  0.00  0.00    +0.003 A 
ATOM      2  C   UNL     1       1.169   2.097   0.002  0.00  0.00    +0.014 A 
ATOM      3  C   UNL     1       2.383   1.433  -0.013  0.00  0.00    +0.051 A 
ATOM      4  C   UNL     1       2.412   0.022  -0.021  0.00  0.00    +0.070 A 
ATOM      5  C   UNL     1       1.217  -0.694  -0.013  0.00  0.00    +0.038 A 
ATOM      6  C   UNL     1       0.002  -0.004   0.002  0.00  0.00    +0.023 A 
ATOM      7  C   UNL     1       3.836  -0.353  -0.036  0.00  0.00    +0.257 C 
ATOM      8  O   UNL     1       4.270  -1.488  -0.047  0.00  0.00    -0.269 OA
ATOM      9  N   UNL     1       4.577   0.770  -0.037  0.00  0.00    -0.220 N 
ATOM     10  C   UNL     1       3.796   1.865  -0.024  0.00  0.00    +0.255 C 
ATOM     11  O   UNL     1       4.186   3.016  -0.021  0.00  0.00    -0.269 OA
ENDROOT
BRANCH   5  12
ATOM     12  N   UNL     1       1.233  -2.081  -0.021  0.00  0.00    -0.357 N 
ATOM     13  H   UNL     1       2.078  -2.556  -0.032  0.00  0.00    +0.142 HD
ATOM     14  H   UNL     1       0.398  -2.575  -0.015  0.00  0.00    +0.142 HD
ENDBRANCH   5  12
BRANCH   9  15
ATOM     15  C   UNL     1       6.042   0.797  -0.051  0.00  0.00    +0.204 C 
BRANCH  15  16
ATOM     16  N   UNL     1       6.518   0.813  -1.441  0.00  0.00    -0.286 NA
ATOM     17  C   UNL     1       6.457   2.169  -2.002  0.00  0.00    +0.086 C 
ATOM     18  C   UNL     1       6.820   2.124  -3.488  0.00  0.00    +0.016 C 
ATOM     19  C   UNL     1       8.231   1.549  -3.646  0.00  0.00    +0.015 C 
ATOM     20  C   UNL     1       8.280   0.157  -3.011  0.00  0.00    +0.107 C 
ATOM     21  C   UNL     1       7.875   0.259  -1.539  0.00  0.00    +0.098 C 
BRANCH  20  22
ATOM     22  C   UNL     1       9.701  -0.401  -3.112  0.00  0.00    +0.394 C 
ATOM     23  F   UNL     1      10.585   0.450  -2.440  0.00  0.00    -0.170 F 
ATOM     24  F   UNL     1       9.746  -1.673  -2.531  0.00  0.00    -0.170 F 
ATOM     25  F   UNL     1      10.073  -0.489  -4.458  0.00  0.00    -0.170 F 
ENDBRANCH  20  22
ENDBRANCH  15  16
ENDBRANCH   9  15
TORSDOF 4
