REMARK  Name = ZINC66977968
REMARK  10 active torsions:
REMARK  status: ('A' for Active; 'I' for Inactive)
REMARK    1  A    between atoms: C_1  and  C_2
REMARK    2  A    between atoms: C_2  and  C_3
REMARK    3  A    between atoms: C_3  and  C_4
REMARK    4  A    between atoms: C_4  and  N_5
REMARK    5  A    between atoms: C_8  and  N_11
REMARK    6  A    between atoms: C_17  and  N_20
REMARK    7  A    between atoms: N_20  and  C_21
REMARK    8  A    between atoms: N_20  and  S_22
REMARK    9  A    between atoms: S_22  and  C_25
REMARK   10  A    between atoms: C_25  and  C_26
REMARK                            x       y       z     vdW  Elec       q    Type
REMARK                         _______ _______ _______ _____ _____    ______ ____
ROOT
ATOM      1  N   UNL     1       4.057  -4.431  -5.142  0.00  0.00    -0.297 N 
ATOM      2  C   UNL     1       4.560  -5.673  -5.287  0.00  0.00    +0.302 C 
ATOM      3  O   UNL     1       4.597  -6.429  -4.335  0.00  0.00    -0.253 OA
ATOM      4  N   UNL     1       5.023  -6.077  -6.486  0.00  0.00    -0.286 N 
ATOM      5  C   UNL     1       5.467  -7.463  -6.689  0.00  0.00    +0.111 C 
ATOM      6  C   UNL     1       4.722  -8.047  -7.894  0.00  0.00    +0.039 C 
ATOM      7  C   UNL     1       4.928  -7.138  -9.107  0.00  0.00    +0.082 C 
ATOM      8  C   UNL     1       4.353  -5.751  -8.810  0.00  0.00    +0.039 C 
ATOM      9  C   UNL     1       5.087  -5.142  -7.617  0.00  0.00    +0.111 C 
ATOM     10  H   UNL     1       4.095  -3.803  -5.880  0.00  0.00    +0.151 HD
ENDROOT
BRANCH   1  14
ATOM     11  N   UNL     1       1.422  -2.503  -2.476  0.00  0.00    +0.380 N 
ATOM     12  C   UNL     1       2.829  -2.087  -2.430  0.00  0.00    -0.077 C 
ATOM     13  C   UNL     1       3.532  -2.507  -3.723  0.00  0.00    +0.004 C 
ATOM     14  C   UNL     1       3.453  -4.029  -3.869  0.00  0.00    +0.071 C 
ATOM     15  C   UNL     1       1.983  -4.459  -3.841  0.00  0.00    +0.004 C 
ATOM     16  C   UNL     1       1.338  -3.967  -2.544  0.00  0.00    -0.077 C 
ATOM     17  H   UNL     1       0.982  -2.104  -3.292  0.00  0.00    -0.082 HD
BRANCH  11  18
ATOM     18  C   UNL     1       0.733  -2.030  -1.268  0.00  0.00    -0.079 C 
BRANCH  18  19
ATOM     19  C   UNL     1       0.712  -0.500  -1.259  0.00  0.00    -0.019 C 
BRANCH  19  21
ATOM     20  C   UNL     1      -0.027   1.522   0.008  0.00  0.00    +0.004 C 
ATOM     21  C   UNL     1      -0.006  -0.007  -0.001  0.00  0.00    -0.005 C 
ENDBRANCH  19  21
ENDBRANCH  18  19
ENDBRANCH  11  18
ENDBRANCH   1  14
BRANCH   7  22
ATOM     22  N   UNL     1       4.245  -7.711 -10.268  0.00  0.00    -0.181 NA
ATOM     23  C   UNL     1       2.797  -7.930 -10.232  0.00  0.00    +0.131 C 
BRANCH  22  24
ATOM     24  S   UNL     1       5.109  -8.111 -11.623  0.00  0.00    +0.032 S 
ATOM     25  O   UNL     1       4.172  -8.031 -12.688  0.00  0.00    -0.158 OA
ATOM     26  O   UNL     1       6.246  -7.259 -11.593  0.00  0.00    -0.158 OA
BRANCH  24  27
ATOM     27  C   UNL     1       5.613  -9.834 -11.363  0.00  0.00    +0.182 C 
ATOM     28  C   UNL     1       6.427 -10.315 -12.565  0.00  0.00    +0.029 C 
ENDBRANCH  24  27
ENDBRANCH  22  24
ENDBRANCH   7  22
TORSDOF 7
