REMARK  Name = ZINC00076907
REMARK  2 active torsions:
REMARK  status: ('A' for Active; 'I' for Inactive)
REMARK    1  A    between atoms: C_1  and  C_2
REMARK    2  A    between atoms: C_12  and  C_13
REMARK                            x       y       z     vdW  Elec       q    Type
REMARK                         _______ _______ _______ _____ _____    ______ ____
ROOT
ATOM      1  C   UNL     1      -0.013   1.086   0.008  0.00  0.00    +0.073 C 
ATOM      2  C   UNL     1      -0.718   1.572   1.248  0.00  0.00    +0.125 A 
ATOM      3  C   UNL     1      -1.255   0.608   2.216  0.00  0.00    +0.295 A 
ATOM      4  O   UNL     1      -1.139  -0.594   2.033  0.00  0.00    -0.264 OA
ATOM      5  N   UNL     1      -1.875   1.081   3.305  0.00  0.00    -0.181 NA
ATOM      6  C   UNL     1      -1.996   2.372   3.496  0.00  0.00    +0.201 A 
ATOM      7  N   UNL     1      -1.516   3.317   2.628  0.00  0.00    -0.170 N 
ATOM      8  N   UNL     1      -0.849   2.842   1.466  0.00  0.00    -0.161 NA
ATOM      9  C   UNL     1      -1.700   4.613   2.931  0.00  0.00    +0.287 A 
ATOM     10  O   UNL     1      -1.293   5.491   2.194  0.00  0.00    -0.265 OA
ATOM     11  C   UNL     1      -2.406   4.940   4.175  0.00  0.00    +0.083 A 
ATOM     12  C   UNL     1      -2.716   6.155   4.700  0.00  0.00    +0.032 C 
ATOM     13  S   UNL     1      -2.749   3.307   4.811  0.00  0.00    -0.044 S 
ENDROOT
BRANCH  12  14
ATOM     14  C   UNL     1      -3.437   6.241   5.975  0.00  0.00    +0.030 A 
ATOM     15  C   UNL     1      -2.958   7.069   7.002  0.00  0.00    +0.132 A 
ATOM     16  C   UNL     1      -3.645   7.143   8.198  0.00  0.00    +0.039 A 
ATOM     17  C   UNL     1      -4.800   6.405   8.384  0.00  0.00    +0.004 A 
ATOM     18  C   UNL     1      -5.279   5.586   7.377  0.00  0.00    +0.021 A 
ATOM     19  C   UNL     1      -4.611   5.502   6.173  0.00  0.00    +0.051 A 
ATOM     20 CL   UNL     1      -5.218   4.479   4.909  0.00  0.00    -0.083 Cl
ATOM     21  F   UNL     1      -1.830   7.790   6.821  0.00  0.00    -0.205 F 
ENDBRANCH  12  14
TORSDOF 1
