REMARK  Name = ZINC33007189
REMARK  5 active torsions:
REMARK  status: ('A' for Active; 'I' for Inactive)
REMARK    1  A    between atoms: C_6  and  S_7
REMARK    2  A    between atoms: S_7  and  N_10
REMARK    3  A    between atoms: N_10  and  C_11
REMARK    4  A    between atoms: C_14  and  N_20
REMARK    5  A    between atoms: C_16  and  C_17
REMARK                            x       y       z     vdW  Elec       q    Type
REMARK                         _______ _______ _______ _____ _____    ______ ____
ROOT
ATOM      1  C   UNL     1      -1.268   1.565   0.036  0.00  0.00    +0.062 A 
ATOM      2  C   UNL     1      -1.591   2.556  -0.882  0.00  0.00    +0.027 A 
ATOM      3  C   UNL     1      -2.833   3.153  -0.850  0.00  0.00    +0.025 A 
ATOM      4  C   UNL     1      -3.774   2.769   0.102  0.00  0.00    +0.031 A 
ATOM      5  C   UNL     1      -3.469   1.784   1.024  0.00  0.00    +0.040 A 
ATOM      6  C   UNL     1      -2.214   1.168   0.994  0.00  0.00    +0.087 A 
ENDROOT
BRANCH   4   7
ATOM      7  N   UNL     1      -5.033   3.381   0.126  0.00  0.00    -0.330 N 
ATOM      8  C   UNL     1      -4.914   4.831   0.425  0.00  0.00    +0.105 C 
ATOM      9  C   UNL     1      -6.251   5.412  -0.098  0.00  0.00    +0.020 C 
ATOM     10  C   UNL     1      -6.510   4.585  -1.379  0.00  0.00    +0.020 C 
ATOM     11  C   UNL     1      -5.689   3.295  -1.197  0.00  0.00    +0.105 C 
ENDBRANCH   4   7
BRANCH   6  12
ATOM     12  C   UNL     1      -1.883   0.114   1.968  0.00  0.00    +0.388 C 
ATOM     13  O   UNL     1      -0.789  -0.415   1.943  0.00  0.00    -0.241 OA
ATOM     14  O   UNL     1      -2.794  -0.264   2.887  0.00  0.00    -0.241 OA
ENDBRANCH   6  12
BRANCH   1  15
ATOM     15  N   UNL     1      -0.015   0.963   0.002  0.00  0.00    -0.215 N 
ATOM     16  H   UNL     1       0.089  -0.106   0.241  0.00  0.00    +0.174 HD
BRANCH  15  17
ATOM     17  S   UNL     1       1.321   1.855  -0.400  0.00  0.00    +0.072 S 
ATOM     18  O   UNL     1       2.446   1.006  -0.217  0.00  0.00    -0.150 OA
ATOM     19  O   UNL     1       1.033   2.481  -1.642  0.00  0.00    -0.150 OA
BRANCH  17  25
ATOM     20  C   UNL     1       0.846   4.361   0.573  0.00  0.00    +0.030 A 
ATOM     21  C   UNL     1       0.953   5.371   1.510  0.00  0.00    +0.022 A 
ATOM     22  C   UNL     1       1.688   5.168   2.664  0.00  0.00    +0.041 A 
ATOM     23  C   UNL     1       2.312   3.952   2.881  0.00  0.00    +0.022 A 
ATOM     24  C   UNL     1       2.200   2.941   1.946  0.00  0.00    +0.030 A 
ATOM     25  C   UNL     1       1.464   3.144   0.793  0.00  0.00    +0.109 A 
ATOM     26 CL   UNL     1       1.829   6.438   3.839  0.00  0.00    -0.084 Cl
ENDBRANCH  17  25
ENDBRANCH  15  17
ENDBRANCH   1  15
TORSDOF 5
