REMARK  Name = ZINC50373281
REMARK  5 active torsions:
REMARK  status: ('A' for Active; 'I' for Inactive)
REMARK    1  A    between atoms: C_1  and  O_2
REMARK    2  A    between atoms: O_2  and  C_3
REMARK    3  A    between atoms: C_8  and  N_10
REMARK    4  A    between atoms: C_11  and  C_13
REMARK    5  A    between atoms: C_15  and  N_20
REMARK                            x       y       z     vdW  Elec       q    Type
REMARK                         _______ _______ _______ _____ _____    ______ ____
ROOT
ATOM      1  N   UNL     1       2.690  -1.818   0.431  0.00  0.00    -0.306 N 
ATOM      2  C   UNL     1       3.291  -2.713  -0.379  0.00  0.00    +0.245 C 
ATOM      3  O   UNL     1       2.650  -3.634  -0.847  0.00  0.00    -0.270 OA
ATOM      4  H   UNL     1       3.201  -1.083   0.804  0.00  0.00    +0.149 HD
ENDROOT
BRANCH   2   5
ATOM      5  C   UNL     1       4.727  -2.574  -0.698  0.00  0.00    +0.052 A 
ATOM      6  C   UNL     1       5.466  -1.520  -0.158  0.00  0.00    +0.046 A 
ATOM      7  C   UNL     1       6.806  -1.395  -0.461  0.00  0.00    +0.127 A 
ATOM      8  C   UNL     1       7.418  -2.312  -1.297  0.00  0.00    +0.034 A 
ATOM      9  C   UNL     1       6.692  -3.359  -1.836  0.00  0.00    +0.017 A 
ATOM     10  C   UNL     1       5.352  -3.499  -1.537  0.00  0.00    +0.026 A 
ATOM     11  I   UNL     1       4.255  -5.090  -2.347  0.00  0.00    -0.043 I 
BRANCH   7  12
ATOM     12  N   UNL     1       7.592  -0.279   0.111  0.00  0.00    +0.056 N 
ATOM     13  O   UNL     1       7.058   0.523   0.842  0.00  0.00    -0.126 OA
ATOM     14  O   UNL     1       8.766  -0.168  -0.153  0.00  0.00    -0.126 OA
ENDBRANCH   7  12
ENDBRANCH   2   5
BRANCH   1  19
ATOM     15  C   UNL     1       0.673  -0.582   1.123  0.00  0.00    +0.138 C 
ATOM     16  C   UNL     1      -0.335  -0.898   2.255  0.00  0.00    +0.033 C 
ATOM     17  C   UNL     1       0.388  -2.008   3.058  0.00  0.00    +0.004 C 
ATOM     18  C   UNL     1       1.082  -2.864   1.979  0.00  0.00    +0.025 C 
ATOM     19  C   UNL     1       1.267  -1.956   0.747  0.00  0.00    +0.102 C 
BRANCH  15  21
ATOM     20  C   UNL     1      -0.017   1.425   0.010  0.00  0.00    +0.194 C 
ATOM     21  O   UNL     1       0.002  -0.004   0.002  0.00  0.00    -0.378 OA
ENDBRANCH  15  21
ENDBRANCH   1  19
TORSDOF 4
