REMARK  Name = ZINC24714075
REMARK  4 active torsions:
REMARK  status: ('A' for Active; 'I' for Inactive)
REMARK    1  A    between atoms: C_8  and  C_11
REMARK    2  A    between atoms: N_16  and  S_19
REMARK    3  A    between atoms: S_19  and  C_22
REMARK    4  A    between atoms: C_25  and  N_28
REMARK                            x       y       z     vdW  Elec       q    Type
REMARK                         _______ _______ _______ _____ _____    ______ ____
ROOT
ATOM      1  C   UNL     1      -0.061   5.452   1.224  0.00  0.00    +0.247 C 
ATOM      2  O   UNL     1       0.987   6.059   1.116  0.00  0.00    -0.270 OA
ATOM      3  N   UNL     1      -0.050   4.120   1.431  0.00  0.00    -0.295 N 
ATOM      4  C   UNL     1       1.217   3.375   1.437  0.00  0.00    +0.125 C 
ATOM      5  C   UNL     1       1.123   2.240   0.409  0.00  0.00    +0.128 C 
ATOM      6  N   UNL     1      -0.131   1.508   0.632  0.00  0.00    -0.174 NA
ATOM      7  C   UNL     1      -1.398   2.252   0.620  0.00  0.00    +0.128 C 
ATOM      8  C   UNL     1      -1.304   3.387   1.653  0.00  0.00    +0.125 C 
ENDROOT
BRANCH   1  16
ATOM      9  C   UNL     1      -1.217   7.997  -2.149  0.00  0.00    +0.001 A 
ATOM     10  C   UNL     1      -2.458   8.636  -2.141  0.00  0.00    +0.004 A 
ATOM     11  C   UNL     1      -3.310   8.473  -1.091  0.00  0.00    -0.039 A 
ATOM     12  C   UNL     1      -2.903   7.656  -0.041  0.00  0.00    -0.011 A 
ATOM     13  C   UNL     1      -3.825   7.538   0.995  0.00  0.00    -0.039 A 
ATOM     14  C   UNL     1      -3.511   6.757   2.067  0.00  0.00    +0.005 A 
ATOM     15  C   UNL     1      -2.299   6.078   2.137  0.00  0.00    +0.014 A 
ATOM     16  C   UNL     1      -1.344   6.172   1.128  0.00  0.00    +0.045 A 
ATOM     17  C   UNL     1      -1.658   7.004  -0.030  0.00  0.00    -0.005 A 
ATOM     18  C   UNL     1      -0.805   7.192  -1.124  0.00  0.00    +0.009 A 
ATOM     19  C   UNL     1      -5.027   8.376   0.623  0.00  0.00    +0.040 C 
ATOM     20  C   UNL     1      -4.686   8.992  -0.751  0.00  0.00    +0.040 C 
ENDBRANCH   1  16
BRANCH   6  21
ATOM     21  S   UNL     1      -0.117  -0.129   0.885  0.00  0.00    +0.061 S 
ATOM     22  O   UNL     1      -1.401  -0.609   0.511  0.00  0.00    -0.153 OA
ATOM     23  O   UNL     1       1.080  -0.621   0.298  0.00  0.00    -0.153 OA
BRANCH  21  24
ATOM     24  C   UNL     1       0.031  -0.387   2.622  0.00  0.00    +0.106 A 
ATOM     25  C   UNL     1       1.282  -0.499   3.200  0.00  0.00    +0.031 A 
ATOM     26  C   UNL     1       1.398  -0.697   4.563  0.00  0.00    +0.034 A 
ATOM     27  C   UNL     1       0.263  -0.791   5.347  0.00  0.00    +0.126 A 
ATOM     28  C   UNL     1      -0.987  -0.684   4.768  0.00  0.00    +0.034 A 
ATOM     29  C   UNL     1      -1.104  -0.482   3.406  0.00  0.00    +0.031 A 
BRANCH  27  30
ATOM     30  N   UNL     1       0.388  -1.008   6.806  0.00  0.00    +0.056 N 
ATOM     31  O   UNL     1      -0.612  -1.091   7.497  0.00  0.00    -0.126 OA
ATOM     32  O   UNL     1       1.490  -1.102   7.316  0.00  0.00    -0.126 OA
ENDBRANCH  27  30
ENDBRANCH  21  24
ENDBRANCH   6  21
TORSDOF 4
