REMARK  Name = ZINC00678082
REMARK  6 active torsions:
REMARK  status: ('A' for Active; 'I' for Inactive)
REMARK    1  A    between atoms: C_3  and  C_16
REMARK    2  A    between atoms: N_4  and  C_6
REMARK    3  A    between atoms: C_9  and  S_12
REMARK    4  A    between atoms: S_12  and  N_15
REMARK    5  A    between atoms: N_17  and  C_18
REMARK    6  A    between atoms: C_19  and  C_27
REMARK                            x       y       z     vdW  Elec       q    Type
REMARK                         _______ _______ _______ _____ _____    ______ ____
ROOT
ATOM      1  C   UNL     1      -0.016   1.351   0.009  0.00  0.00    +0.020 A 
ATOM      2  C   UNL     1       1.308   1.800  -0.001  0.00  0.00    +0.029 A 
ATOM      3  C   UNL     1       2.119   0.679  -0.015  0.00  0.00    +0.065 A 
ATOM      4  N   UNL     1       1.295  -0.427  -0.013  0.00  0.00    -0.315 N 
ATOM      5  C   UNL     1       0.002  -0.004   0.002  0.00  0.00    +0.092 A 
ENDROOT
BRANCH   4   6
ATOM      6  C   UNL     1       1.718  -1.762  -0.024  0.00  0.00    +0.047 A 
ATOM      7  C   UNL     1       2.661  -2.186  -0.952  0.00  0.00    +0.028 A 
ATOM      8  C   UNL     1       3.077  -3.502  -0.960  0.00  0.00    +0.030 A 
ATOM      9  C   UNL     1       2.556  -4.399  -0.046  0.00  0.00    +0.105 A 
ATOM     10  C   UNL     1       1.617  -3.981   0.880  0.00  0.00    +0.030 A 
ATOM     11  C   UNL     1       1.202  -2.664   0.897  0.00  0.00    +0.028 A 
BRANCH   9  12
ATOM     12  S   UNL     1       3.088  -6.079  -0.060  0.00  0.00    +0.056 S 
ATOM     13  O   UNL     1       2.049  -6.840   0.540  0.00  0.00    -0.153 OA
ATOM     14  O   UNL     1       3.565  -6.343  -1.373  0.00  0.00    -0.153 OA
BRANCH  12  15
ATOM     15  N   UNL     1       4.396  -6.186   0.949  0.00  0.00    -0.204 NA
ATOM     16  H   UNL     1       4.576  -7.013   1.424  0.00  0.00    +0.144 HD
ATOM     17  H   UNL     1       4.983  -5.423   1.066  0.00  0.00    +0.144 HD
ENDBRANCH  12  15
ENDBRANCH   9  12
ENDBRANCH   4   6
BRANCH   3  18
ATOM     18  C   UNL     1       3.533   0.669  -0.029  0.00  0.00    +0.138 C 
ATOM     19  N   UNL     1       4.197   1.801  -0.029  0.00  0.00    -0.245 NA
BRANCH  19  20
ATOM     20  C   UNL     1       5.546   1.792  -0.043  0.00  0.00    +0.119 A 
ATOM     21  C   UNL     1       6.437   2.872  -0.040  0.00  0.00    +0.088 A 
ATOM     22  C   UNL     1       7.818   2.604  -0.057  0.00  0.00    -0.018 A 
ATOM     23  C   UNL     1       8.189   1.300  -0.075  0.00  0.00    -0.004 A 
ATOM     24  S   UNL     1       6.663   0.399  -0.061  0.00  0.00    -0.073 S 
ATOM     25  C   UNL     1       9.582   0.752  -0.096  0.00  0.00    +0.043 C 
ATOM     26  C   UNL     1      10.545   1.889  -0.467  0.00  0.00    +0.005 C 
ATOM     27  C   UNL     1      10.209   3.115   0.389  0.00  0.00    +0.005 C 
ATOM     28  C   UNL     1       8.872   3.709  -0.055  0.00  0.00    +0.037 C 
BRANCH  21  29
ATOM     29  C   UNL     1       5.953   4.220  -0.021  0.00  0.00    +0.102 C 
ATOM     30  N   UNL     1       5.569   5.289  -0.006  0.00  0.00    -0.191 NA
ENDBRANCH  21  29
ENDBRANCH  19  20
ENDBRANCH   3  18
TORSDOF 6
