REMARK  Name = ZINC03589170
REMARK  3 active torsions:
REMARK  status: ('A' for Active; 'I' for Inactive)
REMARK    1  A    between atoms: C_4  and  C_7
REMARK    2  A    between atoms: C_7  and  C_8
REMARK    3  A    between atoms: N_10  and  C_11
REMARK                            x       y       z     vdW  Elec       q    Type
REMARK                         _______ _______ _______ _____ _____    ______ ____
ROOT
ATOM      1  C   UNL     1       1.238  -0.838  -0.115  0.00  0.00    +0.197 C 
ATOM      2  C   UNL     1       2.481  -0.072   0.318  0.00  0.00    +0.264 C 
ATOM      3  O   UNL     1       2.910  -0.482   1.641  0.00  0.00    -0.461 OA
ATOM      4  C   UNL     1       3.641   0.402   2.340  0.00  0.00    +0.328 C 
ATOM      5  O   UNL     1       3.972   0.150   3.474  0.00  0.00    -0.249 OA
ATOM      6  C   UNL     1       4.050   1.709   1.706  0.00  0.00    +0.185 C 
ATOM      7  C   UNL     1       5.209   2.324   2.497  0.00  0.00    +0.035 C 
ATOM      8  C   UNL     1       4.800   3.768   2.821  0.00  0.00    +0.021 C 
ATOM      9  C   UNL     1       3.427   3.963   2.172  0.00  0.00    +0.109 C 
ATOM     10  N   UNL     1       2.931   2.647   1.730  0.00  0.00    -0.286 N 
ATOM     11  C   UNL     1       1.659   2.429   1.393  0.00  0.00    +0.237 C 
ATOM     12  O   UNL     1       0.848   2.386   2.294  0.00  0.00    -0.274 OA
ATOM     13  C   UNL     1       1.146   2.232   0.003  0.00  0.00    +0.162 C 
ATOM     14  C   UNL     1       0.677   3.584  -0.567  0.00  0.00    +0.033 C 
ATOM     15  C   UNL     1      -0.851   3.583  -0.418  0.00  0.00    +0.021 C 
ATOM     16  C   UNL     1      -1.235   2.162   0.018  0.00  0.00    +0.109 C 
ATOM     17  N   UNL     1      -0.016   1.335   0.009  0.00  0.00    -0.288 N 
ATOM     18  C   UNL     1       0.002  -0.004   0.002  0.00  0.00    +0.240 C 
ATOM     19  O   UNL     1      -1.060  -0.582   0.097  0.00  0.00    -0.273 OA
ENDROOT
BRANCH   1  22
ATOM     20  C   UNL     1       1.788  -3.146   0.441  0.00  0.00    +0.218 C 
ATOM     21  O   UNL     1       2.531  -3.169  -0.517  0.00  0.00    -0.275 OA
ATOM     22  N   UNL     1       1.094  -2.027   0.729  0.00  0.00    -0.301 N 
ATOM     23  H   UNL     1       0.500  -2.008   1.495  0.00  0.00    +0.150 HD
BRANCH  20  24
ATOM     24  C   UNL     1       1.639  -4.369   1.309  0.00  0.00    +0.130 C 
BRANCH  24  28
ATOM     25  C   UNL     1       4.121  -7.499  -0.203  0.00  0.00    +0.000 A 
ATOM     26  C   UNL     1       4.620  -6.612   0.731  0.00  0.00    +0.000 A 
ATOM     27  C   UNL     1       3.817  -5.599   1.221  0.00  0.00    +0.004 A 
ATOM     28  C   UNL     1       2.515  -5.473   0.775  0.00  0.00    -0.039 A 
ATOM     29  C   UNL     1       2.014  -6.364  -0.155  0.00  0.00    +0.004 A 
ATOM     30  C   UNL     1       2.818  -7.374  -0.648  0.00  0.00    +0.000 A 
ENDBRANCH  24  28
ENDBRANCH  20  24
ENDBRANCH   1  22
TORSDOF 3
