REMARK  Name = ZINC09669340
REMARK  7 active torsions:
REMARK  status: ('A' for Active; 'I' for Inactive)
REMARK    1  A    between atoms: C_1  and  O_2
REMARK    2  A    between atoms: O_2  and  C_3
REMARK    3  A    between atoms: C_9  and  C_13
REMARK    4  A    between atoms: C_13  and  C_14
REMARK    5  A    between atoms: C_14  and  N_47
REMARK    6  A    between atoms: C_15  and  N_47
REMARK    7  A    between atoms: N_20  and  C_23
REMARK                            x       y       z     vdW  Elec       q    Type
REMARK                         _______ _______ _______ _____ _____    ______ ____
ROOT
ATOM      1  N   UNL     1      -0.774   1.606  -1.143  0.00  0.00    +0.387 N 
ATOM      2  H   UNL     1      -1.139   2.538  -0.914  0.00  0.00    -0.085 HD
ATOM      3  H   UNL     1      -0.154   1.673  -1.958  0.00  0.00    -0.085 HD
ENDROOT
BRANCH   1   4
ATOM      4  C   UNL     1      -0.013   1.086   0.008  0.00  0.00    +0.026 C 
ATOM      5  C   UNL     1       1.423   1.648  -0.003  0.00  0.00    +0.090 C 
ATOM      6  C   UNL     1       1.510   2.425   1.293  0.00  0.00    +0.225 C 
ATOM      7  O   UNL     1       2.483   3.034   1.683  0.00  0.00    -0.275 OA
ATOM      8  N   UNL     1       0.342   2.333   1.940  0.00  0.00    -0.210 N 
ATOM      9  C   UNL     1      -0.587   1.603   1.309  0.00  0.00    +0.213 C 
ATOM     10  O   UNL     1      -1.709   1.392   1.715  0.00  0.00    -0.277 OA
BRANCH   8  11
ATOM     11  C   UNL     1       0.109   2.949   3.179  0.00  0.00    +0.062 A 
ATOM     12  C   UNL     1      -0.390   4.243   3.228  0.00  0.00    +0.025 A 
ATOM     13  C   UNL     1      -0.623   4.846   4.449  0.00  0.00    +0.002 A 
ATOM     14  C   UNL     1      -0.349   4.166   5.622  0.00  0.00    +0.002 A 
ATOM     15  C   UNL     1       0.154   2.879   5.576  0.00  0.00    +0.022 A 
ATOM     16  C   UNL     1       0.384   2.268   4.358  0.00  0.00    +0.063 A 
ATOM     17 CL   UNL     1       1.015   0.652   4.301  0.00  0.00    -0.082 Cl
ENDBRANCH   8  11
ENDBRANCH   1   4
BRANCH   1  18
ATOM     18  C   UNL     1      -1.900   0.708  -1.461  0.00  0.00    -0.077 C 
BRANCH  18  19
ATOM     19  C   UNL     1      -2.670   1.272  -2.656  0.00  0.00    +0.018 C 
BRANCH  19  26
ATOM     20  C   UNL     1      -7.058   0.905  -1.013  0.00  0.00    +0.121 A 
ATOM     21  C   UNL     1      -7.780  -0.111  -1.634  0.00  0.00    +0.047 A 
ATOM     22  C   UNL     1      -7.201  -0.882  -2.617  0.00  0.00    +0.030 A 
ATOM     23  C   UNL     1      -5.883  -0.650  -2.997  0.00  0.00    +0.047 A 
ATOM     24  C   UNL     1      -5.150   0.371  -2.367  0.00  0.00    +0.006 A 
ATOM     25  C   UNL     1      -5.749   1.151  -1.376  0.00  0.00    +0.056 A 
ATOM     26  C   UNL     1      -3.823   0.359  -2.987  0.00  0.00    -0.024 A 
ATOM     27  C   UNL     1      -3.826  -0.623  -3.903  0.00  0.00    +0.087 A 
ATOM     28  N   UNL     1      -5.048  -1.238  -3.923  0.00  0.00    -0.360 N 
ATOM     29  H   UNL     1      -5.290  -1.976  -4.504  0.00  0.00    +0.165 HD
BRANCH  20  31
ATOM     30  C   UNL     1      -9.002   1.352   0.282  0.00  0.00    +0.277 C 
ATOM     31  O   UNL     1      -7.645   1.659  -0.045  0.00  0.00    -0.495 OA
ENDBRANCH  20  31
ENDBRANCH  19  26
ENDBRANCH  18  19
ENDBRANCH   1  18
TORSDOF 6
