REMARK  Name = ZINC44856282
REMARK  6 active torsions:
REMARK  status: ('A' for Active; 'I' for Inactive)
REMARK    1  A    between atoms: C_1  and  O_2
REMARK    2  A    between atoms: O_2  and  C_3
REMARK    3  A    between atoms: C_12  and  N_14
REMARK    4  A    between atoms: C_15  and  C_17
REMARK    5  A    between atoms: N_21  and  S_29
REMARK    6  A    between atoms: S_29  and  C_32
REMARK                            x       y       z     vdW  Elec       q    Type
REMARK                         _______ _______ _______ _____ _____    ______ ____
ROOT
ATOM      1  N   UNL     1       2.157  -1.718  -5.606  0.00  0.00    -0.305 N 
ATOM      2  C   UNL     1       2.830  -0.601  -5.946  0.00  0.00    +0.254 C 
ATOM      3  O   UNL     1       3.745  -0.209  -5.253  0.00  0.00    -0.272 OA
ATOM      4  H   UNL     1       1.426  -2.032  -6.160  0.00  0.00    +0.149 HD
ENDROOT
BRANCH   2   5
ATOM      5  C   UNL     1       2.445   0.161  -7.188  0.00  0.00    +0.260 C 
ATOM      6  C   UNL     1       1.034   0.708  -7.021  0.00  0.00    +0.075 C 
ATOM      7  C   UNL     1       0.503   1.344  -8.292  0.00  0.00    +0.135 C 
ATOM      8  N   UNL     1       1.314   2.515  -8.654  0.00  0.00    -0.204 N 
ATOM      9  C   UNL     1       2.519   2.298  -9.338  0.00  0.00    +0.092 A 
ATOM     10  C   UNL     1       2.685   2.741 -10.640  0.00  0.00    +0.028 A 
ATOM     11  C   UNL     1       3.881   2.507 -11.295  0.00  0.00    +0.002 A 
ATOM     12  C   UNL     1       4.905   1.833 -10.656  0.00  0.00    +0.004 A 
ATOM     13  C   UNL     1       4.743   1.391  -9.355  0.00  0.00    +0.047 A 
ATOM     14  C   UNL     1       3.551   1.625  -8.693  0.00  0.00    +0.144 A 
ATOM     15  O   UNL     1       3.384   1.213  -7.400  0.00  0.00    -0.478 OA
BRANCH   8  16
ATOM     16  S   UNL     1       0.818   4.047  -8.266  0.00  0.00    +0.043 S 
ATOM     17  O   UNL     1       1.434   4.883  -9.236  0.00  0.00    -0.155 OA
ATOM     18  O   UNL     1      -0.597   3.959  -8.179  0.00  0.00    -0.155 OA
ATOM     19  C   UNL     1       1.527   4.364  -6.627  0.00  0.00    +0.218 C 
ENDBRANCH   8  16
ENDBRANCH   2   5
BRANCH   1  29
ATOM     20  C   UNL     1       0.606  -0.607  -1.056  0.00  0.00    +0.120 A 
ATOM     21  C   UNL     1       1.174   0.158  -2.064  0.00  0.00    +0.046 A 
ATOM     22  C   UNL     1       1.787  -0.463  -3.131  0.00  0.00    +0.009 A 
ATOM     23  C   UNL     1       1.839  -1.850  -3.207  0.00  0.00    -0.024 A 
ATOM     24  C   UNL     1       1.272  -2.611  -2.211  0.00  0.00    -0.039 A 
ATOM     25  C   UNL     1       0.662  -1.988  -1.130  0.00  0.00    +0.049 A 
ATOM     26  C   UNL     1       1.278  -4.118  -2.238  0.00  0.00    +0.035 C 
ATOM     27  C   UNL     1       2.330  -4.633  -3.217  0.00  0.00    +0.007 C 
ATOM     28  C   UNL     1       2.129  -3.924  -4.562  0.00  0.00    +0.027 C 
ATOM     29  C   UNL     1       2.531  -2.459  -4.399  0.00  0.00    +0.104 C 
BRANCH  20  31
ATOM     30  C   UNL     1      -0.017   1.425   0.010  0.00  0.00    +0.277 C 
ATOM     31  O   UNL     1       0.002  -0.004   0.002  0.00  0.00    -0.495 OA
ENDBRANCH  20  31
ENDBRANCH   1  29
TORSDOF 4
