REMARK  Name = ZINC04373492
REMARK  8 active torsions:
REMARK  status: ('A' for Active; 'I' for Inactive)
REMARK    1  A    between atoms: C_1  and  C_2
REMARK    2  A    between atoms: C_2  and  O_3
REMARK    3  A    between atoms: O_3  and  C_4
REMARK    4  A    between atoms: C_7  and  C_10
REMARK    5  A    between atoms: C_12  and  C_21
REMARK    6  A    between atoms: C_13  and  C_20
REMARK    7  A    between atoms: N_23  and  C_24
REMARK    8  A    between atoms: C_29  and  C_30
REMARK                            x       y       z     vdW  Elec       q    Type
REMARK                         _______ _______ _______ _____ _____    ______ ____
ROOT
ATOM      1  C   UNL     1       1.087  -6.159  -1.816  0.00  0.00    +0.177 C 
ATOM      2  C   UNL     1       0.396  -6.492  -3.111  0.00  0.00    +0.060 C 
ATOM      3  C   UNL     1       1.057  -6.854  -4.221  0.00  0.00    +0.018 C 
ATOM      4  N   UNL     1       2.426  -6.959  -4.257  0.00  0.00    -0.287 N 
ATOM      5  C   UNL     1       3.100  -6.937  -3.043  0.00  0.00    +0.218 A 
ATOM      6  N   UNL     1       2.486  -6.569  -1.891  0.00  0.00    -0.221 N 
ATOM      7  N   UNL     1       3.443  -6.670  -0.882  0.00  0.00    -0.156 NA
ATOM      8  C   UNL     1       4.552  -7.074  -1.452  0.00  0.00    +0.247 A 
ATOM      9  N   UNL     1       4.339  -7.234  -2.763  0.00  0.00    -0.201 NA
ATOM     10  C   UNL     1       0.270  -7.155  -5.471  0.00  0.00    +0.061 C 
ATOM     11  H   UNL     1       2.903  -7.046  -5.097  0.00  0.00    +0.155 HD
ENDROOT
BRANCH   1  15
ATOM     12  C   UNL     1       0.875  -1.946  -1.130  0.00  0.00    +0.121 A 
ATOM     13  C   UNL     1       0.316  -2.827  -0.217  0.00  0.00    +0.046 A 
ATOM     14  C   UNL     1       0.385  -4.189  -0.441  0.00  0.00    +0.009 A 
ATOM     15  C   UNL     1       1.012  -4.673  -1.574  0.00  0.00    -0.018 A 
ATOM     16  C   UNL     1       1.570  -3.796  -2.486  0.00  0.00    +0.009 A 
ATOM     17  C   UNL     1       1.498  -2.434  -2.270  0.00  0.00    +0.046 A 
BRANCH  12  18
ATOM     18  O   UNL     1       0.807  -0.606  -0.912  0.00  0.00    -0.492 OA
BRANCH  18  20
ATOM     19  C   UNL     1       0.173   1.353   0.353  0.00  0.00    +0.048 C 
ATOM     20  C   UNL     1       0.150  -0.175   0.281  0.00  0.00    +0.225 C 
ENDBRANCH  18  20
ENDBRANCH  12  18
ENDBRANCH   1  15
BRANCH   2  21
ATOM     21  C   UNL     1      -1.016  -6.420  -3.160  0.00  0.00    +0.248 C 
ATOM     22  O   UNL     1      -1.687  -7.333  -2.715  0.00  0.00    -0.270 OA
ATOM     23  N   UNL     1      -1.618  -5.342  -3.700  0.00  0.00    -0.281 N 
ATOM     24  H   UNL     1      -1.084  -4.644  -4.112  0.00  0.00    +0.155 HD
BRANCH  23  25
ATOM     25  C   UNL     1      -3.011  -5.228  -3.665  0.00  0.00    +0.037 A 
ATOM     26  C   UNL     1      -3.805  -6.362  -3.777  0.00  0.00    +0.023 A 
ATOM     27  C   UNL     1      -5.181  -6.247  -3.743  0.00  0.00    +0.002 A 
ATOM     28  C   UNL     1      -5.768  -5.003  -3.596  0.00  0.00    +0.000 A 
ATOM     29  C   UNL     1      -4.981  -3.872  -3.484  0.00  0.00    +0.005 A 
ATOM     30  C   UNL     1      -3.604  -3.982  -3.512  0.00  0.00    -0.029 A 
ATOM     31  C   UNL     1      -2.746  -2.749  -3.382  0.00  0.00    +0.045 C 
ENDBRANCH  23  25
ENDBRANCH   2  21
TORSDOF 5
