REMARK  Name = ZINC12538668
REMARK  5 active torsions:
REMARK  status: ('A' for Active; 'I' for Inactive)
REMARK    1  A    between atoms: C_1  and  C_2
REMARK    2  A    between atoms: C_2  and  C_4
REMARK    3  A    between atoms: C_2  and  N_18
REMARK    4  A    between atoms: N_6  and  C_7
REMARK    5  A    between atoms: C_8  and  C_16
REMARK                            x       y       z     vdW  Elec       q    Type
REMARK                         _______ _______ _______ _____ _____    ______ ____
ROOT
ATOM      1  C   UNL     1       0.731  -0.503   1.223  0.00  0.00    +0.238 C 
ATOM      2  O   UNL     1       0.159  -1.213   2.023  0.00  0.00    -0.273 OA
ATOM      3  N   UNL     1       2.019  -0.161   1.426  0.00  0.00    -0.277 N 
ATOM      4  H   UNL     1       2.476   0.406   0.786  0.00  0.00    +0.155 HD
ENDROOT
BRANCH   3   5
ATOM      5  C   UNL     1       2.690  -0.621   2.550  0.00  0.00    +0.090 A 
ATOM      6  C   UNL     1       4.000  -0.369   2.922  0.00  0.00    +0.084 A 
ATOM      7  C   UNL     1       4.469  -0.973   4.156  0.00  0.00    -0.018 A 
ATOM      8  C   UNL     1       3.540  -1.719   4.794  0.00  0.00    -0.004 A 
ATOM      9  S   UNL     1       2.098  -1.604   3.776  0.00  0.00    -0.077 S 
ATOM     10  C   UNL     1       3.714  -2.466   6.080  0.00  0.00    +0.043 C 
ATOM     11  C   UNL     1       5.217  -2.570   6.378  0.00  0.00    +0.005 C 
ATOM     12  C   UNL     1       5.853  -1.188   6.202  0.00  0.00    +0.005 C 
ATOM     13  C   UNL     1       5.872  -0.807   4.721  0.00  0.00    +0.037 C 
BRANCH   6  14
ATOM     14  C   UNL     1       4.858   0.452   2.121  0.00  0.00    +0.102 C 
ATOM     15  N   UNL     1       5.538   1.103   1.486  0.00  0.00    -0.191 NA
ENDBRANCH   6  14
ENDBRANCH   3   5
BRANCH   1  17
ATOM     16  C   UNL     1      -0.019   1.526   0.010  0.00  0.00    +0.038 C 
ATOM     17  C   UNL     1       0.002  -0.004   0.002  0.00  0.00    +0.167 C 
BRANCH  17  18
ATOM     18  N   UNL     1      -1.372  -0.511   0.012  0.00  0.00    -0.230 N 
ATOM     19  C   UNL     1      -2.260  -0.237   1.003  0.00  0.00    +0.227 C 
ATOM     20  O   UNL     1      -2.016   0.258   2.083  0.00  0.00    -0.275 OA
ATOM     21  C   UNL     1      -3.602  -0.667   0.494  0.00  0.00    +0.091 C 
ATOM     22  C   UNL     1      -4.595  -1.238   1.484  0.00  0.00    +0.040 C 
ATOM     23  C   UNL     1      -5.691  -1.902   0.676  0.00  0.00    -0.030 C 
ATOM     24  C   UNL     1      -5.576  -2.245  -0.571  0.00  0.00    -0.030 C 
ATOM     25  C   UNL     1      -4.320  -2.058  -1.397  0.00  0.00    +0.040 C 
ATOM     26  C   UNL     1      -3.177  -1.841  -0.441  0.00  0.00    +0.091 C 
ATOM     27  C   UNL     1      -1.884  -1.297  -0.971  0.00  0.00    +0.227 C 
ATOM     28  O   UNL     1      -1.393  -1.515  -2.057  0.00  0.00    -0.275 OA
ENDBRANCH  17  18
ENDBRANCH   1  17
TORSDOF 4
