REMARK  Name = ZINC23479599
REMARK  3 active torsions:
REMARK  status: ('A' for Active; 'I' for Inactive)
REMARK    1  A    between atoms: C_9  and  C_13
REMARK    2  A    between atoms: C_13  and  N_14
REMARK    3  A    between atoms: N_17  and  C_20
REMARK                            x       y       z     vdW  Elec       q    Type
REMARK                         _______ _______ _______ _____ _____    ______ ____
ROOT
ATOM      1  C   UNL     1       2.904  -0.477   2.358  0.00  0.00    -0.003 C 
ENDROOT
BRANCH   1  10
ATOM      2  C   UNL     1       8.624   1.688   0.521  0.00  0.00    +0.021 A 
ATOM      3  C   UNL     1       8.292   0.967   1.634  0.00  0.00    +0.017 A 
ATOM      4  C   UNL     1       6.966   0.590   1.840  0.00  0.00    +0.065 A 
ATOM      5  C   UNL     1       5.974   0.947   0.900  0.00  0.00    +0.079 A 
ATOM      6  C   UNL     1       6.335   1.688  -0.226  0.00  0.00    +0.048 A 
ATOM      7  C   UNL     1       7.654   2.049  -0.407  0.00  0.00    +0.043 A 
ATOM      8 CL   UNL     1       8.107   2.965  -1.810  0.00  0.00    -0.083 Cl
ATOM      9  N   UNL     1       4.689   0.572   1.125  0.00  0.00    -0.236 NA
ATOM     10  C   UNL     1       4.353  -0.105   2.180  0.00  0.00    +0.094 A 
ATOM     11  N   UNL     1       5.240  -0.496   3.132  0.00  0.00    -0.312 N 
ATOM     12  C   UNL     1       6.553  -0.186   3.019  0.00  0.00    +0.259 A 
ATOM     13  O   UNL     1       7.359  -0.529   3.865  0.00  0.00    -0.267 OA
ATOM     14  H   UNL     1       4.894  -1.070   4.004  0.00  0.00    +0.170 HD
ENDBRANCH   1  10
BRANCH   1  15
ATOM     15  N   UNL     1       2.122   0.044   1.230  0.00  0.00    +0.386 N 
ATOM     16  C   UNL     1       0.754  -0.496   1.242  0.00  0.00    -0.063 C 
ATOM     17  C   UNL     1      -0.001   0.007   0.009  0.00  0.00    +0.066 C 
ATOM     18  N   UNL     1      -0.018   1.477   0.014  0.00  0.00    -0.301 NA
ATOM     19  C   UNL     1       1.349   2.016   0.002  0.00  0.00    +0.066 C 
ATOM     20  C   UNL     1       2.105   1.513   1.234  0.00  0.00    -0.063 C 
ATOM     21  H   UNL     1       2.609  -0.288   0.301  0.00  0.00    -0.081 HD
BRANCH  18  22
ATOM     22  C   UNL     1      -0.799   1.998  -1.115  0.00  0.00    +0.079 C 
ATOM     23  C   UNL     1      -0.903   3.529  -1.012  0.00  0.00    +0.043 C 
ATOM     24  C   UNL     1      -1.437   4.112  -2.343  0.00  0.00    +0.167 C 
ATOM     25  S   UNL     1      -0.870   2.877  -3.582  0.00  0.00    -0.029 S 
ATOM     26  O   UNL     1      -2.006   2.282  -4.195  0.00  0.00    -0.174 OA
ATOM     27  O   UNL     1       0.135   3.465  -4.395  0.00  0.00    -0.174 OA
ATOM     28  C   UNL     1      -0.087   1.649  -2.453  0.00  0.00    +0.184 C 
ENDBRANCH  18  22
ENDBRANCH   1  15
TORSDOF 3
