REMARK  Name = ZINC42100927
REMARK  4 active torsions:
REMARK  status: ('A' for Active; 'I' for Inactive)
REMARK    1  A    between atoms: C_1  and  C_2
REMARK    2  A    between atoms: C_4  and  C_23
REMARK    3  A    between atoms: C_11  and  N_13
REMARK    4  A    between atoms: N_13  and  C_14
REMARK                            x       y       z     vdW  Elec       q    Type
REMARK                         _______ _______ _______ _____ _____    ______ ____
ROOT
ATOM      1  C   UNL     1       0.044   1.519  -0.150  0.00  0.00    +0.044 C 
ATOM      2  C   UNL     1       0.047   0.012  -0.142  0.00  0.00    -0.048 A 
ATOM      3  C   UNL     1       0.131  -0.682  -1.335  0.00  0.00    +0.007 A 
ATOM      4  C   UNL     1       0.133  -2.066  -1.327  0.00  0.00    -0.043 A 
ATOM      5  C   UNL     1       0.053  -2.746  -0.133  0.00  0.00    +0.003 A 
ATOM      6  C   UNL     1      -0.031  -2.061   1.072  0.00  0.00    +0.039 A 
ATOM      7  C   UNL     1      -0.028  -0.667   1.057  0.00  0.00    +0.027 A 
ATOM      8  N   UNL     1      -0.102  -2.961   2.136  0.00  0.00    -0.284 N 
ATOM      9  C   UNL     1      -0.071  -4.239   1.723  0.00  0.00    +0.239 C 
ATOM     10  O   UNL     1      -0.117  -5.225   2.428  0.00  0.00    -0.273 OA
ATOM     11  C   UNL     1       0.033  -4.217   0.213  0.00  0.00    +0.174 C 
ATOM     12  C   UNL     1       0.224  -2.828  -2.625  0.00  0.00    +0.044 C 
ATOM     13  H   UNL     1      -0.166  -2.695   3.066  0.00  0.00    +0.155 HD
ENDROOT
BRANCH  11  14
ATOM     14  N   UNL     1       1.275  -4.867  -0.228  0.00  0.00    -0.291 NA
ATOM     15  H   UNL     1       1.643  -4.420  -1.053  0.00  0.00    +0.124 HD
BRANCH  14  16
ATOM     16  C   UNL     1       1.066  -6.303  -0.455  0.00  0.00    +0.141 C 
ATOM     17  C   UNL     1       1.460  -7.085   0.799  0.00  0.00    +0.028 C 
ATOM     18  C   UNL     1       2.640  -6.429   1.494  0.00  0.00    +0.003 C 
ATOM     19  C   UNL     1       3.929  -6.484   0.695  0.00  0.00    +0.019 C 
ATOM     20  C   UNL     1       3.824  -5.629  -0.570  0.00  0.00    +0.104 C 
ATOM     21  N   UNL     1       3.229  -6.444  -1.641  0.00  0.00    -0.314 N 
ATOM     22  C   UNL     1       1.932  -6.766  -1.608  0.00  0.00    +0.230 C 
ATOM     23  O   UNL     1       1.448  -7.434  -2.497  0.00  0.00    -0.274 OA
ATOM     24  H   UNL     1       3.781  -6.749  -2.378  0.00  0.00    +0.149 HD
ENDBRANCH  14  16
ENDBRANCH  11  14
TORSDOF 2
