REMARK  Name = ZINC67487026
REMARK  6 active torsions:
REMARK  status: ('A' for Active; 'I' for Inactive)
REMARK    1  A    between atoms: C_1  and  C_2
REMARK    2  A    between atoms: C_5  and  N_9
REMARK    3  A    between atoms: C_6  and  C_8
REMARK    4  A    between atoms: N_12  and  C_13
REMARK    5  A    between atoms: C_13  and  C_15
REMARK    6  A    between atoms: C_13  and  C_16
REMARK                            x       y       z     vdW  Elec       q    Type
REMARK                         _______ _______ _______ _____ _____    ______ ____
ROOT
ATOM      1  N   UNL     1       0.047  -4.173  -0.010  0.00  0.00    -0.269 N 
ATOM      2  C   UNL     1      -0.052  -4.839  -1.178  0.00  0.00    +0.304 C 
ATOM      3  O   UNL     1      -0.071  -4.225  -2.228  0.00  0.00    -0.252 OA
ATOM      4  N   UNL     1      -0.130  -6.184  -1.183  0.00  0.00    -0.288 N 
ATOM      5  H   UNL     1       0.130  -4.665   0.822  0.00  0.00    +0.156 HD
ATOM      6  H   UNL     1      -0.114  -6.674  -0.345  0.00  0.00    +0.151 HD
ENDROOT
BRANCH   1  11
ATOM      7  C   UNL     1      -0.020   1.499   0.037  0.00  0.00    +0.044 C 
ATOM      8  C   UNL     1      -0.002  -0.008   0.025  0.00  0.00    -0.050 A 
ATOM      9  C   UNL     1       0.597  -0.682  -1.024  0.00  0.00    +0.005 A 
ATOM     10  C   UNL     1       0.615  -2.063  -1.038  0.00  0.00    +0.024 A 
ATOM     11  C   UNL     1       0.031  -2.774   0.002  0.00  0.00    +0.038 A 
ATOM     12  C   UNL     1      -0.569  -2.094   1.053  0.00  0.00    -0.029 A 
ATOM     13  C   UNL     1      -0.579  -0.713   1.064  0.00  0.00    +0.008 A 
ATOM     14  C   UNL     1      -1.204  -2.862   2.183  0.00  0.00    +0.045 C 
ENDBRANCH   1  11
BRANCH   4  15
ATOM     15  C   UNL     1      -0.237  -6.907  -2.452  0.00  0.00    +0.157 C 
ATOM     16  C   UNL     1       1.161  -7.133  -3.031  0.00  0.00    +0.038 C 
BRANCH  15  17
ATOM     17  C   UNL     1      -0.904  -8.238  -2.217  0.00  0.00    +0.236 C 
ATOM     18  O   UNL     1      -0.851  -8.758  -1.123  0.00  0.00    -0.274 OA
ATOM     19  N   UNL     1      -1.559  -8.851  -3.223  0.00  0.00    -0.298 N 
ATOM     20  C   UNL     1      -1.513  -8.279  -4.570  0.00  0.00    +0.118 C 
ATOM     21  C   UNL     1      -0.762  -9.233  -5.505  0.00  0.00    +0.088 C 
ATOM     22  S   UNL     1      -1.589 -10.851  -5.473  0.00  0.00    -0.158 S 
ATOM     23  C   UNL     1      -1.649 -11.250  -3.700  0.00  0.00    +0.088 C 
ATOM     24  C   UNL     1      -2.301 -10.084  -2.958  0.00  0.00    +0.118 C 
ENDBRANCH  15  17
ENDBRANCH   4  15
TORSDOF 3
