REMARK  Name = ZINC44300015
REMARK  4 active torsions:
REMARK  status: ('A' for Active; 'I' for Inactive)
REMARK    1  A    between atoms: C_1  and  C_2
REMARK    2  A    between atoms: C_2  and  N_9
REMARK    3  A    between atoms: C_10  and  C_12
REMARK    4  A    between atoms: C_17  and  O_18
REMARK                            x       y       z     vdW  Elec       q    Type
REMARK                         _______ _______ _______ _____ _____    ______ ____
ROOT
ATOM      1  N   UNL     1       0.731  -0.456  -1.186  0.00  0.00    -0.304 N 
ATOM      2  C   UNL     1       0.300  -0.105  -2.414  0.00  0.00    +0.248 C 
ATOM      3  O   UNL     1      -0.693   0.586  -2.536  0.00  0.00    -0.270 OA
ATOM      4  H   UNL     1       1.523  -1.007  -1.089  0.00  0.00    +0.150 HD
ENDROOT
BRANCH   1   6
ATOM      5  C   UNL     1      -0.019   1.526   0.010  0.00  0.00    +0.033 C 
ATOM      6  C   UNL     1       0.002  -0.004   0.002  0.00  0.00    +0.053 C 
ATOM      7  C   UNL     1      -1.436  -0.513  -0.087  0.00  0.00    +0.049 C 
ATOM      8  C   UNL     1      -1.556  -1.909   0.586  0.00  0.00    +0.168 C 
ATOM      9  S   UNL     1      -0.454  -1.644   2.043  0.00  0.00    -0.029 S 
ATOM     10  O   UNL     1      -1.172  -0.949   3.053  0.00  0.00    -0.174 OA
ATOM     11  O   UNL     1       0.202  -2.864   2.361  0.00  0.00    -0.174 OA
ATOM     12  C   UNL     1       0.751  -0.495   1.257  0.00  0.00    +0.191 C 
ENDBRANCH   1   6
BRANCH   2  13
ATOM     13  C   UNL     1       1.034  -0.560  -3.610  0.00  0.00    +0.078 A 
ATOM     14  C   UNL     1       2.172  -1.359  -3.474  0.00  0.00    +0.018 A 
ATOM     15  C   UNL     1       2.853  -1.781  -4.595  0.00  0.00    +0.021 A 
ATOM     16  C   UNL     1       2.414  -1.416  -5.859  0.00  0.00    +0.044 A 
ATOM     17  C   UNL     1       1.289  -0.626  -6.007  0.00  0.00    +0.066 A 
ATOM     18  C   UNL     1       0.589  -0.198  -4.889  0.00  0.00    +0.130 A 
ATOM     19 CL   UNL     1       3.281  -1.954  -7.263  0.00  0.00    -0.083 Cl
BRANCH  18  20
ATOM     20  O   UNL     1      -0.518   0.573  -5.033  0.00  0.00    -0.506 OA
ATOM     21  H   UNL     1      -0.337   1.523  -5.043  0.00  0.00    +0.292 HD
ENDBRANCH  18  20
ENDBRANCH   2  13
TORSDOF 3
