REMARK  Name = ZINC45355010
REMARK  9 active torsions:
REMARK  status: ('A' for Active; 'I' for Inactive)
REMARK    1  A    between atoms: C_1  and  N_2
REMARK    2  A    between atoms: N_2  and  C_3
REMARK    3  A    between atoms: N_2  and  S_21
REMARK    4  A    between atoms: C_3  and  C_4
REMARK    5  A    between atoms: N_6  and  C_7
REMARK    6  A    between atoms: C_7  and  C_8
REMARK    7  A    between atoms: C_8  and  C_10
REMARK    8  A    between atoms: C_8  and  N_15
REMARK    9  A    between atoms: S_21  and  C_24
REMARK                            x       y       z     vdW  Elec       q    Type
REMARK                         _______ _______ _______ _____ _____    ______ ____
ROOT
ATOM      1  C   UNL     1      -1.662  -1.785   1.300  0.00  0.00    +0.229 C 
ATOM      2  O   UNL     1      -2.653  -1.673   0.610  0.00  0.00    -0.274 OA
ATOM      3  N   UNL     1      -1.783  -2.042   2.617  0.00  0.00    -0.315 N 
ATOM      4  H   UNL     1      -0.990  -2.131   3.168  0.00  0.00    +0.149 HD
ENDROOT
BRANCH   1   5
ATOM      5  C   UNL     1      -0.294  -1.636   0.683  0.00  0.00    +0.204 C 
BRANCH   5   7
ATOM      6  C   UNL     1      -0.637   0.011  -1.216  0.00  0.00    +0.132 C 
ATOM      7  N   UNL     1      -0.432  -1.362  -0.749  0.00  0.00    -0.170 NA
BRANCH   7   8
ATOM      8  S   UNL     1      -0.355  -2.605  -1.841  0.00  0.00    +0.067 S 
ATOM      9  O   UNL     1      -0.713  -3.786  -1.137  0.00  0.00    -0.152 OA
ATOM     10  O   UNL     1      -1.049  -2.169  -3.002  0.00  0.00    -0.152 OA
BRANCH   8  11
ATOM     11  C   UNL     1       1.335  -2.787  -2.304  0.00  0.00    +0.143 A 
ATOM     12  C   UNL     1       2.295  -3.563  -1.744  0.00  0.00    +0.036 A 
ATOM     13  C   UNL     1       3.568  -3.548  -2.281  0.00  0.00    +0.010 A 
ATOM     14  C   UNL     1       3.820  -2.757  -3.353  0.00  0.00    +0.047 A 
ATOM     15  S   UNL     1       2.227  -2.004  -3.638  0.00  0.00    -0.077 S 
ENDBRANCH   8  11
ENDBRANCH   7   8
ENDBRANCH   5   7
ENDBRANCH   1   5
BRANCH   3  16
ATOM     16  C   UNL     1      -3.112  -2.186   3.216  0.00  0.00    +0.096 C 
BRANCH  16  17
ATOM     17  C   UNL     1      -2.968  -2.601   4.682  0.00  0.00    +0.016 C 
BRANCH  17  18
ATOM     18  N   UNL     1      -2.186  -3.842   4.765  0.00  0.00    +0.387 N 
ATOM     19  C   UNL     1      -2.815  -4.872   3.929  0.00  0.00    -0.078 C 
ATOM     20  C   UNL     1      -1.961  -6.141   3.948  0.00  0.00    -0.019 C 
ATOM     21  C   UNL     1      -1.845  -6.651   5.388  0.00  0.00    -0.004 C 
ATOM     22  C   UNL     1      -1.256  -5.542   6.265  0.00  0.00    -0.019 C 
ATOM     23  C   UNL     1      -2.136  -4.295   6.160  0.00  0.00    -0.078 C 
ATOM     24  H   UNL     1      -1.248  -3.671   4.434  0.00  0.00    -0.081 HD
ENDBRANCH  17  18
BRANCH  17  25
ATOM     25  C   UNL     1      -4.334  -2.828   5.276  0.00  0.00    +0.093 A 
ATOM     26  C   UNL     1      -4.943  -2.033   6.174  0.00  0.00    +0.043 A 
ATOM     27  C   UNL     1      -6.199  -2.618   6.454  0.00  0.00    +0.041 A 
ATOM     28  C   UNL     1      -6.283  -3.735   5.710  0.00  0.00    +0.195 A 
ATOM     29  O   UNL     1      -5.153  -3.854   4.994  0.00  0.00    -0.469 OA
ENDBRANCH  17  25
ENDBRANCH  16  17
ENDBRANCH   3  16
TORSDOF 8
