REMARK  Name = ZINC35150969
REMARK  4 active torsions:
REMARK  status: ('A' for Active; 'I' for Inactive)
REMARK    1  A    between atoms: C_1  and  C_2
REMARK    2  A    between atoms: C_10  and  C_11
REMARK    3  A    between atoms: C_17  and  C_20
REMARK    4  A    between atoms: C_20  and  O_21
REMARK                            x       y       z     vdW  Elec       q    Type
REMARK                         _______ _______ _______ _____ _____    ______ ____
ROOT
ATOM      1  C   UNL     1       0.554   1.435   0.014  0.00  0.00    +0.048 C 
ATOM      2  C   UNL     1       0.194  -0.029   0.004  0.00  0.00    +0.008 A 
ATOM      3  C   UNL     1       0.026  -0.885  -1.170  0.00  0.00    +0.025 A 
ATOM      4  C   UNL     1       0.127  -0.678  -2.549  0.00  0.00    +0.032 A 
ATOM      5  C   UNL     1      -0.098  -1.718  -3.408  0.00  0.00    +0.042 A 
ATOM      6  C   UNL     1      -0.425  -2.976  -2.918  0.00  0.00    +0.023 A 
ATOM      7  C   UNL     1      -0.529  -3.200  -1.563  0.00  0.00    +0.048 A 
ATOM      8  C   UNL     1      -0.304  -2.158  -0.670  0.00  0.00    +0.136 A 
ATOM      9  O   UNL     1      -0.332  -2.072   0.674  0.00  0.00    -0.450 OA
ATOM     10  C   UNL     1      -0.034  -0.821   1.083  0.00  0.00    +0.194 A 
ATOM     11 CL   UNL     1       0.026  -1.463  -5.120  0.00  0.00    -0.084 Cl
ENDROOT
BRANCH  10  12
ATOM     12  C   UNL     1       0.032  -0.382   2.484  0.00  0.00    +0.282 C 
ATOM     13  O   UNL     1       0.158   0.799   2.745  0.00  0.00    -0.267 OA
ATOM     14  N   UNL     1      -0.048  -1.288   3.478  0.00  0.00    -0.295 N 
ATOM     15  C   UNL     1      -0.027  -2.727   3.184  0.00  0.00    +0.108 C 
ATOM     16  C   UNL     1       1.078  -3.385   4.017  0.00  0.00    +0.019 C 
ATOM     17  C   UNL     1       0.865  -3.049   5.495  0.00  0.00    +0.009 C 
ATOM     18  C   UNL     1       0.949  -1.533   5.692  0.00  0.00    +0.032 C 
ATOM     19  C   UNL     1      -0.151  -0.855   4.879  0.00  0.00    +0.114 C 
BRANCH  18  20
ATOM     20  C   UNL     1       0.770  -1.201   7.175  0.00  0.00    +0.160 C 
BRANCH  20  21
ATOM     21  O   UNL     1       0.963   0.200   7.376  0.00  0.00    -0.395 OA
ATOM     22  H   UNL     1       0.864   0.483   8.295  0.00  0.00    +0.209 HD
ENDBRANCH  20  21
ENDBRANCH  18  20
ENDBRANCH  10  12
TORSDOF 3
