REMARK  Name = ZINC62017623
REMARK  8 active torsions:
REMARK  status: ('A' for Active; 'I' for Inactive)
REMARK    1  A    between atoms: C_1  and  C_2
REMARK    2  A    between atoms: C_2  and  C_3
REMARK    3  A    between atoms: C_2  and  C_4
REMARK    4  A    between atoms: N_8  and  C_9
REMARK    5  A    between atoms: C_9  and  C_10
REMARK    6  A    between atoms: C_16  and  C_18
REMARK    7  A    between atoms: C_24  and  O_27
REMARK    8  A    between atoms: O_27  and  C_28
REMARK                            x       y       z     vdW  Elec       q    Type
REMARK                         _______ _______ _______ _____ _____    ______ ____
ROOT
ATOM      1  C   UNL     1      -0.271  -3.744   0.887  0.00  0.00    +0.012 C 
ATOM      2  C   UNL     1      -0.162  -3.107  -0.500  0.00  0.00    +0.024 C 
ATOM      3  C   UNL     1       0.239  -4.177  -1.519  0.00  0.00    +0.108 C 
ATOM      4  N   UNL     1      -0.720  -5.288  -1.440  0.00  0.00    -0.295 N 
ATOM      5  C   UNL     1      -0.968  -5.915  -0.135  0.00  0.00    +0.108 C 
ATOM      6  C   UNL     1      -1.355  -4.825   0.870  0.00  0.00    +0.024 C 
ATOM      7  C   UNL     1      -1.359  -5.724  -2.544  0.00  0.00    +0.282 C 
ATOM      8  O   UNL     1      -1.060  -5.278  -3.636  0.00  0.00    -0.267 OA
ENDROOT
BRANCH   7   9
ATOM      9  C   UNL     1      -2.417  -6.738  -2.428  0.00  0.00    +0.191 A 
ATOM     10  C   UNL     1      -3.019  -7.361  -3.474  0.00  0.00    +0.063 A 
ATOM     11  C   UNL     1      -3.997  -8.279  -2.889  0.00  0.00    +0.025 A 
ATOM     12  C   UNL     1      -4.918  -9.188  -3.419  0.00  0.00    +0.012 A 
ATOM     13  C   UNL     1      -5.711  -9.917  -2.581  0.00  0.00    +0.004 A 
ATOM     14  C   UNL     1      -5.611  -9.764  -1.205  0.00  0.00    +0.049 A 
ATOM     15  C   UNL     1      -4.707  -8.872  -0.659  0.00  0.00    +0.163 A 
ATOM     16  C   UNL     1      -3.887  -8.117  -1.497  0.00  0.00    +0.177 A 
ATOM     17  O   UNL     1      -2.932  -7.194  -1.268  0.00  0.00    -0.447 OA
BRANCH  15  18
ATOM     18  O   UNL     1      -4.618  -8.731   0.691  0.00  0.00    -0.491 OA
ATOM     19  C   UNL     1      -5.490  -9.537   1.486  0.00  0.00    +0.277 C 
ENDBRANCH  15  18
ENDBRANCH   7   9
BRANCH   1  20
ATOM     20  C   UNL     1      -0.638  -2.671   1.914  0.00  0.00    +0.126 C 
BRANCH  20  25
ATOM     21  C   UNL     1       1.617  -1.882   2.695  0.00  0.00    +0.090 A 
ATOM     22  N   UNL     1       2.346  -0.808   2.561  0.00  0.00    -0.349 N 
ATOM     23  C   UNL     1       1.683   0.086   1.811  0.00  0.00    +0.101 A 
ATOM     24  C   UNL     1       0.498  -0.456   1.468  0.00  0.00    +0.104 A 
ATOM     25  N   UNL     1       0.459  -1.706   2.024  0.00  0.00    -0.335 N 
ATOM     26  H   UNL     1       3.228  -0.676   2.942  0.00  0.00    +0.166 HD
BRANCH  21  28
ATOM     27  C   UNL     1       3.511  -3.355   3.321  0.00  0.00    +0.015 C 
ATOM     28  C   UNL     1       2.007  -3.117   3.466  0.00  0.00    +0.047 C 
ATOM     29  C   UNL     1       1.661  -2.925   4.944  0.00  0.00    +0.015 C 
ENDBRANCH  21  28
ENDBRANCH  20  25
ENDBRANCH   1  20
TORSDOF 5
