REMARK  Name = ZINC35475186
REMARK  3 active torsions:
REMARK  status: ('A' for Active; 'I' for Inactive)
REMARK    1  A    between atoms: C_6  and  C_7
REMARK    2  A    between atoms: C_7  and  N_8
REMARK    3  A    between atoms: C_15  and  C_16
REMARK                            x       y       z     vdW  Elec       q    Type
REMARK                         _______ _______ _______ _____ _____    ______ ____
ROOT
ATOM      1  N   UNL     1      -2.270  -1.185  -1.376  0.00  0.00    -0.329 N 
ATOM      2  C   UNL     1      -2.726  -0.099  -2.078  0.00  0.00    +0.088 A 
ATOM      3  C   UNL     1      -3.500   1.083  -2.026  0.00  0.00    +0.067 A 
ATOM      4  C   UNL     1      -3.447   1.647  -3.245  0.00  0.00    +0.198 A 
ATOM      5  O   UNL     1      -2.687   0.890  -4.055  0.00  0.00    -0.461 OA
ATOM      6  C   UNL     1      -2.231  -0.184  -3.376  0.00  0.00    +0.153 A 
ATOM      7  C   UNL     1      -1.459  -1.349  -3.454  0.00  0.00    +0.079 A 
ATOM      8  C   UNL     1      -1.487  -1.953  -2.216  0.00  0.00    +0.109 A 
ENDROOT
BRANCH   8   9
ATOM      9  C   UNL     1      -0.806  -3.198  -1.852  0.00  0.00    +0.263 C 
ATOM     10  O   UNL     1      -0.440  -3.380  -0.706  0.00  0.00    -0.268 OA
ATOM     11  N   UNL     1      -0.584  -4.142  -2.788  0.00  0.00    -0.296 N 
ATOM     12  C   UNL     1      -1.187  -4.030  -4.123  0.00  0.00    +0.113 C 
ATOM     13  C   UNL     1      -1.956  -5.320  -4.426  0.00  0.00    +0.084 C 
ATOM     14  C   UNL     1      -1.023  -6.519  -4.253  0.00  0.00    +0.173 C 
ATOM     15  C   UNL     1      -0.516  -6.582  -2.811  0.00  0.00    +0.084 C 
ATOM     16  C   UNL     1       0.272  -5.301  -2.495  0.00  0.00    +0.113 C 
ATOM     17  O   UNL     1      -1.728  -7.726  -4.568  0.00  0.00    -0.346 OA
ATOM     18  C   UNL     1      -1.031  -8.357  -5.661  0.00  0.00    +0.191 C 
ATOM     19  C   UNL     1       0.388  -7.740  -5.575  0.00  0.00    +0.191 C 
ATOM     20  O   UNL     1       0.095  -6.388  -5.147  0.00  0.00    -0.346 OA
ENDBRANCH   8   9
BRANCH   1  21
ATOM     21  C   UNL     1      -2.560  -1.478   0.030  0.00  0.00    +0.157 C 
BRANCH  21  27
ATOM     22  C   UNL     1      -1.879   0.599   1.250  0.00  0.00    +0.008 A 
ATOM     23  C   UNL     1      -1.004   1.302   2.056  0.00  0.00    +0.041 A 
ATOM     24  C   UNL     1       0.147   0.694   2.524  0.00  0.00    +0.158 A 
ATOM     25  C   UNL     1       0.422  -0.622   2.183  0.00  0.00    +0.159 A 
ATOM     26  C   UNL     1      -0.455  -1.323   1.375  0.00  0.00    +0.046 A 
ATOM     27  C   UNL     1      -1.605  -0.713   0.909  0.00  0.00    -0.025 A 
ATOM     28  F   UNL     1       1.546  -1.218   2.638  0.00  0.00    -0.202 F 
ATOM     29  F   UNL     1       1.003   1.381   3.312  0.00  0.00    -0.202 F 
ENDBRANCH  21  27
ENDBRANCH   1  21
TORSDOF 3
