REMARK  Name = ZINC05949484
REMARK  3 active torsions:
REMARK  status: ('A' for Active; 'I' for Inactive)
REMARK    1  A    between atoms: C_5  and  C_6
REMARK    2  A    between atoms: N_7  and  N_8
REMARK    3  A    between atoms: N_8  and  C_9
REMARK                            x       y       z     vdW  Elec       q    Type
REMARK                         _______ _______ _______ _____ _____    ______ ____
ROOT
ATOM      1  C   UNL     1       5.835   3.131  -0.037  0.00  0.00    +0.124 A 
ATOM      2  C   UNL     1       5.505   4.447  -0.344  0.00  0.00    +0.184 A 
ATOM      3  C   UNL     1       6.487   5.423  -0.341  0.00  0.00    +0.163 A 
ATOM      4  C   UNL     1       7.798   5.088  -0.045  0.00  0.00    +0.082 A 
ATOM      5  C   UNL     1       8.130   3.778   0.255  0.00  0.00    +0.163 A 
ATOM      6  C   UNL     1       7.152   2.798   0.260  0.00  0.00    +0.184 A 
ATOM      7  F   UNL     1       7.477   1.520   0.554  0.00  0.00    -0.200 F 
ATOM      8  F   UNL     1       9.410   3.455   0.544  0.00  0.00    -0.202 F 
ATOM      9  F   UNL     1       6.167   6.702  -0.633  0.00  0.00    -0.202 F 
ATOM     10  F   UNL     1       4.228   4.773  -0.639  0.00  0.00    -0.200 F 
ENDROOT
BRANCH   1  11
ATOM     11  N   UNL     1       4.845   2.144  -0.033  0.00  0.00    -0.232 N 
ATOM     12  H   UNL     1       5.095   1.206  -0.040  0.00  0.00    +0.175 HD
BRANCH  11  14
ATOM     13  C   UNL     1       2.573   1.592  -0.014  0.00  0.00    +0.141 C 
ATOM     14  N   UNL     1       3.493   2.508  -0.018  0.00  0.00    -0.190 NA
BRANCH  13  19
ATOM     15  C   UNL     1      -0.013   1.076   0.008  0.00  0.00    +0.050 A 
ATOM     16  C   UNL     1      -1.096   1.869   0.017  0.00  0.00    +0.195 A 
ATOM     17  O   UNL     1      -0.701   3.151   0.025  0.00  0.00    -0.470 OA
ATOM     18  C   UNL     1       0.637   3.237   0.013  0.00  0.00    +0.204 A 
ATOM     19  C   UNL     1       1.149   1.976   0.002  0.00  0.00    +0.032 A 
ENDBRANCH  13  19
ENDBRANCH  11  14
ENDBRANCH   1  11
TORSDOF 3
