REMARK  Name = ZINC02486749
REMARK  7 active torsions:
REMARK  status: ('A' for Active; 'I' for Inactive)
REMARK    1  A    between atoms: C_1  and  C_2
REMARK    2  A    between atoms: C_5  and  C_8
REMARK    3  A    between atoms: C_11  and  C_29
REMARK    4  A    between atoms: C_16  and  N_18
REMARK    5  A    between atoms: N_18  and  S_19
REMARK    6  A    between atoms: S_19  and  C_22
REMARK    7  A    between atoms: C_25  and  C_28
REMARK                            x       y       z     vdW  Elec       q    Type
REMARK                         _______ _______ _______ _____ _____    ______ ____
ROOT
ATOM      1  C   UNL     1       0.059  -4.275  -0.021  0.00  0.00    +0.147 C 
ATOM      2  C   UNL     1      -1.170  -4.814   0.719  0.00  0.00    +0.087 C 
ATOM      3  C   UNL     1      -0.995  -4.705   2.208  0.00  0.00    +0.055 C 
ATOM      4  N   UNL     1       0.166  -4.842   2.791  0.00  0.00    -0.217 NA
ATOM      5  C   UNL     1       1.270  -5.016   2.017  0.00  0.00    +0.228 A 
ATOM      6  N   UNL     1       1.253  -4.758   0.672  0.00  0.00    -0.221 N 
ATOM      7  N   UNL     1       2.527  -5.043   0.192  0.00  0.00    -0.130 NA
ATOM      8  C   UNL     1       3.246  -5.427   1.228  0.00  0.00    +0.255 A 
ATOM      9  N   UNL     1       2.484  -5.400   2.330  0.00  0.00    -0.293 N 
ATOM     10  H   UNL     1       2.784  -5.628   3.224  0.00  0.00    +0.172 HD
ENDROOT
BRANCH   1  15
ATOM     11  C   UNL     1      -0.018   1.503   0.010  0.00  0.00    +0.044 C 
ATOM     12  C   UNL     1       0.002  -0.004   0.002  0.00  0.00    -0.050 A 
ATOM     13  C   UNL     1       0.006  -0.689  -1.199  0.00  0.00    +0.004 A 
ATOM     14  C   UNL     1       0.025  -2.071  -1.206  0.00  0.00    +0.006 A 
ATOM     15  C   UNL     1       0.040  -2.768  -0.013  0.00  0.00    -0.023 A 
ATOM     16  C   UNL     1       0.037  -2.084   1.188  0.00  0.00    +0.006 A 
ATOM     17  C   UNL     1       0.023  -0.702   1.195  0.00  0.00    +0.004 A 
ENDBRANCH   1  15
BRANCH   3  18
ATOM     18  C   UNL     1      -2.177  -4.436   3.041  0.00  0.00    -0.004 A 
ATOM     19  C   UNL     1      -3.436  -4.291   2.450  0.00  0.00    +0.010 A 
ATOM     20  C   UNL     1      -4.539  -4.039   3.237  0.00  0.00    +0.001 A 
ATOM     21  C   UNL     1      -4.403  -3.929   4.610  0.00  0.00    +0.000 A 
ATOM     22  C   UNL     1      -3.160  -4.071   5.204  0.00  0.00    +0.001 A 
ATOM     23  C   UNL     1      -2.048  -4.329   4.430  0.00  0.00    +0.010 A 
ENDBRANCH   3  18
BRANCH   8  24
ATOM     24  N   UNL     1       4.588  -5.806   1.183  0.00  0.00    -0.058 NA
BRANCH  24  25
ATOM     25  S   UNL     1       5.405  -5.792  -0.258  0.00  0.00    +0.094 S 
ATOM     26  O   UNL     1       4.811  -6.794  -1.071  0.00  0.00    -0.148 OA
ATOM     27  O   UNL     1       5.490  -4.433  -0.664  0.00  0.00    -0.148 OA
BRANCH  25  28
ATOM     28  C   UNL     1       7.053  -6.322   0.072  0.00  0.00    +0.110 A 
ATOM     29  C   UNL     1       8.024  -5.396   0.403  0.00  0.00    +0.029 A 
ATOM     30  C   UNL     1       9.316  -5.812   0.662  0.00  0.00    +0.005 A 
ATOM     31  C   UNL     1       9.637  -7.155   0.591  0.00  0.00    -0.050 A 
ATOM     32  C   UNL     1       8.666  -8.081   0.261  0.00  0.00    +0.005 A 
ATOM     33  C   UNL     1       7.372  -7.666   0.006  0.00  0.00    +0.029 A 
ATOM     34  C   UNL     1      11.047  -7.609   0.872  0.00  0.00    +0.044 C 
ENDBRANCH  25  28
ENDBRANCH  24  25
ENDBRANCH   8  24
TORSDOF 5
