REMARK  Name = ZINC64742584
REMARK  6 active torsions:
REMARK  status: ('A' for Active; 'I' for Inactive)
REMARK    1  A    between atoms: C_1  and  C_2
REMARK    2  A    between atoms: C_7  and  N_8
REMARK    3  A    between atoms: C_9  and  C_11
REMARK    4  A    between atoms: C_19  and  S_25
REMARK    5  A    between atoms: S_25  and  C_26
REMARK    6  A    between atoms: C_26  and  C_27
REMARK                            x       y       z     vdW  Elec       q    Type
REMARK                         _______ _______ _______ _____ _____    ______ ____
ROOT
ATOM      1  C   UNL     1      -0.168   0.054   4.882  0.00  0.00    +0.103 C 
ATOM      2  C   UNL     1       1.065   0.942   5.075  0.00  0.00    +0.110 C 
ATOM      3  C   UNL     1       2.277   0.117   5.390  0.00  0.00    +0.219 C 
ATOM      4  O   UNL     1       3.369   0.613   5.213  0.00  0.00    -0.275 OA
ATOM      5  N   UNL     1       2.220  -1.139   5.856  0.00  0.00    -0.273 N 
ATOM      6  C   UNL     1       1.022  -1.779   6.003  0.00  0.00    +0.117 C 
ATOM      7  N   UNL     1       0.968  -3.077   6.096  0.00  0.00    -0.212 NA
ATOM      8  C   UNL     1      -0.193  -3.743   6.124  0.00  0.00    +0.182 C 
ATOM      9  N   UNL     1      -1.362  -3.127   6.016  0.00  0.00    -0.154 NA
ATOM     10  C   UNL     1      -1.450  -1.806   5.950  0.00  0.00    +0.249 C 
ATOM     11  O   UNL     1      -2.540  -1.287   5.812  0.00  0.00    -0.273 OA
ATOM     12  C   UNL     1      -0.232  -0.942   6.044  0.00  0.00    +0.153 C 
ATOM     13  H   UNL     1       3.041  -1.599   6.093  0.00  0.00    +0.156 HD
ENDROOT
BRANCH   1  15
ATOM     14  N   UNL     1       0.025  -0.014   2.417  0.00  0.00    -0.285 N 
ATOM     15  C   UNL     1      -0.056  -0.693   3.578  0.00  0.00    +0.222 C 
ATOM     16  O   UNL     1      -0.040  -1.906   3.574  0.00  0.00    -0.275 OA
ATOM     17  H   UNL     1       0.078   0.955   2.424  0.00  0.00    +0.155 HD
BRANCH  14  24
ATOM     18  C   UNL     1      -1.265   1.183   0.181  0.00  0.00    +0.045 C 
ATOM     19  C   UNL     1      -0.584  -0.158   0.084  0.00  0.00    -0.029 A 
ATOM     20  C   UNL     1      -0.569  -0.840  -1.117  0.00  0.00    +0.006 A 
ATOM     21  C   UNL     1       0.055  -2.071  -1.207  0.00  0.00    +0.020 A 
ATOM     22  C   UNL     1       0.667  -2.622  -0.095  0.00  0.00    +0.043 A 
ATOM     23  C   UNL     1       0.656  -1.944   1.109  0.00  0.00    +0.043 A 
ATOM     24  C   UNL     1       0.034  -0.706   1.201  0.00  0.00    +0.038 A 
ATOM     25 CL   UNL     1       1.450  -4.167  -0.213  0.00  0.00    -0.083 Cl
ENDBRANCH  14  24
ENDBRANCH   1  15
BRANCH   8  26
ATOM     26  S   UNL     1      -0.166  -5.495   6.311  0.00  0.00    -0.084 S 
BRANCH  26  27
ATOM     27  C   UNL     1      -1.918  -5.964   6.297  0.00  0.00    +0.112 C 
BRANCH  27  28
ATOM     28  C   UNL     1      -2.039  -7.459   6.451  0.00  0.00    -0.037 A 
ATOM     29  C   UNL     1      -2.046  -8.270   5.331  0.00  0.00    +0.007 A 
ATOM     30  C   UNL     1      -2.156  -9.640   5.471  0.00  0.00    +0.038 A 
ATOM     31  C   UNL     1      -2.260 -10.201   6.733  0.00  0.00    +0.123 A 
ATOM     32  C   UNL     1      -2.253  -9.387   7.853  0.00  0.00    +0.038 A 
ATOM     33  C   UNL     1      -2.137  -8.018   7.711  0.00  0.00    +0.007 A 
ATOM     34  F   UNL     1      -2.368 -11.540   6.871  0.00  0.00    -0.205 F 
ENDBRANCH  27  28
ENDBRANCH  26  27
ENDBRANCH   8  26
TORSDOF 5
