REMARK  Name = ZINC02363483
REMARK  4 active torsions:
REMARK  status: ('A' for Active; 'I' for Inactive)
REMARK    1  A    between atoms: C_1  and  C_2
REMARK    2  A    between atoms: C_4  and  C_25
REMARK    3  A    between atoms: C_16  and  C_18
REMARK    4  A    between atoms: C_22  and  O_24
REMARK                            x       y       z     vdW  Elec       q    Type
REMARK                         _______ _______ _______ _____ _____    ______ ____
ROOT
ATOM      1  C   UNL     1       7.599  -3.088   3.990  0.00  0.00    +0.044 C 
ATOM      2  C   UNL     1       6.241  -3.696   3.748  0.00  0.00    -0.049 A 
ATOM      3  C   UNL     1       6.088  -5.075   3.780  0.00  0.00    +0.010 A 
ATOM      4  C   UNL     1       4.856  -5.653   3.562  0.00  0.00    -0.007 A 
ATOM      5  C   UNL     1       3.749  -4.849   3.307  0.00  0.00    +0.142 A 
ATOM      6  C   UNL     1       3.914  -3.454   3.276  0.00  0.00    +0.065 A 
ATOM      7  C   UNL     1       5.168  -2.887   3.498  0.00  0.00    +0.018 A 
ATOM      8  C   UNL     1       2.728  -2.619   3.003  0.00  0.00    +0.199 A 
ATOM      9  O   UNL     1       2.797  -1.404   2.962  0.00  0.00    -0.287 OA
ATOM     10  C   UNL     1       1.462  -3.325   2.787  0.00  0.00    +0.072 A 
ATOM     11  C   UNL     1       1.427  -4.680   2.840  0.00  0.00    +0.199 A 
ATOM     12  O   UNL     1       2.539  -5.398   3.092  0.00  0.00    -0.449 OA
ATOM     13  C   UNL     1       0.033  -5.122   2.585  0.00  0.00    +0.281 C 
ATOM     14  O   UNL     1      -0.336  -6.279   2.565  0.00  0.00    -0.267 OA
ATOM     15  N   UNL     1      -0.761  -4.058   2.380  0.00  0.00    -0.298 N 
ATOM     16  C   UNL     1       0.064  -2.849   2.489  0.00  0.00    +0.142 C 
ATOM     17  C   UNL     1       4.708  -7.152   3.601  0.00  0.00    +0.047 C 
ATOM     18  H   UNL     1      -1.713  -4.083   2.193  0.00  0.00    +0.150 HD
ENDROOT
BRANCH  16  19
ATOM     19  C   UNL     1       0.042  -2.086   1.189  0.00  0.00    -0.019 A 
ATOM     20  C   UNL     1       0.039  -2.770  -0.013  0.00  0.00    +0.006 A 
ATOM     21  C   UNL     1       0.018  -2.074  -1.207  0.00  0.00    +0.004 A 
ATOM     22  C   UNL     1      -0.006  -0.692  -1.202  0.00  0.00    +0.045 A 
ATOM     23  C   UNL     1       0.002  -0.004   0.002  0.00  0.00    +0.117 A 
ATOM     24  C   UNL     1       0.023  -0.705   1.199  0.00  0.00    +0.051 A 
BRANCH  23  25
ATOM     25  O   UNL     1      -0.016   1.355   0.009  0.00  0.00    -0.507 OA
ATOM     26  H   UNL     1       0.862   1.760   0.003  0.00  0.00    +0.292 HD
ENDBRANCH  23  25
ENDBRANCH  16  19
TORSDOF 2
