REMARK  Name = ZINC38107202
REMARK  3 active torsions:
REMARK  status: ('A' for Active; 'I' for Inactive)
REMARK    1  A    between atoms: C_6  and  S_10
REMARK    2  A    between atoms: S_10  and  N_13
REMARK    3  A    between atoms: N_13  and  C_14
REMARK                            x       y       z     vdW  Elec       q    Type
REMARK                         _______ _______ _______ _____ _____    ______ ____
ROOT
ATOM      1  S   UNL     1      -2.673  -0.912   0.025  0.00  0.00    +0.078 S 
ATOM      2  O   UNL     1      -3.183  -2.121   0.571  0.00  0.00    -0.151 OA
ATOM      3  O   UNL     1      -2.967   0.361   0.586  0.00  0.00    -0.151 OA
ENDROOT
BRANCH   1   9
ATOM      4  C   UNL     1      -0.016   1.363   0.024  0.00  0.00    +0.102 A 
ATOM      5  C   UNL     1       1.121   2.058   0.021  0.00  0.00    +0.067 A 
ATOM      6  S   UNL     1       2.346   0.758   0.007  0.00  0.00    -0.058 S 
ATOM      7  C   UNL     1       1.226  -0.622   0.005  0.00  0.00    +0.180 A 
ATOM      8  N   UNL     1      -0.002  -0.015   0.015  0.00  0.00    -0.276 N 
ATOM      9  C   UNL     1      -0.918  -1.064   0.014  0.00  0.00    +0.218 A 
ATOM     10  C   UNL     1      -0.222  -2.214   0.003  0.00  0.00    +0.176 A 
ATOM     11  N   UNL     1       1.087  -1.917  -0.002  0.00  0.00    -0.208 NA
ATOM     12 CL   UNL     1      -0.900  -3.812  -0.003  0.00  0.00    -0.058 Cl
ENDBRANCH   1   9
BRANCH   1  13
ATOM     13  N   UNL     1      -3.170  -0.859  -1.554  0.00  0.00    -0.177 NA
ATOM     14  H   UNL     1      -3.587  -0.057  -1.905  0.00  0.00    +0.149 HD
BRANCH  13  15
ATOM     15  C   UNL     1      -2.980  -2.025  -2.421  0.00  0.00    +0.162 C 
ATOM     16  C   UNL     1      -2.810  -1.565  -3.870  0.00  0.00    +0.030 C 
ATOM     17  C   UNL     1      -3.665  -0.343  -4.151  0.00  0.00    +0.004 C 
ATOM     18  C   UNL     1      -5.157  -0.615  -4.102  0.00  0.00    +0.019 C 
ATOM     19  C   UNL     1      -5.602  -0.961  -2.680  0.00  0.00    +0.104 C 
ATOM     20  N   UNL     1      -5.421  -2.406  -2.468  0.00  0.00    -0.314 N 
ATOM     21  C   UNL     1      -4.196  -2.925  -2.337  0.00  0.00    +0.232 C 
ATOM     22  O   UNL     1      -4.055  -4.116  -2.157  0.00  0.00    -0.274 OA
ATOM     23  H   UNL     1      -6.196  -2.987  -2.420  0.00  0.00    +0.149 HD
ENDBRANCH  13  15
ENDBRANCH   1  13
TORSDOF 3
