REMARK  Name = ZINC14534387
REMARK  7 active torsions:
REMARK  status: ('A' for Active; 'I' for Inactive)
REMARK    1  A    between atoms: C_1  and  O_2
REMARK    2  A    between atoms: O_2  and  C_3
REMARK    3  A    between atoms: C_3  and  C_4
REMARK    4  A    between atoms: C_4  and  N_5
REMARK    5  A    between atoms: C_13  and  N_63
REMARK    6  A    between atoms: N_22  and  C_25
REMARK    7  A    between atoms: C_25  and  C_26
REMARK                            x       y       z     vdW  Elec       q    Type
REMARK                         _______ _______ _______ _____ _____    ______ ____
ROOT
ATOM      1  N   UNL     1       3.123   4.940  -3.441  0.00  0.00    -0.222 N 
ATOM      2  C   UNL     1       3.763   3.757  -3.546  0.00  0.00    +0.247 C 
ATOM      3  O   UNL     1       4.325   3.311  -4.524  0.00  0.00    -0.273 OA
ATOM      4  C   UNL     1       3.635   3.107  -2.189  0.00  0.00    +0.112 C 
ATOM      5  C   UNL     1       2.882   1.785  -2.301  0.00  0.00    +0.017 C 
ATOM      6  C   UNL     1       2.789   1.135  -0.917  0.00  0.00    -0.076 C 
ATOM      7  C   UNL     1       4.848   2.200  -0.208  0.00  0.00    -0.076 C 
ATOM      8  C   UNL     1       5.010   2.886  -1.567  0.00  0.00    +0.017 C 
ATOM      9  N   UNL     1       2.862   4.074  -1.400  0.00  0.00    -0.267 N 
ATOM     10  C   UNL     1       2.611   5.116  -2.216  0.00  0.00    +0.312 C 
ATOM     11  O   UNL     1       1.991   6.105  -1.878  0.00  0.00    -0.252 OA
ATOM     12  N   UNL     1       4.157   0.908  -0.403  0.00  0.00    +0.382 N 
ATOM     13  H   UNL     1       4.681   0.350  -1.088  0.00  0.00    -0.081 HD
ENDROOT
BRANCH  12  14
ATOM     14  C   UNL     1       4.099   0.168   0.874  0.00  0.00    -0.060 C 
ATOM     15  C   UNL     1       5.514  -0.294   1.283  0.00  0.00    +0.020 C 
ATOM     16  C   UNL     1       5.317  -1.652   1.923  0.00  0.00    -0.046 A 
ATOM     17  C   UNL     1       6.157  -2.389   2.742  0.00  0.00    +0.004 A 
ATOM     18  C   UNL     1       5.759  -3.623   3.215  0.00  0.00    +0.000 A 
ATOM     19  C   UNL     1       4.518  -4.127   2.871  0.00  0.00    +0.000 A 
ATOM     20  C   UNL     1       3.679  -3.394   2.054  0.00  0.00    +0.004 A 
ATOM     21  C   UNL     1       4.076  -2.155   1.579  0.00  0.00    -0.046 A 
ATOM     22  C   UNL     1       3.355  -1.171   0.684  0.00  0.00    +0.020 C 
ENDBRANCH  12  14
BRANCH   1  23
ATOM     23  C   UNL     1       3.002   5.911  -4.531  0.00  0.00    +0.146 C 
BRANCH  23  24
ATOM     24  C   UNL     1       4.189   6.876  -4.487  0.00  0.00    +0.179 C 
BRANCH  24  26
ATOM     25  C   UNL     1       6.571   6.972  -4.734  0.00  0.00    +0.194 C 
ATOM     26  O   UNL     1       5.396   6.159  -4.751  0.00  0.00    -0.381 OA
ENDBRANCH  24  26
ENDBRANCH  23  24
ENDBRANCH   1  23
BRANCH   9  27
ATOM     27  C   UNL     1       2.451   3.937  -0.001  0.00  0.00    +0.145 C 
BRANCH  27  28
ATOM     28  C   UNL     1       0.948   3.999   0.090  0.00  0.00    -0.030 A 
ATOM     29  C   UNL     1       0.194   2.862  -0.130  0.00  0.00    +0.005 A 
ATOM     30  C   UNL     1      -1.185   2.919  -0.047  0.00  0.00    +0.000 A 
ATOM     31  C   UNL     1      -1.810   4.116   0.250  0.00  0.00    +0.000 A 
ATOM     32  C   UNL     1      -1.056   5.253   0.475  0.00  0.00    +0.000 A 
ATOM     33  C   UNL     1       0.323   5.195   0.393  0.00  0.00    +0.005 A 
ENDBRANCH  27  28
ENDBRANCH   9  27
TORSDOF 6
