REMARK  Name = ZINC19393626
REMARK  4 active torsions:
REMARK  status: ('A' for Active; 'I' for Inactive)
REMARK    1  A    between atoms: C_3  and  C_9
REMARK    2  A    between atoms: C_6  and  C_7
REMARK    3  A    between atoms: C_7  and  N_8
REMARK    4  A    between atoms: C_9  and  N_10
REMARK                            x       y       z     vdW  Elec       q    Type
REMARK                         _______ _______ _______ _____ _____    ______ ____
ROOT
ATOM      1  N   UNL     1      -2.011   2.464   5.949  0.00  0.00    -0.220 N 
ATOM      2  C   UNL     1      -2.281   1.296   6.568  0.00  0.00    +0.247 C 
ATOM      3  O   UNL     1      -3.122   0.479   6.260  0.00  0.00    -0.273 OA
ATOM      4  C   UNL     1      -1.311   1.218   7.724  0.00  0.00    +0.113 C 
ATOM      5  C   UNL     1      -2.069   1.161   9.046  0.00  0.00    +0.035 C 
ATOM      6  C   UNL     1      -1.072   1.121  10.207  0.00  0.00    +0.003 C 
ATOM      7  C   UNL     1      -0.172  -0.108  10.062  0.00  0.00    +0.000 C 
ATOM      8  C   UNL     1       0.598  -0.027   8.743  0.00  0.00    +0.003 C 
ATOM      9  C   UNL     1      -0.394   0.009   7.576  0.00  0.00    +0.035 C 
ATOM     10  N   UNL     1      -0.539   2.464   7.628  0.00  0.00    -0.285 N 
ATOM     11  C   UNL     1      -1.020   3.127   6.559  0.00  0.00    +0.310 C 
ATOM     12  O   UNL     1      -0.602   4.207   6.189  0.00  0.00    -0.252 OA
ATOM     13  H   UNL     1       0.252   2.679   8.361  0.00  0.00    +0.151 HD
ENDROOT
BRANCH   1  14
ATOM     14  C   UNL     1      -2.718   2.950   4.762  0.00  0.00    +0.153 C 
BRANCH  14  17
ATOM     15  C   UNL     1      -0.360   2.779   1.819  0.00  0.00    +0.002 A 
ATOM     16  C   UNL     1      -1.010   3.227   2.953  0.00  0.00    +0.005 A 
ATOM     17  C   UNL     1      -2.012   2.463   3.523  0.00  0.00    -0.030 A 
ATOM     18  C   UNL     1      -2.366   1.254   2.955  0.00  0.00    +0.005 A 
ATOM     19  C   UNL     1      -1.719   0.808   1.818  0.00  0.00    +0.002 A 
ATOM     20  C   UNL     1      -0.718   1.572   1.248  0.00  0.00    -0.065 A 
BRANCH  20  21
ATOM     21  C   UNL     1      -0.013   1.086   0.008  0.00  0.00    -0.051 C 
BRANCH  21  22
ATOM     22  N   UNL     1      -0.723   1.572  -1.182  0.00  0.00    +0.381 N 
ATOM     23  H   UNL     1      -0.208   1.218  -2.087  0.00  0.00    -0.090 HD
ATOM     24  H   UNL     1      -0.738   2.672  -1.176  0.00  0.00    -0.090 HD
ATOM     25  H   UNL     1      -1.755   1.192  -1.174  0.00  0.00    -0.090 HD
ENDBRANCH  21  22
ENDBRANCH  20  21
ENDBRANCH  14  17
ENDBRANCH   1  14
TORSDOF 4
