REMARK  Name = ZINC00337613
REMARK  5 active torsions:
REMARK  status: ('A' for Active; 'I' for Inactive)
REMARK    1  A    between atoms: C_1  and  C_2
REMARK    2  A    between atoms: C_2  and  C_3
REMARK    3  A    between atoms: C_2  and  C_4
REMARK    4  A    between atoms: C_2  and  N_5
REMARK    5  A    between atoms: C_6  and  C_8
REMARK                            x       y       z     vdW  Elec       q    Type
REMARK                         _______ _______ _______ _____ _____    ______ ____
ROOT
ATOM      1  C   UNL     1       2.660  -0.607  -2.638  0.00  0.00    +0.122 A 
ATOM      2  C   UNL     1       3.989  -0.274  -2.896  0.00  0.00    +0.032 A 
ATOM      3  C   UNL     1       4.567  -0.741  -4.092  0.00  0.00    +0.026 A 
ATOM      4  C   UNL     1       6.008  -0.619  -4.328  0.00  0.00    -0.007 A 
ATOM      5  C   UNL     1       6.855  -0.021  -3.392  0.00  0.00    +0.009 A 
ATOM      6  C   UNL     1       8.192   0.071  -3.652  0.00  0.00    +0.001 A 
ATOM      7  C   UNL     1       8.723  -0.423  -4.839  0.00  0.00    +0.001 A 
ATOM      8  C   UNL     1       7.923  -1.012  -5.773  0.00  0.00    +0.008 A 
ATOM      9  C   UNL     1       6.544  -1.124  -5.536  0.00  0.00    -0.017 A 
ATOM     10  C   UNL     1       5.687  -1.727  -6.479  0.00  0.00    +0.012 A 
ATOM     11  C   UNL     1       4.353  -1.825  -6.252  0.00  0.00    +0.047 A 
ATOM     12  C   UNL     1       3.769  -1.338  -5.079  0.00  0.00    +0.140 A 
ATOM     13  O   UNL     1       2.428  -1.420  -4.903  0.00  0.00    -0.422 OA
ATOM     14  C   UNL     1       1.978  -1.459  -3.626  0.00  0.00    +0.350 A 
ATOM     15  O   UNL     1       1.042  -2.168  -3.306  0.00  0.00    -0.244 OA
ENDROOT
BRANCH   1  17
ATOM     16  N   UNL     1       0.688  -0.476  -1.203  0.00  0.00    -0.306 N 
ATOM     17  C   UNL     1       1.972  -0.132  -1.427  0.00  0.00    +0.251 C 
ATOM     18  O   UNL     1       2.561   0.571  -0.628  0.00  0.00    -0.270 OA
ATOM     19  H   UNL     1       0.218  -1.037  -1.840  0.00  0.00    +0.150 HD
BRANCH  16  21
ATOM     20  C   UNL     1      -0.019   1.526   0.010  0.00  0.00    +0.031 C 
ATOM     21  C   UNL     1       0.002  -0.004   0.002  0.00  0.00    +0.026 C 
ATOM     22  C   UNL     1       0.742  -0.511   1.242  0.00  0.00    +0.031 C 
ATOM     23  C   UNL     1      -1.433  -0.534   0.013  0.00  0.00    +0.031 C 
ENDBRANCH  16  21
ENDBRANCH   1  17
TORSDOF 2
