REMARK  Name = ZINC20357472
REMARK  3 active torsions:
REMARK  status: ('A' for Active; 'I' for Inactive)
REMARK    1  A    between atoms: C_1  and  N_2
REMARK    2  A    between atoms: C_6  and  C_7
REMARK    3  A    between atoms: N_13  and  C_14
REMARK                            x       y       z     vdW  Elec       q    Type
REMARK                         _______ _______ _______ _____ _____    ______ ____
ROOT
ATOM      1  C   UNL     1      -2.147   3.973   0.047  0.00  0.00    +0.046 C 
ATOM      2  C   UNL     1      -1.122   3.074   0.050  0.00  0.00    +0.079 C 
ATOM      3  C   UNL     1      -1.171   1.604   0.048  0.00  0.00    +0.256 C 
ATOM      4  O   UNL     1      -2.230   1.003   0.043  0.00  0.00    -0.269 OA
ATOM      5  N   UNL     1      -0.014   0.963   0.056  0.00  0.00    -0.260 N 
ATOM      6  C   UNL     1       1.174   1.661   0.055  0.00  0.00    +0.166 C 
ATOM      7  N   UNL     1       2.401   1.187   0.058  0.00  0.00    -0.226 NA
ATOM      8  S   UNL     1       0.641   3.365   0.051  0.00  0.00    -0.049 S 
ATOM      9  H   UNL     1       0.006  -0.137   0.063  0.00  0.00    +0.157 HD
ENDROOT
BRANCH   7  10
ATOM     10  C   UNL     1       2.612  -0.165   0.061  0.00  0.00    +0.069 A 
ATOM     11  C   UNL     1       1.880  -0.987   0.921  0.00  0.00    +0.048 A 
ATOM     12  C   UNL     1       2.094  -2.350   0.916  0.00  0.00    +0.044 A 
ATOM     13  C   UNL     1       3.040  -2.903   0.069  0.00  0.00    +0.040 A 
ATOM     14  C   UNL     1       3.774  -2.093  -0.781  0.00  0.00    +0.044 A 
ATOM     15  C   UNL     1       3.565  -0.728  -0.790  0.00  0.00    +0.048 A 
ATOM     16 CL   UNL     1       4.958  -2.795  -1.839  0.00  0.00    -0.083 Cl
ATOM     17 CL   UNL     1       1.180  -3.375   1.978  0.00  0.00    -0.083 Cl
ENDBRANCH   7  10
BRANCH   1  23
ATOM     18  C   UNL     1      -4.259   6.184   0.304  0.00  0.00    +0.149 C 
ATOM     19  N   UNL     1      -2.805   6.364   0.273  0.00  0.00    -0.350 N 
ATOM     20  C   UNL     1      -2.151   7.553   0.358  0.00  0.00    +0.086 A 
ATOM     21  C   UNL     1      -0.818   7.326   0.288  0.00  0.00    +0.020 A 
ATOM     22  C   UNL     1      -0.622   5.947   0.161  0.00  0.00    +0.027 A 
ATOM     23  C   UNL     1      -1.874   5.357   0.157  0.00  0.00    +0.043 A 
ENDBRANCH   1  23
TORSDOF 2
