REMARK  Name = ZINC18143805
REMARK  6 active torsions:
REMARK  status: ('A' for Active; 'I' for Inactive)
REMARK    1  A    between atoms: C_1  and  C_2
REMARK    2  A    between atoms: C_2  and  C_24
REMARK    3  A    between atoms: N_3  and  N_4
REMARK    4  A    between atoms: C_5  and  S_7
REMARK    5  A    between atoms: S_7  and  C_8
REMARK    6  A    between atoms: N_13  and  C_16
REMARK                            x       y       z     vdW  Elec       q    Type
REMARK                         _______ _______ _______ _____ _____    ______ ____
ROOT
ATOM      1  S   UNL     1      -0.090  -0.176   4.909  0.00  0.00    -0.078 S 
ENDROOT
BRANCH   1   2
ATOM      2  C   UNL     1       0.003  -1.228   6.383  0.00  0.00    +0.149 C 
ATOM      3  C   UNL     1       0.084  -0.368   7.661  0.00  0.00    +0.120 C 
ATOM      4  C   UNL     1       1.417  -0.754   8.264  0.00  0.00    +0.228 C 
ATOM      5  O   UNL     1       1.879  -0.305   9.291  0.00  0.00    -0.275 OA
ATOM      6  N   UNL     1       2.005  -1.669   7.484  0.00  0.00    -0.209 N 
ATOM      7  C   UNL     1       1.297  -2.013   6.397  0.00  0.00    +0.240 C 
ATOM      8  O   UNL     1       1.637  -2.821   5.560  0.00  0.00    -0.274 OA
BRANCH   6   9
ATOM      9  C   UNL     1       3.258  -2.226   7.779  0.00  0.00    +0.045 A 
ATOM     10  C   UNL     1       3.408  -3.055   8.883  0.00  0.00    +0.025 A 
ATOM     11  C   UNL     1       4.642  -3.602   9.172  0.00  0.00    +0.023 A 
ATOM     12  C   UNL     1       5.730  -3.325   8.363  0.00  0.00    +0.059 A 
ATOM     13  C   UNL     1       5.584  -2.499   7.261  0.00  0.00    +0.061 A 
ATOM     14  C   UNL     1       4.349  -1.953   6.966  0.00  0.00    +0.045 A 
ATOM     15 CL   UNL     1       6.950  -2.154   6.248  0.00  0.00    -0.082 Cl
ATOM     16 CL   UNL     1       7.281  -4.015   8.729  0.00  0.00    -0.082 Cl
ENDBRANCH   6   9
ENDBRANCH   1   2
BRANCH   1  18
ATOM     17  N   UNL     1      -0.360  -0.860   2.286  0.00  0.00    -0.217 N 
ATOM     18  C   UNL     1      -0.260  -1.319   3.579  0.00  0.00    +0.146 C 
ATOM     19  N   UNL     1      -0.290  -2.601   3.821  0.00  0.00    -0.380 N 
ATOM     20  H   UNL     1      -0.337   0.093   2.106  0.00  0.00    +0.176 HD
ATOM     21  H   UNL     1      -0.220  -2.925   4.732  0.00  0.00    +0.158 HD
ATOM     22  H   UNL     1      -0.384  -3.230   3.088  0.00  0.00    +0.158 HD
BRANCH  17  25
ATOM     23  C   UNL     1      -0.554   0.146  -0.273  0.00  0.00    +0.068 C 
ATOM     24  C   UNL     1      -0.590  -1.335   0.006  0.00  0.00    +0.070 C 
ATOM     25  N   UNL     1      -0.495  -1.769   1.228  0.00  0.00    -0.185 NA
BRANCH  24  26
ATOM     26  C   UNL     1      -0.731  -2.287  -1.101  0.00  0.00    +0.035 A 
ATOM     27  C   UNL     1      -0.791  -3.668  -1.062  0.00  0.00    +0.017 A 
ATOM     28  C   UNL     1      -0.927  -4.351  -2.249  0.00  0.00    +0.008 A 
ATOM     29  C   UNL     1      -1.000  -3.654  -3.412  0.00  0.00    +0.046 A 
ATOM     30  S   UNL     1      -0.880  -1.964  -2.851  0.00  0.00    -0.095 S 
ENDBRANCH  24  26
ENDBRANCH  17  25
ENDBRANCH   1  18
TORSDOF 5
