REMARK  Name = ZINC43005595
REMARK  8 active torsions:
REMARK  status: ('A' for Active; 'I' for Inactive)
REMARK    1  A    between atoms: C_1  and  C_2
REMARK    2  A    between atoms: C_6  and  C_9
REMARK    3  A    between atoms: C_7  and  C_8
REMARK    4  A    between atoms: N_11  and  C_12
REMARK    5  A    between atoms: N_11  and  C_13
REMARK    6  A    between atoms: C_14  and  N_29
REMARK    7  A    between atoms: N_15  and  C_22
REMARK    8  A    between atoms: C_22  and  C_23
REMARK                            x       y       z     vdW  Elec       q    Type
REMARK                         _______ _______ _______ _____ _____    ______ ____
ROOT
ATOM      1  C   UNL     1       0.138  -5.056   3.554  0.00  0.00    +0.140 A 
ATOM      2  C   UNL     1       0.253  -6.429   3.469  0.00  0.00    +0.128 A 
ATOM      3  N   UNL     1       0.337  -7.168   4.626  0.00  0.00    -0.276 N 
ATOM      4  C   UNL     1       0.307  -6.560   5.826  0.00  0.00    +0.331 A 
ATOM      5  O   UNL     1       0.383  -7.232   6.837  0.00  0.00    -0.246 OA
ATOM      6  N   UNL     1       0.196  -5.224   5.928  0.00  0.00    -0.273 N 
ATOM      7  H   UNL     1       0.177  -4.810   6.805  0.00  0.00    +0.173 HD
ATOM      8  C   UNL     1       0.116  -4.453   4.825  0.00  0.00    +0.277 A 
ATOM      9  O   UNL     1       0.021  -3.242   4.929  0.00  0.00    -0.266 OA
ENDROOT
BRANCH   1  12
ATOM     10  C   UNL     1      -1.027  -4.374   1.583  0.00  0.00    +0.251 C 
ATOM     11  O   UNL     1      -1.960  -5.084   1.906  0.00  0.00    -0.270 OA
ATOM     12  N   UNL     1       0.051  -4.270   2.386  0.00  0.00    -0.263 N 
ATOM     13  C   UNL     1       1.131  -3.341   2.046  0.00  0.00    +0.139 C 
BRANCH  10  19
ATOM     14  C   UNL     1      -1.747  -4.298  -3.354  0.00  0.00    +0.044 C 
ATOM     15  C   UNL     1      -1.419  -3.584  -2.068  0.00  0.00    -0.047 A 
ATOM     16  C   UNL     1      -1.163  -2.225  -2.078  0.00  0.00    +0.003 A 
ATOM     17  C   UNL     1      -0.862  -1.562  -0.901  0.00  0.00    +0.001 A 
ATOM     18  C   UNL     1      -0.816  -2.255   0.291  0.00  0.00    +0.013 A 
ATOM     19  C   UNL     1      -1.074  -3.626   0.309  0.00  0.00    +0.040 A 
ATOM     20  C   UNL     1      -1.382  -4.287  -0.881  0.00  0.00    -0.035 A 
ATOM     21  C   UNL     1      -1.668  -5.767  -0.871  0.00  0.00    +0.045 C 
ENDBRANCH  10  19
ENDBRANCH   1  12
BRANCH   2  22
ATOM     22  N   UNL     1       0.282  -7.050   2.243  0.00  0.00    -0.343 N 
ATOM     23  H   UNL     1       0.312  -6.519   1.431  0.00  0.00    +0.144 HD
ATOM     24  H   UNL     1       0.273  -8.018   2.190  0.00  0.00    +0.144 HD
ENDBRANCH   2  22
BRANCH   3  25
ATOM     25  C   UNL     1       0.459  -8.626   4.551  0.00  0.00    +0.163 C 
BRANCH  25  26
ATOM     26  C   UNL     1       1.916  -9.006   4.499  0.00  0.00    -0.028 A 
ATOM     27  C   UNL     1       2.559  -9.116   3.280  0.00  0.00    +0.005 A 
ATOM     28  C   UNL     1       3.896  -9.465   3.232  0.00  0.00    +0.000 A 
ATOM     29  C   UNL     1       4.590  -9.703   4.404  0.00  0.00    +0.000 A 
ATOM     30  C   UNL     1       3.947  -9.593   5.623  0.00  0.00    +0.000 A 
ATOM     31  C   UNL     1       2.612  -9.240   5.670  0.00  0.00    +0.005 A 
ENDBRANCH  25  26
ENDBRANCH   3  25
TORSDOF 5
