REMARK  Name = ZINC20764387
REMARK  10 active torsions:
REMARK  status: ('A' for Active; 'I' for Inactive)
REMARK    1  A    between atoms: C_1  and  C_2
REMARK    2  A    between atoms: C_2  and  O_3
REMARK    3  A    between atoms: O_3  and  C_4
REMARK    4  A    between atoms: C_7  and  C_10
REMARK    5  A    between atoms: N_12  and  N_13
REMARK    6  A    between atoms: C_14  and  C_15
REMARK    7  A    between atoms: C_17  and  C_29
REMARK    8  A    between atoms: N_18  and  C_21
REMARK    9  A    between atoms: C_19  and  C_20
REMARK   10  A    between atoms: C_26  and  C_27
REMARK                            x       y       z     vdW  Elec       q    Type
REMARK                         _______ _______ _______ _____ _____    ______ ____
ROOT
ATOM      1  N   UNL     1       0.074  -3.150   2.870  0.00  0.00    -0.187 NA
ATOM      2  C   UNL     1       0.062  -3.287   1.579  0.00  0.00    +0.140 C 
ENDROOT
BRANCH   2   3
ATOM      3  C   UNL     1       0.037  -2.096   0.711  0.00  0.00    +0.016 A 
ATOM      4  C   UNL     1       0.023  -2.076  -0.754  0.00  0.00    +0.032 A 
ATOM      5  C   UNL     1      -0.004  -0.781  -1.121  0.00  0.00    +0.022 A 
ATOM      6  N   UNL     1       0.002  -0.004   0.002  0.00  0.00    -0.317 N 
ATOM      7  C   UNL     1       0.023  -0.790   1.112  0.00  0.00    +0.030 A 
ATOM      8  C   UNL     1       0.029  -0.304   2.539  0.00  0.00    +0.064 C 
ATOM      9  C   UNL     1      -0.032  -0.272  -2.539  0.00  0.00    +0.064 C 
BRANCH   6  10
ATOM     10  C   UNL     1      -0.017   1.397   0.010  0.00  0.00    +0.051 A 
ATOM     11  C   UNL     1       1.175   2.109   0.002  0.00  0.00    +0.046 A 
ATOM     12  C   UNL     1       1.153   3.491   0.009  0.00  0.00    +0.043 A 
ATOM     13  C   UNL     1      -0.056   4.165   0.025  0.00  0.00    +0.020 A 
ATOM     14  C   UNL     1      -1.244   3.458   0.032  0.00  0.00    +0.007 A 
ATOM     15  C   UNL     1      -1.228   2.076   0.019  0.00  0.00    -0.027 A 
ATOM     16  C   UNL     1      -2.524   1.307   0.021  0.00  0.00    +0.046 C 
ATOM     17 CL   UNL     1       2.643   4.382  -0.000  0.00  0.00    -0.083 Cl
ENDBRANCH   6  10
ENDBRANCH   2   3
BRANCH   1  20
ATOM     18  C   UNL     1       0.109  -4.139   5.035  0.00  0.00    +0.263 C 
ATOM     19  O   UNL     1       0.099  -3.027   5.529  0.00  0.00    -0.268 OA
ATOM     20  N   UNL     1       0.098  -4.282   3.695  0.00  0.00    -0.203 N 
ATOM     21  H   UNL     1       0.107  -5.287   3.249  0.00  0.00    +0.178 HD
BRANCH  18  25
ATOM     22  C   UNL     1       0.180  -7.571   7.535  0.00  0.00    +0.121 A 
ATOM     23  C   UNL     1       0.169  -6.301   8.101  0.00  0.00    +0.046 A 
ATOM     24  C   UNL     1       0.146  -5.186   7.294  0.00  0.00    +0.016 A 
ATOM     25  C   UNL     1       0.134  -5.332   5.904  0.00  0.00    +0.039 A 
ATOM     26  C   UNL     1       0.140  -6.610   5.339  0.00  0.00    +0.016 A 
ATOM     27  C   UNL     1       0.169  -7.720   6.153  0.00  0.00    +0.046 A 
BRANCH  22  28
ATOM     28  O   UNL     1       0.202  -8.668   8.334  0.00  0.00    -0.492 OA
BRANCH  28  30
ATOM     29  C   UNL     1       0.237 -11.050   8.742  0.00  0.00    +0.048 C 
ATOM     30  C   UNL     1       0.212  -9.942   7.687  0.00  0.00    +0.225 C 
ENDBRANCH  28  30
ENDBRANCH  22  28
ENDBRANCH  18  25
ENDBRANCH   1  20
TORSDOF 6
