REMARK  Name = ZINC14989875
REMARK  4 active torsions:
REMARK  status: ('A' for Active; 'I' for Inactive)
REMARK    1  A    between atoms: C_1  and  N_2
REMARK    2  A    between atoms: C_3  and  C_5
REMARK    3  A    between atoms: N_7  and  C_27
REMARK    4  A    between atoms: C_9  and  C_12
REMARK                            x       y       z     vdW  Elec       q    Type
REMARK                         _______ _______ _______ _____ _____    ______ ____
ROOT
ATOM      1  C   UNL     1      -1.087  -2.216   0.280  0.00  0.00    +0.100 A 
ATOM      2  C   UNL     1       0.078  -2.889  -0.019  0.00  0.00    +0.102 A 
ATOM      3  N   UNL     1       0.080  -4.207  -0.274  0.00  0.00    -0.349 N 
ATOM      4  C   UNL     1      -1.032  -4.961  -0.270  0.00  0.00    +0.102 A 
ATOM      5  C   UNL     1      -2.267  -4.418   0.007  0.00  0.00    +0.100 A 
ATOM      6  C   UNL     1      -2.347  -2.978   0.302  0.00  0.00    +0.206 A 
ATOM      7  O   UNL     1      -3.411  -2.439   0.554  0.00  0.00    -0.286 OA
ENDROOT
BRANCH   5   8
ATOM      8  C   UNL     1      -3.478  -5.258   0.008  0.00  0.00    +0.252 C 
ATOM      9  O   UNL     1      -4.229  -5.240   0.964  0.00  0.00    -0.270 OA
ATOM     10  N   UNL     1      -3.753  -6.044  -1.052  0.00  0.00    -0.294 N 
ATOM     11  C   UNL     1      -2.798  -6.109  -2.120  0.00  0.00    +0.112 C 
ATOM     12  C   UNL     1      -3.435  -6.277  -3.467  0.00  0.00    +0.007 C 
ATOM     13  C   UNL     1      -4.615  -5.343  -3.683  0.00  0.00    +0.008 C 
ATOM     14  C   UNL     1      -5.947  -5.899  -3.193  0.00  0.00    -0.009 C 
ATOM     15  C   UNL     1      -6.189  -7.271  -3.723  0.00  0.00    +0.007 C 
ATOM     16  C   UNL     1      -5.052  -8.152  -3.201  0.00  0.00    -0.009 C 
ATOM     17  C   UNL     1      -3.749  -7.693  -3.858  0.00  0.00    +0.008 C 
ATOM     18  C   UNL     1      -4.962  -8.082  -1.694  0.00  0.00    +0.026 C 
ATOM     19  C   UNL     1      -5.000  -6.790  -1.053  0.00  0.00    +0.077 C 
ATOM     20  C   UNL     1      -6.085  -5.911  -1.678  0.00  0.00    +0.026 C 
ENDBRANCH   5   8
BRANCH   3  21
ATOM     21  C   UNL     1       1.358  -4.855  -0.577  0.00  0.00    +0.087 C 
ATOM     22  C   UNL     1       2.309  -4.688   0.610  0.00  0.00    +0.025 C 
ATOM     23  C   UNL     1       3.644  -5.365   0.294  0.00  0.00    +0.002 C 
ATOM     24  C   UNL     1       4.261  -4.718  -0.948  0.00  0.00    +0.000 C 
ATOM     25  C   UNL     1       3.311  -4.885  -2.136  0.00  0.00    +0.002 C 
ATOM     26  C   UNL     1       1.976  -4.208  -1.819  0.00  0.00    +0.025 C 
ENDBRANCH   3  21
BRANCH   1  29
ATOM     27  C   UNL     1       0.103   1.347   0.821  0.00  0.00    +0.128 C 
ATOM     28  N   UNL     1       0.089  -0.090   0.538  0.00  0.00    -0.314 N 
ATOM     29  C   UNL     1      -1.073  -0.771   0.564  0.00  0.00    +0.249 C 
ATOM     30  O   UNL     1      -2.112  -0.192   0.821  0.00  0.00    -0.270 OA
ATOM     31  H   UNL     1       1.028  -0.614   0.306  0.00  0.00    +0.149 HD
ENDBRANCH   1  29
TORSDOF 3
