REMARK  Name = ZINC08611732
REMARK  11 active torsions:
REMARK  status: ('A' for Active; 'I' for Inactive)
REMARK    1  A    between atoms: C_1  and  C_2
REMARK    2  A    between atoms: C_4  and  C_30
REMARK    3  A    between atoms: C_6  and  N_8
REMARK    4  A    between atoms: C_9  and  C_11
REMARK    5  A    between atoms: C_11  and  S_12
REMARK    6  A    between atoms: S_12  and  C_13
REMARK    7  A    between atoms: C_14  and  C_27
REMARK    8  A    between atoms: N_21  and  C_26
REMARK    9  A    between atoms: N_24  and  C_25
REMARK   10  A    between atoms: C_27  and  C_28
REMARK   11  A    between atoms: C_27  and  C_29
REMARK                            x       y       z     vdW  Elec       q    Type
REMARK                         _______ _______ _______ _____ _____    ______ ____
ROOT
ATOM      1  C   UNL     1       0.536  -2.770   7.657  0.00  0.00    +0.029 A 
ATOM      2  C   UNL     1      -0.595  -3.217   8.345  0.00  0.00    -0.012 A 
ATOM      3  C   UNL     1      -0.437  -4.027   9.450  0.00  0.00    +0.118 A 
ATOM      4  N   UNL     1       0.758  -4.393   9.878  0.00  0.00    -0.237 NA
ATOM      5  C   UNL     1       1.865  -4.003   9.270  0.00  0.00    +0.151 A 
ATOM      6  C   UNL     1       1.792  -3.180   8.132  0.00  0.00    +0.096 A 
ATOM      7  C   UNL     1       3.041  -2.772   7.479  0.00  0.00    +0.267 A 
ATOM      8  O   UNL     1       3.027  -2.056   6.495  0.00  0.00    -0.267 OA
ATOM      9  N   UNL     1       4.208  -3.211   8.000  0.00  0.00    -0.263 N 
ATOM     10  C   UNL     1       4.229  -4.000   9.086  0.00  0.00    +0.333 A 
ATOM     11  O   UNL     1       5.305  -4.368   9.516  0.00  0.00    -0.246 OA
ATOM     12  N   UNL     1       3.114  -4.391   9.725  0.00  0.00    -0.281 N 
ATOM     13  C   UNL     1       3.219  -5.252  10.905  0.00  0.00    +0.155 C 
ATOM     14  C   UNL     1       5.471  -2.820   7.369  0.00  0.00    +0.157 C 
ENDROOT
BRANCH   2  15
ATOM     15  C   UNL     1      -1.973  -2.818   7.885  0.00  0.00    +0.015 C 
ATOM     16  C   UNL     1      -2.777  -4.072   7.536  0.00  0.00    +0.012 C 
ATOM     17  C   UNL     1      -2.683  -2.052   9.004  0.00  0.00    +0.012 C 
ENDBRANCH   2  15
BRANCH   1  18
ATOM     18  S   UNL     1       0.391  -1.734   6.239  0.00  0.00    -0.115 S 
BRANCH  18  19
ATOM     19  C   UNL     1       0.280  -2.900   4.854  0.00  0.00    +0.170 C 
BRANCH  19  21
ATOM     20  N   UNL     1       0.052  -2.797   2.393  0.00  0.00    -0.285 N 
ATOM     21  C   UNL     1       0.150  -2.134   3.562  0.00  0.00    +0.227 C 
ATOM     22  O   UNL     1       0.134  -0.922   3.575  0.00  0.00    -0.275 OA
ATOM     23  H   UNL     1      -0.012  -3.765   2.388  0.00  0.00    +0.155 HD
BRANCH  20  29
ATOM     24  C   UNL     1      -1.512  -2.365  -2.248  0.00  0.00    +0.044 C 
ATOM     25  C   UNL     1      -0.707  -1.857  -1.080  0.00  0.00    -0.048 A 
ATOM     26  C   UNL     1       0.025  -0.690  -1.201  0.00  0.00    +0.006 A 
ATOM     27  C   UNL     1       0.765  -0.220  -0.131  0.00  0.00    -0.048 A 
ATOM     28  C   UNL     1       0.776  -0.917   1.061  0.00  0.00    +0.026 A 
ATOM     29  C   UNL     1       0.043  -2.089   1.186  0.00  0.00    +0.034 A 
ATOM     30  C   UNL     1      -0.704  -2.555   0.112  0.00  0.00    +0.026 A 
ATOM     31  C   UNL     1       1.561   1.052  -0.268  0.00  0.00    +0.044 C 
ENDBRANCH  20  29
ENDBRANCH  19  21
ENDBRANCH  18  19
ENDBRANCH   1  18
TORSDOF 5
