REMARK  Name = ZINC57800939
REMARK  5 active torsions:
REMARK  status: ('A' for Active; 'I' for Inactive)
REMARK    1  A    between atoms: C_1  and  C_2
REMARK    2  A    between atoms: C_2  and  C_4
REMARK    3  A    between atoms: C_2  and  S_16
REMARK    4  A    between atoms: S_16  and  C_17
REMARK    5  A    between atoms: N_21  and  C_22
REMARK                            x       y       z     vdW  Elec       q    Type
REMARK                         _______ _______ _______ _____ _____    ______ ____
ROOT
ATOM      1  C   UNL     1      -0.019   1.526   0.010  0.00  0.00    +0.029 C 
ATOM      2  C   UNL     1       0.002  -0.004   0.002  0.00  0.00    +0.137 C 
ENDROOT
BRANCH   2   3
ATOM      3  C   UNL     1       0.731  -0.503   1.223  0.00  0.00    +0.232 C 
ATOM      4  O   UNL     1       1.911  -0.775   1.156  0.00  0.00    -0.274 OA
ATOM      5  N   UNL     1       0.071  -0.647   2.389  0.00  0.00    -0.264 N 
ATOM      6  C   UNL     1       0.742  -1.106   3.512  0.00  0.00    +0.165 A 
ATOM      7  N   UNL     1       2.004  -1.443   3.637  0.00  0.00    -0.225 NA
ATOM      8  C   UNL     1       2.528  -1.878   4.803  0.00  0.00    +0.080 A 
ATOM      9  C   UNL     1       3.860  -2.269   5.070  0.00  0.00    +0.029 A 
ATOM     10  C   UNL     1       4.229  -2.690   6.321  0.00  0.00    +0.002 A 
ATOM     11  C   UNL     1       3.316  -2.748   7.365  0.00  0.00    +0.001 A 
ATOM     12  C   UNL     1       2.005  -2.372   7.140  0.00  0.00    +0.017 A 
ATOM     13  C   UNL     1       1.626  -1.949   5.890  0.00  0.00    +0.041 A 
ATOM     14  S   UNL     1       0.109  -1.383   5.160  0.00  0.00    -0.052 S 
ATOM     15  H   UNL     1      -0.872  -0.430   2.443  0.00  0.00    +0.157 HD
ENDBRANCH   2   3
BRANCH   2  16
ATOM     16  S   UNL     1       0.851  -0.589  -1.490  0.00  0.00    -0.072 S 
BRANCH  16  17
ATOM     17  C   UNL     1      -0.189  -0.057  -2.809  0.00  0.00    +0.215 A 
ATOM     18  N   UNL     1      -1.314   0.616  -2.695  0.00  0.00    -0.101 NA
ATOM     19  N   UNL     1      -1.821   0.844  -3.853  0.00  0.00    -0.022 NA
ATOM     20  N   UNL     1      -1.075   0.344  -4.777  0.00  0.00    -0.038 NA
ATOM     21  N   UNL     1       0.021  -0.258  -4.134  0.00  0.00    -0.187 N 
BRANCH  21  22
ATOM     22  C   UNL     1       1.099  -0.925  -4.734  0.00  0.00    +0.070 A 
ATOM     23  C   UNL     1       2.367  -0.841  -4.175  0.00  0.00    +0.028 A 
ATOM     24  C   UNL     1       3.427  -1.499  -4.768  0.00  0.00    +0.002 A 
ATOM     25  C   UNL     1       3.226  -2.241  -5.917  0.00  0.00    +0.000 A 
ATOM     26  C   UNL     1       1.964  -2.326  -6.476  0.00  0.00    +0.002 A 
ATOM     27  C   UNL     1       0.900  -1.675  -5.885  0.00  0.00    +0.028 A 
ENDBRANCH  21  22
ENDBRANCH  16  17
ENDBRANCH   2  16
TORSDOF 4
