REMARK  Name = ZINC19125279
REMARK  8 active torsions:
REMARK  status: ('A' for Active; 'I' for Inactive)
REMARK    1  A    between atoms: C_1  and  C_2
REMARK    2  A    between atoms: C_7  and  C_8
REMARK    3  A    between atoms: C_10  and  C_13
REMARK    4  A    between atoms: C_20  and  C_22
REMARK    5  A    between atoms: C_22  and  C_23
REMARK    6  A    between atoms: C_23  and  C_24
REMARK    7  A    between atoms: C_26  and  O_29
REMARK    8  A    between atoms: O_29  and  C_30
REMARK                            x       y       z     vdW  Elec       q    Type
REMARK                         _______ _______ _______ _____ _____    ______ ____
ROOT
ATOM      1  C   UNL     1      -4.816   2.361   0.057  0.00  0.00    +0.142 C 
ATOM      2  C   UNL     1      -5.330   2.615  -1.364  0.00  0.00    +0.030 C 
ATOM      3  C   UNL     1      -6.848   2.420  -1.395  0.00  0.00    +0.004 C 
ATOM      4  C   UNL     1      -7.186   0.978  -1.009  0.00  0.00    +0.019 C 
ATOM      5  C   UNL     1      -6.693   0.706   0.415  0.00  0.00    +0.108 C 
ATOM      6  N   UNL     1      -5.262   1.030   0.490  0.00  0.00    -0.291 N 
ATOM      7  C   UNL     1      -4.376   0.124   0.948  0.00  0.00    +0.217 C 
ATOM      8  O   UNL     1      -3.208   0.428   1.074  0.00  0.00    -0.276 OA
ENDROOT
BRANCH   1  18
ATOM      9  C   UNL     1       2.462   3.492   1.119  0.00  0.00    +0.044 C 
ATOM     10  C   UNL     1       1.155   2.984   0.569  0.00  0.00    -0.045 A 
ATOM     11  C   UNL     1      -0.034   3.406   1.127  0.00  0.00    +0.031 A 
ATOM     12  C   UNL     1      -1.237   2.937   0.618  0.00  0.00    +0.067 A 
ATOM     13  C   UNL     1      -1.236   2.039  -0.463  0.00  0.00    +0.089 A 
ATOM     14  C   UNL     1      -0.020   1.621  -1.009  0.00  0.00    +0.033 A 
ATOM     15  C   UNL     1       1.155   2.094  -0.496  0.00  0.00    -0.045 A 
ATOM     16  C   UNL     1       2.464   1.645  -1.092  0.00  0.00    +0.044 C 
ATOM     17  N   UNL     1      -2.535   1.761  -0.747  0.00  0.00    -0.231 NA
ATOM     18  C   UNL     1      -3.310   2.417   0.066  0.00  0.00    +0.129 A 
ATOM     19  N   UNL     1      -2.563   3.152   0.934  0.00  0.00    -0.340 N 
ATOM     20  H   UNL     1      -2.911   3.740   1.665  0.00  0.00    +0.167 HD
ENDBRANCH   1  18
BRANCH   7  21
ATOM     21  C   UNL     1      -4.835  -1.267   1.302  0.00  0.00    +0.104 C 
BRANCH  21  22
ATOM     22  C   UNL     1      -3.641  -2.089   1.792  0.00  0.00    +0.086 C 
BRANCH  22  23
ATOM     23  C   UNL     1      -4.100  -3.479   2.147  0.00  0.00    +0.141 A 
ATOM     24  C   UNL     1      -4.157  -4.548   1.319  0.00  0.00    +0.114 A 
ATOM     25  C   UNL     1      -4.649  -5.594   2.143  0.00  0.00    +0.255 A 
ATOM     26  N   UNL     1      -4.837  -5.070   3.325  0.00  0.00    -0.040 NA
ATOM     27  O   UNL     1      -4.537  -3.899   3.343  0.00  0.00    -0.356 OA
BRANCH  25  28
ATOM     28  O   UNL     1      -4.882  -6.879   1.775  0.00  0.00    -0.478 OA
ATOM     29  C   UNL     1      -5.387  -7.760   2.780  0.00  0.00    +0.279 C 
ENDBRANCH  25  28
ENDBRANCH  22  23
ENDBRANCH  21  22
ENDBRANCH   7  21
TORSDOF 5
