REMARK  Name = ZINC40365062
REMARK  5 active torsions:
REMARK  status: ('A' for Active; 'I' for Inactive)
REMARK    1  A    between atoms: C_4  and  S_9
REMARK    2  A    between atoms: C_5  and  C_7
REMARK    3  A    between atoms: S_9  and  N_12
REMARK    4  A    between atoms: N_12  and  C_13
REMARK    5  A    between atoms: C_13  and  C_20
REMARK                            x       y       z     vdW  Elec       q    Type
REMARK                         _______ _______ _______ _____ _____    ______ ____
ROOT
ATOM      1  S   UNL     1       4.205  -1.026  -0.133  0.00  0.00    +0.061 S 
ATOM      2  O   UNL     1       5.161   0.014   0.021  0.00  0.00    -0.153 OA
ATOM      3  O   UNL     1       2.922  -0.805  -0.702  0.00  0.00    -0.153 OA
ENDROOT
BRANCH   1   7
ATOM      4  C   UNL     1       6.192  -4.249  -2.634  0.00  0.00    +0.001 A 
ATOM      5  C   UNL     1       4.936  -3.777  -2.971  0.00  0.00    +0.002 A 
ATOM      6  C   UNL     1       4.331  -2.794  -2.208  0.00  0.00    +0.030 A 
ATOM      7  C   UNL     1       4.977  -2.278  -1.104  0.00  0.00    +0.123 A 
ATOM      8  C   UNL     1       6.245  -2.750  -0.757  0.00  0.00    +0.078 A 
ATOM      9  C   UNL     1       6.850  -3.742  -1.532  0.00  0.00    +0.021 A 
BRANCH   8  10
ATOM     10  C   UNL     1       6.922  -2.219   0.387  0.00  0.00    +0.101 C 
ATOM     11  N   UNL     1       7.459  -1.797   1.295  0.00  0.00    -0.191 NA
ENDBRANCH   8  10
ENDBRANCH   1   7
BRANCH   1  12
ATOM     12  N   UNL     1       3.951  -1.663   1.374  0.00  0.00    -0.170 NA
ATOM     13  H   UNL     1       4.426  -1.302   2.139  0.00  0.00    +0.150 HD
BRANCH  12  14
ATOM     14  C   UNL     1       3.008  -2.770   1.552  0.00  0.00    +0.126 C 
ATOM     15  C   UNL     1       1.585  -2.271   1.228  0.00  0.00    +0.039 C 
ATOM     16  C   UNL     1       0.722  -3.463   0.911  0.00  0.00    +0.003 C 
ATOM     17  C   UNL     1      -0.048  -3.977   2.142  0.00  0.00    +0.000 C 
ATOM     18  C   UNL     1       0.811  -3.991   3.421  0.00  0.00    +0.000 C 
ATOM     19  C   UNL     1       2.209  -4.488   3.170  0.00  0.00    +0.003 C 
ATOM     20  C   UNL     1       3.123  -3.273   2.913  0.00  0.00    +0.039 C 
BRANCH  14  21
ATOM     21  C   UNL     1       3.359  -3.849   0.615  0.00  0.00    +0.086 C 
ATOM     22  N   UNL     1       3.629  -4.682  -0.109  0.00  0.00    -0.195 NA
ENDBRANCH  14  21
ENDBRANCH  12  14
ENDBRANCH   1  12
TORSDOF 5
