REMARK  Name = ZINC57530922
REMARK  10 active torsions:
REMARK  status: ('A' for Active; 'I' for Inactive)
REMARK    1  A    between atoms: C_1  and  C_2
REMARK    2  A    between atoms: C_5  and  C_42
REMARK    3  A    between atoms: C_9  and  C_14
REMARK    4  A    between atoms: C_14  and  C_16
REMARK    5  A    between atoms: C_14  and  N_27
REMARK    6  A    between atoms: N_20  and  C_21
REMARK    7  A    between atoms: N_27  and  C_28
REMARK    8  A    between atoms: N_27  and  C_35
REMARK    9  A    between atoms: C_28  and  C_29
REMARK   10  A    between atoms: C_35  and  C_36
REMARK                            x       y       z     vdW  Elec       q    Type
REMARK                         _______ _______ _______ _____ _____    ______ ____
ROOT
ATOM      1  C   UNL     1      -0.462  -0.356   4.662  0.00  0.00    +0.163 C 
ENDROOT
BRANCH   1  10
ATOM      2  C   UNL     1       0.560   2.869   0.703  0.00  0.00    +0.044 C 
ATOM      3  C   UNL     1       0.043   1.583   0.111  0.00  0.00    -0.041 A 
ATOM      4  C   UNL     1      -0.070   1.448  -1.244  0.00  0.00    +0.004 A 
ATOM      5  C   UNL     1      -0.545   0.268  -1.799  0.00  0.00    +0.005 A 
ATOM      6  C   UNL     1      -0.911  -0.790  -0.995  0.00  0.00    -0.026 A 
ATOM      7  C   UNL     1      -0.804  -0.677   0.387  0.00  0.00    +0.052 A 
ATOM      8  C   UNL     1      -0.317   0.520   0.946  0.00  0.00    +0.002 A 
ATOM      9  C   UNL     1      -0.203   0.628   2.402  0.00  0.00    +0.021 A 
ATOM     10  C   UNL     1      -0.567  -0.435   3.161  0.00  0.00    +0.042 A 
ATOM     11  C   UNL     1      -1.044  -1.614   2.550  0.00  0.00    +0.254 A 
ATOM     12  O   UNL     1      -1.366  -2.558   3.251  0.00  0.00    -0.268 OA
ATOM     13  N   UNL     1      -1.162  -1.719   1.214  0.00  0.00    -0.322 N 
ATOM     14  H   UNL     1      -1.494  -2.545   0.827  0.00  0.00    +0.169 HD
ATOM     15  C   UNL     1      -1.425  -2.066  -1.611  0.00  0.00    +0.046 C 
ENDBRANCH   1  10
BRANCH   1  16
ATOM     16  C   UNL     1      -1.840  -0.436   5.267  0.00  0.00    +0.173 A 
ATOM     17  N   UNL     1      -2.496  -1.526   5.580  0.00  0.00    -0.111 NA
ATOM     18  N   UNL     1      -3.636  -1.179   6.070  0.00  0.00    -0.023 NA
ATOM     19  N   UNL     1      -3.724   0.105   6.078  0.00  0.00    -0.044 NA
ATOM     20  N   UNL     1      -2.635   0.600   5.595  0.00  0.00    -0.224 N 
BRANCH  20  21
ATOM     21  C   UNL     1      -2.322   2.022   5.432  0.00  0.00    +0.111 C 
ATOM     22  C   UNL     1      -2.508   2.742   6.769  0.00  0.00    +0.027 C 
ATOM     23  C   UNL     1      -2.182   4.227   6.598  0.00  0.00    +0.002 C 
ATOM     24  C   UNL     1      -3.120   4.839   5.556  0.00  0.00    +0.000 C 
ATOM     25  C   UNL     1      -2.934   4.119   4.218  0.00  0.00    +0.002 C 
ATOM     26  C   UNL     1      -3.260   2.634   4.389  0.00  0.00    +0.027 C 
ENDBRANCH  20  21
ENDBRANCH   1  16
BRANCH   1  27
ATOM     27  N   UNL     1       0.354  -1.474   5.155  0.00  0.00    -0.282 NA
BRANCH  27  28
ATOM     28  C   UNL     1       0.497  -1.417   6.616  0.00  0.00    +0.122 C 
BRANCH  28  29
ATOM     29  C   UNL     1       1.283  -0.190   6.996  0.00  0.00    -0.015 A 
ATOM     30  C   UNL     1       2.663  -0.250   7.117  0.00  0.00    +0.008 A 
ATOM     31  C   UNL     1       3.346   0.904   7.470  0.00  0.00    +0.020 A 
ATOM     32  C   UNL     1       2.633   2.068   7.687  0.00  0.00    +0.111 A 
ATOM     33  N   UNL     1       1.321   2.088   7.563  0.00  0.00    -0.263 NA
ATOM     34  C   UNL     1       0.639   1.011   7.223  0.00  0.00    +0.115 A 
ENDBRANCH  28  29
ENDBRANCH  27  28
BRANCH  27  35
ATOM     35  C   UNL     1       1.667  -1.497   4.498  0.00  0.00    +0.117 C 
BRANCH  35  36
ATOM     36  C   UNL     1       2.337  -2.850   4.743  0.00  0.00    +0.132 C 
ATOM     37  C   UNL     1       3.753  -2.853   4.128  0.00  0.00    +0.035 C 
ATOM     38  C   UNL     1       3.854  -4.288   3.541  0.00  0.00    +0.031 C 
ATOM     39  C   UNL     1       2.389  -4.529   3.101  0.00  0.00    +0.160 C 
ATOM     40  O   UNL     1       1.584  -3.888   4.105  0.00  0.00    -0.375 OA
ENDBRANCH  35  36
ENDBRANCH  27  35
ENDBRANCH   1  27
TORSDOF 8
