REMARK  Name = ZINC48333002
REMARK  7 active torsions:
REMARK  status: ('A' for Active; 'I' for Inactive)
REMARK    1  A    between atoms: C_1  and  C_2
REMARK    2  A    between atoms: C_5  and  C_32
REMARK    3  A    between atoms: N_8  and  C_10
REMARK    4  A    between atoms: C_10  and  C_11
REMARK    5  A    between atoms: C_16  and  C_17
REMARK    6  A    between atoms: C_17  and  N_18
REMARK    7  A    between atoms: C_19  and  C_21
REMARK                            x       y       z     vdW  Elec       q    Type
REMARK                         _______ _______ _______ _____ _____    ______ ____
ROOT
ATOM      1  C   UNL     1       2.126   0.235   3.241  0.00  0.00    +0.140 C 
ENDROOT
BRANCH   1   7
ATOM      2  C   UNL     1       2.514  -2.036   2.263  0.00  0.00    -0.059 A 
ATOM      3  C   UNL     1       3.335  -2.981   1.677  0.00  0.00    +0.002 A 
ATOM      4  C   UNL     1       4.665  -2.691   1.442  0.00  0.00    +0.000 A 
ATOM      5  C   UNL     1       5.175  -1.454   1.791  0.00  0.00    +0.000 A 
ATOM      6  C   UNL     1       4.355  -0.508   2.376  0.00  0.00    +0.005 A 
ATOM      7  C   UNL     1       3.023  -0.797   2.608  0.00  0.00    -0.029 A 
BRANCH   2   8
ATOM      8  C   UNL     1       1.063  -2.352   2.520  0.00  0.00    -0.043 C 
BRANCH   8  14
ATOM      9  C   UNL     1       2.227  -5.706   5.891  0.00  0.00    +0.005 C 
ATOM     10  C   UNL     1       1.490  -4.389   5.644  0.00  0.00    -0.031 C 
ATOM     11  C   UNL     1       0.013  -4.551   6.016  0.00  0.00    +0.003 C 
ATOM     12  C   UNL     1      -0.731  -3.253   5.691  0.00  0.00    -0.031 C 
ATOM     13  C   UNL     1      -0.540  -2.918   4.210  0.00  0.00    -0.075 C 
ATOM     14  N   UNL     1       0.890  -2.749   3.924  0.00  0.00    +0.383 N 
ATOM     15  C   UNL     1       1.600  -4.011   4.165  0.00  0.00    -0.075 C 
ATOM     16  C   UNL     1      -2.222  -3.430   5.987  0.00  0.00    +0.005 C 
ATOM     17  H   UNL     1       1.270  -2.032   4.523  0.00  0.00    -0.081 HD
ENDBRANCH   8  14
ENDBRANCH   2   8
ENDBRANCH   1   7
BRANCH   1  18
ATOM     18  N   UNL     1       2.001  -0.039   4.675  0.00  0.00    -0.307 N 
ATOM     19  C   UNL     1       1.155   0.690   5.429  0.00  0.00    +0.244 C 
ATOM     20  O   UNL     1       0.496   1.576   4.920  0.00  0.00    -0.270 OA
ATOM     21  H   UNL     1       2.526  -0.746   5.081  0.00  0.00    +0.149 HD
BRANCH  19  22
ATOM     22  C   UNL     1       1.029   0.413   6.873  0.00  0.00    +0.040 A 
ATOM     23  C   UNL     1       1.790  -0.602   7.460  0.00  0.00    +0.015 A 
ATOM     24  C   UNL     1       1.672  -0.861   8.809  0.00  0.00    +0.028 A 
ATOM     25  C   UNL     1       0.797  -0.114   9.585  0.00  0.00    +0.076 A 
ATOM     26  C   UNL     1       0.033   0.901   9.005  0.00  0.00    +0.143 A 
ATOM     27  C   UNL     1       0.152   1.169   7.657  0.00  0.00    +0.060 A 
ATOM     28  O   UNL     1      -0.822   1.621   9.780  0.00  0.00    -0.481 OA
ATOM     29  C   UNL     1      -1.436   0.930  10.871  0.00  0.00    +0.325 C 
ATOM     30  C   UNL     1      -0.393   0.138  11.618  0.00  0.00    +0.255 C 
ATOM     31  O   UNL     1      -0.508  -0.045  12.812  0.00  0.00    -0.272 OA
ATOM     32  N   UNL     1       0.669  -0.367  10.954  0.00  0.00    -0.280 N 
ATOM     33  H   UNL     1       1.333  -0.898  11.420  0.00  0.00    +0.155 HD
ENDBRANCH  19  22
ENDBRANCH   1  18
TORSDOF 5
