REMARK  Name = ZINC57995721
REMARK  6 active torsions:
REMARK  status: ('A' for Active; 'I' for Inactive)
REMARK    1  A    between atoms: C_1  and  O_2
REMARK    2  A    between atoms: O_2  and  C_3
REMARK    3  A    between atoms: C_3  and  C_5
REMARK    4  A    between atoms: C_5  and  C_6
REMARK    5  A    between atoms: N_12  and  C_13
REMARK    6  A    between atoms: C_13  and  N_14
REMARK                            x       y       z     vdW  Elec       q    Type
REMARK                         _______ _______ _______ _____ _____    ______ ____
ROOT
ATOM      1  C   UNL     1       2.696  -0.435   2.083  0.00  0.00    +0.072 C 
ENDROOT
BRANCH   1   2
ATOM      2  N   UNL     1       4.039   0.075   1.794  0.00  0.00    -0.256 N 
ATOM      3  C   UNL     1       4.813   0.797   2.624  0.00  0.00    +0.182 A 
ATOM      4  S   UNL     1       4.397   1.284   4.212  0.00  0.00    -0.011 S 
ATOM      5  N   UNL     1       5.987   1.075   1.984  0.00  0.00    -0.265 N 
ATOM      6  C   UNL     1       7.168   1.767   2.299  0.00  0.00    +0.065 A 
ATOM      7  C   UNL     1       7.455   2.421   3.507  0.00  0.00    +0.027 A 
ATOM      8  C   UNL     1       8.656   3.066   3.691  0.00  0.00    +0.002 A 
ATOM      9  C   UNL     1       9.617   3.090   2.695  0.00  0.00    +0.001 A 
ATOM     10  C   UNL     1       9.360   2.452   1.494  0.00  0.00    +0.017 A 
ATOM     11  C   UNL     1       8.158   1.808   1.312  0.00  0.00    +0.040 A 
ATOM     12  S   UNL     1       7.444   0.894  -0.033  0.00  0.00    -0.048 S 
ATOM     13  C   UNL     1       5.893   0.494   0.738  0.00  0.00    +0.199 A 
ATOM     14  N   UNL     1       4.757  -0.105   0.603  0.00  0.00    -0.145 NA
ENDBRANCH   1   2
BRANCH   1  20
ATOM     15  C   UNL     1       1.411  -2.403   2.552  0.00  0.00    -0.055 C 
ATOM     16  C   UNL     1       1.472  -3.920   2.744  0.00  0.00    -0.015 C 
ATOM     17  C   UNL     1       2.338  -4.240   3.965  0.00  0.00    -0.003 C 
ATOM     18  C   UNL     1       3.726  -3.624   3.770  0.00  0.00    -0.019 C 
ATOM     19  C   UNL     1       3.582  -2.118   3.540  0.00  0.00    -0.076 C 
ATOM     20  N   UNL     1       2.766  -1.879   2.344  0.00  0.00    +0.395 N 
ATOM     21  H   UNL     1       3.187  -2.342   1.552  0.00  0.00    -0.079 HD
BRANCH  15  22
ATOM     22  C   UNL     1       0.546  -2.078   1.332  0.00  0.00    +0.105 C 
BRANCH  22  23
ATOM     23  C   UNL     1      -0.882  -2.466   1.612  0.00  0.00    +0.305 C 
ATOM     24  O   UNL     1      -1.167  -3.015   2.649  0.00  0.00    -0.251 OA
BRANCH  23  26
ATOM     25  C   UNL     1      -3.171  -2.598   1.038  0.00  0.00    +0.280 C 
ATOM     26  O   UNL     1      -1.839  -2.202   0.708  0.00  0.00    -0.468 OA
ENDBRANCH  23  26
ENDBRANCH  22  23
ENDBRANCH  15  22
ENDBRANCH   1  20
TORSDOF 5
