REMARK  Name = ZINC10220157
REMARK  5 active torsions:
REMARK  status: ('A' for Active; 'I' for Inactive)
REMARK    1  A    between atoms: C_3  and  C_6
REMARK    2  A    between atoms: C_6  and  N_53
REMARK    3  A    between atoms: C_12  and  C_14
REMARK    4  A    between atoms: N_19  and  S_21
REMARK    5  A    between atoms: S_21  and  C_24
REMARK                            x       y       z     vdW  Elec       q    Type
REMARK                         _______ _______ _______ _____ _____    ______ ____
ROOT
ATOM      1  C   UNL     1       6.926   0.654  -4.518  0.00  0.00    -0.059 C 
ATOM      2  C   UNL     1       6.422   1.921  -3.818  0.00  0.00    +0.089 C 
ATOM      3  N   UNL     1       5.587   1.523  -2.675  0.00  0.00    -0.305 N 
ATOM      4  C   UNL     1       6.137   0.553  -1.716  0.00  0.00    +0.089 C 
ATOM      5  C   UNL     1       6.650  -0.664  -2.501  0.00  0.00    -0.059 C 
ATOM      6  C   UNL     1       4.352   2.037  -2.509  0.00  0.00    +0.220 C 
ATOM      7  O   UNL     1       3.878   2.763  -3.356  0.00  0.00    -0.275 OA
ATOM      8  N   UNL     1       7.613  -0.197  -3.522  0.00  0.00    +0.385 N 
ATOM      9  H   UNL     1       8.345   0.355  -3.060  0.00  0.00    -0.081 HD
ENDROOT
BRANCH   6  10
ATOM     10  C   UNL     1       3.560   1.709  -1.269  0.00  0.00    +0.091 C 
ATOM     11  C   UNL     1       2.718   2.921  -0.865  0.00  0.00    +0.015 C 
ATOM     12  C   UNL     1       1.939   2.601   0.412  0.00  0.00    +0.018 C 
ATOM     13  C   UNL     1       0.991   1.421   0.145  0.00  0.00    +0.109 C 
ATOM     14  N   UNL     1       1.780   0.298  -0.379  0.00  0.00    -0.175 NA
ATOM     15  C   UNL     1       2.635   0.521  -1.552  0.00  0.00    +0.122 C 
BRANCH  14  16
ATOM     16  S   UNL     1       1.701  -1.194   0.336  0.00  0.00    +0.067 S 
ATOM     17  O   UNL     1       2.071  -2.141  -0.657  0.00  0.00    -0.152 OA
ATOM     18  O   UNL     1       0.455  -1.252   1.018  0.00  0.00    -0.152 OA
BRANCH  16  19
ATOM     19  C   UNL     1       2.955  -1.246   1.573  0.00  0.00    +0.143 A 
ATOM     20  C   UNL     1       2.879  -0.896   2.880  0.00  0.00    +0.036 A 
ATOM     21  C   UNL     1       4.004  -1.023   3.674  0.00  0.00    +0.010 A 
ATOM     22  C   UNL     1       5.149  -1.494   3.122  0.00  0.00    +0.047 A 
ATOM     23  S   UNL     1       4.652  -1.782   1.431  0.00  0.00    -0.077 S 
ENDBRANCH  16  19
ENDBRANCH  14  16
ENDBRANCH   6  10
BRANCH   8  24
ATOM     24  C   UNL     1       8.238  -1.355  -4.193  0.00  0.00    -0.035 C 
BRANCH  24  27
ATOM     25  C   UNL     1       9.758  -3.621  -1.534  0.00  0.00    +0.008 A 
ATOM     26  C   UNL     1       8.786  -3.106  -2.372  0.00  0.00    +0.009 A 
ATOM     27  C   UNL     1       9.107  -2.081  -3.199  0.00  0.00    -0.027 A 
ATOM     28  S   UNL     1      10.830  -1.820  -2.811  0.00  0.00    -0.103 S 
ATOM     29  C   UNL     1      11.003  -3.087  -1.566  0.00  0.00    +0.045 A 
ENDBRANCH  24  27
ENDBRANCH   8  24
TORSDOF 5
