REMARK  Name = ZINC22787194
REMARK  7 active torsions:
REMARK  status: ('A' for Active; 'I' for Inactive)
REMARK    1  A    between atoms: C_4  and  C_7
REMARK    2  A    between atoms: C_8  and  C_9
REMARK    3  A    between atoms: C_9  and  N_10
REMARK    4  A    between atoms: N_13  and  C_16
REMARK    5  A    between atoms: C_16  and  C_17
REMARK    6  A    between atoms: C_20  and  C_30
REMARK    7  A    between atoms: C_23  and  C_25
REMARK                            x       y       z     vdW  Elec       q    Type
REMARK                         _______ _______ _______ _____ _____    ______ ____
ROOT
ATOM      1  C   UNL     1       5.501  -7.277   3.248  0.00  0.00    +0.182 C 
ENDROOT
BRANCH   1   5
ATOM      2  N   UNL     1       5.087  -3.681   1.066  0.00  0.00    +0.384 N 
ATOM      3  C   UNL     1       4.061  -4.718   0.889  0.00  0.00    -0.063 C 
ATOM      4  C   UNL     1       4.104  -5.685   2.075  0.00  0.00    +0.066 C 
ATOM      5  N   UNL     1       5.437  -6.298   2.155  0.00  0.00    -0.298 NA
ATOM      6  C   UNL     1       6.477  -5.271   2.306  0.00  0.00    +0.066 C 
ATOM      7  C   UNL     1       6.414  -4.307   1.119  0.00  0.00    -0.063 C 
ATOM      8  H   UNL     1       4.916  -3.182   1.926  0.00  0.00    -0.081 HD
BRANCH   2   9
ATOM      9  C   UNL     1       5.033  -2.743  -0.063  0.00  0.00    -0.051 C 
BRANCH   9  11
ATOM     10  C   UNL     1       3.695  -0.685  -0.038  0.00  0.00    +0.002 C 
ATOM     11  C   UNL     1       3.716  -2.010  -0.046  0.00  0.00    -0.045 C 
BRANCH  10  15
ATOM     12  C   UNL     1      -0.017   1.379   0.010  0.00  0.00    +0.000 A 
ATOM     13  C   UNL     1       1.168   2.093   0.002  0.00  0.00    +0.001 A 
ATOM     14  C   UNL     1       2.377   1.429  -0.013  0.00  0.00    +0.008 A 
ATOM     15  C   UNL     1       2.403   0.034  -0.021  0.00  0.00    -0.025 A 
ATOM     16  C   UNL     1       1.204  -0.681  -0.013  0.00  0.00    +0.008 A 
ATOM     17  C   UNL     1       0.002  -0.004   0.002  0.00  0.00    +0.001 A 
ENDBRANCH  10  15
ENDBRANCH   9  11
ENDBRANCH   2   9
ENDBRANCH   1   5
BRANCH   1  18
ATOM     18  C   UNL     1       6.787  -8.058   3.148  0.00  0.00    +0.249 C 
ATOM     19  O   UNL     1       7.572  -7.822   2.255  0.00  0.00    -0.272 OA
ATOM     20  N   UNL     1       7.064  -9.018   4.053  0.00  0.00    -0.181 N 
ATOM     21  C   UNL     1       8.279  -9.847   4.075  0.00  0.00    +0.173 C 
ATOM     22  C   UNL     1       8.072 -10.761   5.300  0.00  0.00    +0.090 C 
ATOM     23  C   UNL     1       6.729 -10.337   5.849  0.00  0.00    +0.075 C 
ATOM     24  N   UNL     1       6.248  -9.384   5.122  0.00  0.00    -0.180 NA
BRANCH  23  25
ATOM     25  C   UNL     1       6.076 -10.914   7.028  0.00  0.00    +0.035 A 
ATOM     26  C   UNL     1       4.854 -10.593   7.593  0.00  0.00    +0.017 A 
ATOM     27  C   UNL     1       4.450 -11.284   8.712  0.00  0.00    +0.008 A 
ATOM     28  C   UNL     1       5.256 -12.250   9.224  0.00  0.00    +0.046 A 
ATOM     29  S   UNL     1       6.646 -12.219   8.105  0.00  0.00    -0.095 S 
ENDBRANCH  23  25
BRANCH  21  30
ATOM     30  C   UNL     1       8.387 -10.664   2.813  0.00  0.00    +0.128 A 
ATOM     31  C   UNL     1       9.523 -10.931   2.144  0.00  0.00    +0.046 A 
ATOM     32  C   UNL     1       9.165 -11.722   1.029  0.00  0.00    +0.041 A 
ATOM     33  C   UNL     1       7.832 -11.891   1.083  0.00  0.00    +0.195 A 
ATOM     34  O   UNL     1       7.367 -11.253   2.169  0.00  0.00    -0.466 OA
ENDBRANCH  21  30
ENDBRANCH   1  18
TORSDOF 7
