REMARK  Name = ZINC66669369
REMARK  6 active torsions:
REMARK  status: ('A' for Active; 'I' for Inactive)
REMARK    1  A    between atoms: C_1  and  C_2
REMARK    2  A    between atoms: C_2  and  C_3
REMARK    3  A    between atoms: C_2  and  C_4
REMARK    4  A    between atoms: C_2  and  N_12
REMARK    5  A    between atoms: N_15  and  C_16
REMARK    6  A    between atoms: C_21  and  N_22
REMARK                            x       y       z     vdW  Elec       q    Type
REMARK                         _______ _______ _______ _____ _____    ______ ____
ROOT
ATOM      1  N   UNL     1      -0.266  -1.000  -0.643  0.00  0.00    -0.290 N 
ATOM      2  C   UNL     1       0.707  -1.857  -1.010  0.00  0.00    +0.305 C 
ATOM      3  O   UNL     1       1.861  -1.638  -0.694  0.00  0.00    -0.252 OA
ATOM      4  N   UNL     1       0.402  -2.956  -1.728  0.00  0.00    -0.266 N 
ATOM      5  H   UNL     1      -1.187  -1.174  -0.896  0.00  0.00    +0.151 HD
ATOM      6  H   UNL     1      -0.512  -3.110  -2.014  0.00  0.00    +0.156 HD
ENDROOT
BRANCH   4   7
ATOM      7  C   UNL     1       1.403  -3.876  -2.059  0.00  0.00    +0.079 A 
ATOM      8  C   UNL     1       2.719  -3.458  -2.224  0.00  0.00    +0.028 A 
ATOM      9  C   UNL     1       3.677  -4.407  -2.552  0.00  0.00    +0.022 A 
ATOM     10  C   UNL     1       3.298  -5.727  -2.703  0.00  0.00    +0.113 A 
ATOM     11  N   UNL     1       2.043  -6.096  -2.541  0.00  0.00    -0.235 NA
ATOM     12  C   UNL     1       1.098  -5.228  -2.223  0.00  0.00    +0.177 A 
BRANCH  12  13
ATOM     13  N   UNL     1      -0.220  -5.666  -2.055  0.00  0.00    -0.200 N 
ATOM     14  C   UNL     1      -0.781  -6.766  -2.596  0.00  0.00    +0.226 A 
ATOM     15  N   UNL     1      -2.026  -6.824  -2.196  0.00  0.00    -0.222 NA
ATOM     16  C   UNL     1      -2.295  -5.786  -1.405  0.00  0.00    +0.245 A 
ATOM     17  N   UNL     1      -1.220  -5.052  -1.284  0.00  0.00    -0.152 NA
ENDBRANCH  12  13
ENDBRANCH   4   7
BRANCH   1  19
ATOM     18  C   UNL     1       1.224   0.937  -0.534  0.00  0.00    +0.036 C 
ATOM     19  C   UNL     1       0.066   0.195   0.137  0.00  0.00    +0.058 C 
ATOM     20  C   UNL     1       0.476  -0.217   1.552  0.00  0.00    +0.036 C 
BRANCH  19  21
ATOM     21  C   UNL     1      -1.137   1.100   0.206  0.00  0.00    +0.012 A 
ATOM     22  C   UNL     1      -1.906   1.142   1.355  0.00  0.00    +0.048 A 
ATOM     23  C   UNL     1      -3.011   1.973   1.418  0.00  0.00    +0.020 A 
ATOM     24  C   UNL     1      -3.346   2.761   0.333  0.00  0.00    +0.003 A 
ATOM     25  C   UNL     1      -2.578   2.719  -0.816  0.00  0.00    +0.020 A 
ATOM     26  C   UNL     1      -1.470   1.893  -0.877  0.00  0.00    +0.048 A 
ATOM     27 CL   UNL     1      -0.501   1.847  -2.317  0.00  0.00    -0.083 Cl
ATOM     28 CL   UNL     1      -1.486   0.152   2.718  0.00  0.00    -0.083 Cl
ENDBRANCH  19  21
ENDBRANCH   1  19
TORSDOF 4
