REMARK  Name = ZINC06088132
REMARK  4 active torsions:
REMARK  status: ('A' for Active; 'I' for Inactive)
REMARK    1  A    between atoms: N_9  and  N_14
REMARK    2  A    between atoms: N_14  and  C_15
REMARK    3  A    between atoms: C_15  and  N_17
REMARK    4  A    between atoms: N_17  and  C_18
REMARK                            x       y       z     vdW  Elec       q    Type
REMARK                         _______ _______ _______ _____ _____    ______ ____
ROOT
ATOM      1  C   UNL     1      -0.069   6.441  -6.246  0.00  0.00    +0.001 A 
ATOM      2  C   UNL     1       0.507   5.460  -7.039  0.00  0.00    +0.002 A 
ATOM      3  C   UNL     1       0.338   4.123  -6.739  0.00  0.00    +0.026 A 
ATOM      4  C   UNL     1      -0.415   3.756  -5.634  0.00  0.00    +0.056 A 
ATOM      5  C   UNL     1      -1.000   4.749  -4.830  0.00  0.00    +0.065 A 
ATOM      6  C   UNL     1      -0.821   6.095  -5.143  0.00  0.00    +0.015 A 
ATOM      7  C   UNL     1      -1.798   4.324  -3.666  0.00  0.00    +0.281 A 
ATOM      8  O   UNL     1      -2.328   5.143  -2.940  0.00  0.00    -0.265 OA
ATOM      9  N   UNL     1      -1.921   3.001  -3.423  0.00  0.00    -0.173 N 
ATOM     10  C   UNL     1      -1.343   2.090  -4.221  0.00  0.00    +0.347 A 
ATOM     11  O   UNL     1      -1.489   0.911  -3.960  0.00  0.00    -0.245 OA
ATOM     12  N   UNL     1      -0.610   2.424  -5.297  0.00  0.00    -0.306 N 
ATOM     13  H   UNL     1      -0.212   1.727  -5.843  0.00  0.00    +0.170 HD
ENDROOT
BRANCH   9  14
ATOM     14  N   UNL     1      -2.670   2.571  -2.320  0.00  0.00    -0.228 N 
ATOM     15  H   UNL     1      -3.639   2.611  -2.347  0.00  0.00    +0.175 HD
BRANCH  14  16
ATOM     16  C   UNL     1      -2.045   2.104  -1.221  0.00  0.00    +0.149 C 
ATOM     17  S   UNL     1      -2.960   1.579   0.127  0.00  0.00    -0.017 S 
BRANCH  16  18
ATOM     18  N   UNL     1      -0.699   2.050  -1.184  0.00  0.00    -0.322 N 
ATOM     19  H   UNL     1      -0.180   2.347  -1.947  0.00  0.00    +0.148 HD
BRANCH  18  20
ATOM     20  C   UNL     1      -0.019   1.542   0.011  0.00  0.00    +0.075 C 
ATOM     21  C   UNL     1       1.393   1.028  -0.351  0.00  0.00    +0.026 C 
ATOM     22  C   UNL     1       2.363   1.921   0.481  0.00  0.00    -0.009 C 
ATOM     23  C   UNL     1       2.272   3.326  -0.189  0.00  0.00    +0.004 C 
ATOM     24  C   UNL     1       0.859   3.840   0.173  0.00  0.00    +0.005 C 
ATOM     25  C   UNL     1       0.230   2.697   1.027  0.00  0.00    +0.010 C 
ATOM     26  C   UNL     1       1.502   2.159   1.772  0.00  0.00    +0.009 C 
ENDBRANCH  18  20
ENDBRANCH  16  18
ENDBRANCH  14  16
ENDBRANCH   9  14
TORSDOF 4
