REMARK  Name = ZINC14746835
REMARK  12 active torsions:
REMARK  status: ('A' for Active; 'I' for Inactive)
REMARK    1  A    between atoms: C_1  and  C_2
REMARK    2  A    between atoms: C_2  and  C_3
REMARK    3  A    between atoms: C_3  and  C_5
REMARK    4  A    between atoms: C_3  and  N_64
REMARK    5  A    between atoms: N_13  and  C_27
REMARK    6  A    between atoms: N_16  and  C_17
REMARK    7  A    between atoms: C_17  and  C_18
REMARK    8  A    between atoms: C_18  and  C_19
REMARK    9  A    between atoms: C_22  and  O_25
REMARK   10  A    between atoms: O_25  and  C_26
REMARK   11  A    between atoms: C_27  and  C_28
REMARK   12  A    between atoms: C_27  and  C_29
REMARK                            x       y       z     vdW  Elec       q    Type
REMARK                         _______ _______ _______ _____ _____    ______ ____
ROOT
ATOM      1  C   UNL     1       0.690   0.067   6.191  0.00  0.00    -0.076 C 
ATOM      2  C   UNL     1       0.453   1.246   5.242  0.00  0.00    +0.017 C 
ATOM      3  C   UNL     1       1.014   0.905   3.864  0.00  0.00    +0.112 C 
ATOM      4  C   UNL     1       2.491   0.540   3.965  0.00  0.00    +0.017 C 
ATOM      5  C   UNL     1       2.662  -0.616   4.955  0.00  0.00    -0.076 C 
ATOM      6  C   UNL     1       0.822   2.060   2.910  0.00  0.00    +0.247 C 
ATOM      7  O   UNL     1       1.279   3.179   3.011  0.00  0.00    -0.273 OA
ATOM      8  N   UNL     1       0.033   1.585   1.924  0.00  0.00    -0.222 N 
ATOM      9  C   UNL     1      -0.286   0.301   2.123  0.00  0.00    +0.312 C 
ATOM     10  O   UNL     1      -0.984  -0.348   1.368  0.00  0.00    -0.252 OA
ATOM     11  N   UNL     1       0.252  -0.193   3.255  0.00  0.00    -0.271 N 
ATOM     12  N   UNL     1       2.143  -0.195   6.275  0.00  0.00    +0.382 N 
ATOM     13  H   UNL     1       2.620   0.668   6.560  0.00  0.00    -0.081 HD
ENDROOT
BRANCH   8  14
ATOM     14  C   UNL     1      -0.413   2.376   0.774  0.00  0.00    +0.080 C 
ATOM     15  C   UNL     1       0.090   1.726  -0.517  0.00  0.00    +0.028 C 
ATOM     16  C   UNL     1      -1.942   2.431   0.755  0.00  0.00    +0.028 C 
ENDBRANCH   8  14
BRANCH  12  17
ATOM     17  C   UNL     1       2.409  -1.245   7.279  0.00  0.00    -0.072 C 
ATOM     18  C   UNL     1       1.871  -2.595   6.802  0.00  0.00    -0.013 C 
BRANCH  17  20
ATOM     19  C   UNL     1       4.445  -0.019   8.050  0.00  0.00    +0.002 C 
ATOM     20  C   UNL     1       3.920  -1.346   7.498  0.00  0.00    -0.019 C 
ENDBRANCH  17  20
ENDBRANCH  12  17
BRANCH  11  21
ATOM     21  C   UNL     1       0.107  -1.555   3.775  0.00  0.00    +0.115 C 
BRANCH  21  22
ATOM     22  C   UNL     1       0.807  -2.537   2.834  0.00  0.00    +0.054 C 
BRANCH  22  23
ATOM     23  C   UNL     1       0.537  -3.948   3.288  0.00  0.00    -0.046 A 
ATOM     24  C   UNL     1       1.471  -4.616   4.059  0.00  0.00    +0.007 A 
ATOM     25  C   UNL     1       1.222  -5.907   4.482  0.00  0.00    +0.046 A 
ATOM     26  C   UNL     1       0.040  -6.538   4.123  0.00  0.00    +0.120 A 
ATOM     27  C   UNL     1      -0.893  -5.868   3.345  0.00  0.00    +0.046 A 
ATOM     28  C   UNL     1      -0.642  -4.575   2.930  0.00  0.00    +0.007 A 
BRANCH  26  29
ATOM     29  O   UNL     1      -0.204  -7.811   4.534  0.00  0.00    -0.495 OA
ATOM     30  C   UNL     1       0.801  -8.439   5.332  0.00  0.00    +0.277 C 
ENDBRANCH  26  29
ENDBRANCH  22  23
ENDBRANCH  21  22
ENDBRANCH  11  21
TORSDOF 7
