REMARK  Name = ZINC66159735
REMARK  6 active torsions:
REMARK  status: ('A' for Active; 'I' for Inactive)
REMARK    1  A    between atoms: C_3  and  N_15
REMARK    2  A    between atoms: C_4  and  O_11
REMARK    3  A    between atoms: C_6  and  O_7
REMARK    4  A    between atoms: O_7  and  C_8
REMARK    5  A    between atoms: O_11  and  C_12
REMARK    6  A    between atoms: C_21  and  N_24
REMARK                            x       y       z     vdW  Elec       q    Type
REMARK                         _______ _______ _______ _____ _____    ______ ____
ROOT
ATOM      1  N   UNL     1       3.586   2.139  -0.022  0.00  0.00    -0.266 N 
ATOM      2  C   UNL     1       3.566   3.483  -0.117  0.00  0.00    +0.306 C 
ATOM      3  O   UNL     1       2.506   4.078  -0.103  0.00  0.00    -0.252 OA
ATOM      4  N   UNL     1       4.722   4.168  -0.227  0.00  0.00    -0.287 N 
ATOM      5  C   UNL     1       6.068   3.577  -0.262  0.00  0.00    +0.108 C 
ATOM      6  C   UNL     1       7.073   4.737  -0.423  0.00  0.00    +0.005 C 
ATOM      7  C   UNL     1       6.205   5.867  -1.038  0.00  0.00    -0.049 C 
ATOM      8  C   UNL     1       4.845   5.633  -0.338  0.00  0.00    +0.094 C 
ATOM      9  H   UNL     1       4.432   1.670   0.050  0.00  0.00    +0.156 HD
ENDROOT
BRANCH   1  12
ATOM     10  C   UNL     1       0.066   1.246  -0.627  0.00  0.00    +0.048 A 
ATOM     11  C   UNL     1       1.252   1.957  -0.621  0.00  0.00    +0.030 A 
ATOM     12  C   UNL     1       2.382   1.417  -0.027  0.00  0.00    +0.077 A 
ATOM     13  C   UNL     1       2.321   0.158   0.565  0.00  0.00    +0.151 A 
ATOM     14  C   UNL     1       1.132  -0.552   0.558  0.00  0.00    +0.093 A 
ATOM     15  C   UNL     1       0.004  -0.008  -0.038  0.00  0.00    +0.130 A 
BRANCH  15  16
ATOM     16  O   UNL     1      -1.163  -0.704  -0.046  0.00  0.00    -0.434 OA
BRANCH  16  17
ATOM     17  C   UNL     1      -2.285  -0.084  -0.677  0.00  0.00    +0.541 C 
ATOM     18  F   UNL     1      -2.573   1.125  -0.034  0.00  0.00    -0.166 F 
ATOM     19  F   UNL     1      -1.986   0.163  -2.021  0.00  0.00    -0.166 F 
ENDBRANCH  16  17
ENDBRANCH  15  16
BRANCH  13  20
ATOM     20  O   UNL     1       3.428  -0.374   1.148  0.00  0.00    -0.432 OA
BRANCH  20  21
ATOM     21  C   UNL     1       3.293  -1.670   1.736  0.00  0.00    +0.541 C 
ATOM     22  F   UNL     1       2.322  -1.627   2.742  0.00  0.00    -0.166 F 
ATOM     23  F   UNL     1       2.907  -2.589   0.754  0.00  0.00    -0.166 F 
ENDBRANCH  20  21
ENDBRANCH  13  20
ENDBRANCH   1  12
BRANCH   7  24
ATOM     24  N   UNL     1       6.750   7.190  -0.707  0.00  0.00    +0.383 N 
ATOM     25  C   UNL     1       8.097   7.354  -1.312  0.00  0.00    -0.078 C 
ATOM     26  C   UNL     1       8.274   8.892  -1.371  0.00  0.00    -0.020 C 
ATOM     27  C   UNL     1       6.855   9.389  -1.730  0.00  0.00    -0.020 C 
ATOM     28  C   UNL     1       5.910   8.251  -1.301  0.00  0.00    -0.078 C 
ATOM     29  H   UNL     1       6.801   7.305   0.294  0.00  0.00    -0.081 HD
ENDBRANCH   7  24
TORSDOF 6
