REMARK  Name = ZINC35442847
REMARK  3 active torsions:
REMARK  status: ('A' for Active; 'I' for Inactive)
REMARK    1  A    between atoms: C_4  and  C_7
REMARK    2  A    between atoms: C_7  and  N_8
REMARK    3  A    between atoms: C_14  and  C_17
REMARK                            x       y       z     vdW  Elec       q    Type
REMARK                         _______ _______ _______ _____ _____    ______ ____
ROOT
ATOM      1  N   UNL     1       4.152  -0.952   1.338  0.00  0.00    -0.295 N 
ATOM      2  C   UNL     1       5.311  -1.601   1.569  0.00  0.00    +0.302 C 
ATOM      3  O   UNL     1       5.991  -1.982   0.636  0.00  0.00    -0.253 OA
ATOM      4  N   UNL     1       5.716  -1.826   2.834  0.00  0.00    -0.285 N 
ATOM      5  C   UNL     1       4.992  -1.427   4.050  0.00  0.00    +0.110 C 
ATOM      6  C   UNL     1       5.819  -1.918   5.257  0.00  0.00    +0.033 C 
ATOM      7  C   UNL     1       6.676  -3.060   4.651  0.00  0.00    +0.094 C 
ATOM      8  C   UNL     1       6.956  -2.519   3.228  0.00  0.00    +0.122 C 
ATOM      9  H   UNL     1       3.610  -0.648   2.082  0.00  0.00    +0.151 HD
ENDROOT
BRANCH   7  10
ATOM     10  C   UNL     1       7.956  -3.244   5.424  0.00  0.00    +0.201 A 
ATOM     11  N   UNL     1       8.863  -2.328   5.587  0.00  0.00    -0.213 NA
ATOM     12  C   UNL     1       9.876  -2.842   6.335  0.00  0.00    +0.110 A 
ATOM     13  C   UNL     1      11.083  -2.328   6.812  0.00  0.00    +0.031 A 
ATOM     14  C   UNL     1      11.915  -3.125   7.565  0.00  0.00    +0.002 A 
ATOM     15  C   UNL     1      11.561  -4.435   7.854  0.00  0.00    +0.004 A 
ATOM     16  C   UNL     1      10.372  -4.957   7.389  0.00  0.00    +0.048 A 
ATOM     17  C   UNL     1       9.521  -4.168   6.630  0.00  0.00    +0.155 A 
ATOM     18  O   UNL     1       8.319  -4.375   6.049  0.00  0.00    -0.439 OA
ENDBRANCH   7  10
BRANCH   1  19
ATOM     19  C   UNL     1       3.711  -0.707  -0.038  0.00  0.00    +0.141 C 
BRANCH  19  23
ATOM     20  C   UNL     1      -0.017   1.378   0.010  0.00  0.00    +0.000 A 
ATOM     21  C   UNL     1       1.171   2.086   0.002  0.00  0.00    +0.000 A 
ATOM     22  C   UNL     1       2.377   1.411  -0.013  0.00  0.00    +0.005 A 
ATOM     23  C   UNL     1       2.396   0.029  -0.020  0.00  0.00    -0.030 A 
ATOM     24  C   UNL     1       1.208  -0.679  -0.012  0.00  0.00    +0.005 A 
ATOM     25  C   UNL     1       0.002  -0.004   0.002  0.00  0.00    +0.000 A 
ENDBRANCH  19  23
ENDBRANCH   1  19
TORSDOF 3
