REMARK  Name = ZINC66704945
REMARK  4 active torsions:
REMARK  status: ('A' for Active; 'I' for Inactive)
REMARK    1  A    between atoms: C_1  and  C_2
REMARK    2  A    between atoms: C_2  and  C_7
REMARK    3  A    between atoms: C_7  and  N_8
REMARK    4  A    between atoms: C_17  and  C_19
REMARK                            x       y       z     vdW  Elec       q    Type
REMARK                         _______ _______ _______ _____ _____    ______ ____
ROOT
ATOM      1  N   UNL     1      -4.043  -1.212  -0.584  0.00  0.00    -0.299 N 
ATOM      2  C   UNL     1      -3.397  -0.406  -1.450  0.00  0.00    +0.302 C 
ATOM      3  O   UNL     1      -2.275  -0.014  -1.195  0.00  0.00    -0.253 OA
ATOM      4  N   UNL     1      -3.996  -0.034  -2.599  0.00  0.00    -0.283 N 
ATOM      5  C   UNL     1      -3.264   0.747  -3.605  0.00  0.00    +0.128 C 
ATOM      6  C   UNL     1      -3.325   0.001  -4.944  0.00  0.00    +0.127 C 
ATOM      7  N   UNL     1      -4.721  -0.368  -5.213  0.00  0.00    -0.298 N 
ATOM      8  C   UNL     1      -5.454  -1.149  -4.206  0.00  0.00    +0.127 C 
ATOM      9  C   UNL     1      -5.391  -0.408  -2.870  0.00  0.00    +0.128 C 
ATOM     10  C   UNL     1      -5.320   0.003  -6.362  0.00  0.00    +0.219 C 
ATOM     11  O   UNL     1      -4.706   0.648  -7.185  0.00  0.00    -0.275 OA
ATOM     12  H   UNL     1      -4.964  -1.465  -0.751  0.00  0.00    +0.150 HD
ENDROOT
BRANCH  10  13
ATOM     13  C   UNL     1      -6.753  -0.382  -6.624  0.00  0.00    +0.075 C 
ATOM     14  C   UNL     1      -7.775   0.557  -5.962  0.00  0.00    +0.013 C 
ATOM     15  C   UNL     1      -7.712   1.402  -7.246  0.00  0.00    +0.001 C 
ATOM     16  C   UNL     1      -7.288   0.117  -7.976  0.00  0.00    +0.013 C 
ENDBRANCH  10  13
BRANCH   1  17
ATOM     17  C   UNL     1      -3.353  -1.706   0.611  0.00  0.00    +0.112 C 
BRANCH  17  19
ATOM     18  C   UNL     1      -4.769  -3.774   0.564  0.00  0.00    +0.013 C 
ATOM     19  C   UNL     1      -4.303  -2.593   1.418  0.00  0.00    -0.016 C 
ATOM     20  C   UNL     1      -5.519  -1.772   1.893  0.00  0.00    +0.008 C 
ATOM     21  C   UNL     1      -5.822  -2.325   3.308  0.00  0.00    +0.001 C 
ATOM     22  C   UNL     1      -4.408  -2.577   3.886  0.00  0.00    +0.001 C 
ATOM     23  C   UNL     1      -3.596  -3.105   2.685  0.00  0.00    +0.008 C 
ENDBRANCH  17  19
ENDBRANCH   1  17
TORSDOF 3
