REMARK  Name = ZINC13543936
REMARK  8 active torsions:
REMARK  status: ('A' for Active; 'I' for Inactive)
REMARK    1  A    between atoms: C_1  and  C_2
REMARK    2  A    between atoms: N_4  and  C_22
REMARK    3  A    between atoms: C_7  and  N_9
REMARK    4  A    between atoms: N_10  and  C_11
REMARK    5  A    between atoms: C_14  and  N_17
REMARK    6  A    between atoms: N_17  and  C_18
REMARK    7  A    between atoms: C_19  and  C_21
REMARK    8  A    between atoms: C_22  and  N_24
REMARK                            x       y       z     vdW  Elec       q    Type
REMARK                         _______ _______ _______ _____ _____    ______ ____
ROOT
ATOM      1  N   UNL     1       1.180  -0.693   2.082  0.00  0.00    -0.168 NA
ATOM      2  N   UNL     1       1.365  -1.300   3.147  0.00  0.00    -0.154 NA
ENDROOT
BRANCH   1   9
ATOM      3  C   UNL     1      -0.160   1.505   0.161  0.00  0.00    +0.065 C 
ATOM      4  C   UNL     1      -0.103  -0.000   0.114  0.00  0.00    +0.070 C 
ATOM      5  N   UNL     1      -0.096  -0.725  -0.936  0.00  0.00    -0.178 NA
ATOM      6  N   UNL     1      -0.038  -2.088  -0.660  0.00  0.00    -0.138 N 
ATOM      7  C   UNL     1      -0.002  -2.313   0.670  0.00  0.00    +0.273 C 
ATOM      8  O   UNL     1       0.050  -3.385   1.235  0.00  0.00    -0.271 OA
ATOM      9  C   UNL     1      -0.036  -0.936   1.303  0.00  0.00    +0.261 C 
BRANCH   6  10
ATOM     10  C   UNL     1      -0.020  -3.055  -1.599  0.00  0.00    +0.158 C 
ATOM     11  S   UNL     1       0.052  -4.700  -1.130  0.00  0.00    -0.017 S 
BRANCH  10  12
ATOM     12  N   UNL     1      -0.059  -2.728  -2.905  0.00  0.00    -0.339 N 
ATOM     13  H   UNL     1      -0.100  -1.795  -3.171  0.00  0.00    +0.144 HD
ATOM     14  H   UNL     1      -0.046  -3.424  -3.580  0.00  0.00    +0.144 HD
ENDBRANCH  10  12
ENDBRANCH   6  10
ENDBRANCH   1   9
BRANCH   2  15
ATOM     15  C   UNL     1       2.501  -1.074   3.875  0.00  0.00    +0.086 A 
ATOM     16  C   UNL     1       3.452  -0.154   3.422  0.00  0.00    +0.031 A 
ATOM     17  C   UNL     1       4.594   0.071   4.158  0.00  0.00    +0.025 A 
ATOM     18  C   UNL     1       4.803  -0.615   5.350  0.00  0.00    +0.036 A 
ATOM     19  C   UNL     1       3.859  -1.531   5.803  0.00  0.00    +0.025 A 
ATOM     20  C   UNL     1       2.712  -1.757   5.076  0.00  0.00    +0.031 A 
BRANCH  18  21
ATOM     21  N   UNL     1       5.962  -0.384   6.092  0.00  0.00    -0.275 N 
ATOM     22  C   UNL     1       7.030   0.453   5.541  0.00  0.00    +0.138 C 
ATOM     23  C   UNL     1       6.098  -0.931   7.316  0.00  0.00    +0.216 C 
ATOM     24  O   UNL     1       5.258  -1.700   7.734  0.00  0.00    -0.276 OA
ATOM     25  C   UNL     1       7.295  -0.589   8.166  0.00  0.00    +0.109 C 
ENDBRANCH  18  21
ENDBRANCH   2  15
TORSDOF 5
