REMARK  Name = ZINC10233155
REMARK  13 active torsions:
REMARK  status: ('A' for Active; 'I' for Inactive)
REMARK    1  A    between atoms: C_1  and  C_2
REMARK    2  A    between atoms: C_7  and  C_8
REMARK    3  A    between atoms: C_14  and  C_24
REMARK    4  A    between atoms: N_16  and  C_19
REMARK    5  A    between atoms: C_19  and  C_20
REMARK    6  A    between atoms: C_20  and  C_21
REMARK    7  A    between atoms: C_21  and  N_65
REMARK    8  A    between atoms: C_22  and  N_65
REMARK    9  A    between atoms: C_23  and  N_65
REMARK   10  A    between atoms: C_27  and  O_30
REMARK   11  A    between atoms: O_30  and  C_31
REMARK   12  A    between atoms: C_31  and  C_32
REMARK   13  A    between atoms: C_31  and  C_33
REMARK                            x       y       z     vdW  Elec       q    Type
REMARK                         _______ _______ _______ _____ _____    ______ ____
ROOT
ATOM      1  C   UNL     1      -1.113  -1.577   7.461  0.00  0.00    +0.044 C 
ATOM      2  C   UNL     1      -1.438  -1.655   5.992  0.00  0.00    -0.047 A 
ATOM      3  C   UNL     1      -0.645  -0.996   5.077  0.00  0.00    +0.019 A 
ATOM      4  C   UNL     1      -0.954  -1.073   3.720  0.00  0.00    +0.065 A 
ATOM      5  C   UNL     1      -2.064  -1.816   3.283  0.00  0.00    +0.140 A 
ATOM      6  C   UNL     1      -2.849  -2.473   4.225  0.00  0.00    +0.050 A 
ATOM      7  C   UNL     1      -2.535  -2.389   5.564  0.00  0.00    -0.044 A 
ATOM      8  C   UNL     1      -3.392  -3.105   6.576  0.00  0.00    +0.044 C 
ATOM      9  O   UNL     1      -2.361  -1.891   1.973  0.00  0.00    -0.450 OA
ATOM     10  C   UNL     1      -1.645  -1.280   1.008  0.00  0.00    +0.199 A 
ATOM     11  C   UNL     1      -0.553  -0.535   1.308  0.00  0.00    +0.072 A 
ATOM     12  C   UNL     1      -0.134  -0.384   2.704  0.00  0.00    +0.199 A 
ATOM     13  O   UNL     1       0.842   0.277   3.011  0.00  0.00    -0.287 OA
ATOM     14  C   UNL     1       0.002  -0.004   0.012  0.00  0.00    +0.144 C 
ATOM     15  N   UNL     1      -0.877  -0.518  -1.046  0.00  0.00    -0.284 N 
ATOM     16  C   UNL     1      -1.835  -1.260  -0.464  0.00  0.00    +0.283 C 
ATOM     17  O   UNL     1      -2.728  -1.832  -1.057  0.00  0.00    -0.267 OA
ENDROOT
BRANCH  14  18
ATOM     18  C   UNL     1      -0.019   1.503   0.018  0.00  0.00    -0.022 A 
ATOM     19  C   UNL     1      -1.207   2.178  -0.194  0.00  0.00    +0.009 A 
ATOM     20  C   UNL     1      -1.229   3.559  -0.183  0.00  0.00    +0.046 A 
ATOM     21  C   UNL     1      -0.056   4.269   0.027  0.00  0.00    +0.121 A 
ATOM     22  C   UNL     1       1.136   3.589   0.233  0.00  0.00    +0.046 A 
ATOM     23  C   UNL     1       1.152   2.208   0.228  0.00  0.00    +0.009 A 
BRANCH  21  24
ATOM     24  O   UNL     1      -0.074   5.628   0.032  0.00  0.00    -0.489 OA
BRANCH  24  25
ATOM     25  C   UNL     1       1.186   6.293   0.133  0.00  0.00    +0.167 C 
ATOM     26  C   UNL     1       1.076   7.691  -0.479  0.00  0.00    +0.051 C 
ATOM     27  C   UNL     1       1.583   6.411   1.606  0.00  0.00    +0.051 C 
ENDBRANCH  24  25
ENDBRANCH  21  24
ENDBRANCH  14  18
BRANCH  15  28
ATOM     28  C   UNL     1      -0.736  -0.266  -2.482  0.00  0.00    +0.107 C 
BRANCH  28  29
ATOM     29  C   UNL     1       0.146  -1.349  -3.105  0.00  0.00    +0.000 C 
BRANCH  29  30
ATOM     30  C   UNL     1       0.294  -1.086  -4.605  0.00  0.00    -0.078 C 
BRANCH  30  33
ATOM     31  C   UNL     1       1.115  -2.047  -6.670  0.00  0.00    -0.097 C 
ATOM     32  C   UNL     1       2.517  -2.041  -4.697  0.00  0.00    -0.097 C 
ATOM     33  N   UNL     1       1.131  -2.152  -5.196  0.00  0.00    +0.376 N 
ATOM     34  H   UNL     1       0.750  -3.065  -4.922  0.00  0.00    -0.083 HD
ENDBRANCH  30  33
ENDBRANCH  29  30
ENDBRANCH  28  29
ENDBRANCH  15  28
TORSDOF 7
