REMARK  Name = ZINC10645897
REMARK  9 active torsions:
REMARK  status: ('A' for Active; 'I' for Inactive)
REMARK    1  A    between atoms: C_1  and  C_2
REMARK    2  A    between atoms: C_5  and  N_8
REMARK    3  A    between atoms: C_9  and  C_26
REMARK    4  A    between atoms: C_12  and  S_13
REMARK    5  A    between atoms: S_13  and  C_14
REMARK    6  A    between atoms: C_14  and  C_16
REMARK    7  A    between atoms: C_14  and  C_17
REMARK    8  A    between atoms: N_19  and  C_20
REMARK    9  A    between atoms: C_22  and  C_25
REMARK                            x       y       z     vdW  Elec       q    Type
REMARK                         _______ _______ _______ _____ _____    ______ ____
ROOT
ATOM      1  N   UNL     1      -0.008   1.398   0.048  0.00  0.00    -0.270 N 
ATOM      2  C   UNL     1      -1.113   2.212   0.176  0.00  0.00    +0.169 A 
ATOM      3  N   UNL     1      -0.690   3.452   0.082  0.00  0.00    -0.128 NA
ATOM      4  N   UNL     1       0.582   3.470  -0.101  0.00  0.00    -0.122 NA
ATOM      5  C   UNL     1       1.053   2.243  -0.131  0.00  0.00    +0.197 A 
ENDROOT
BRANCH   1  10
ATOM      6  C   UNL     1       0.111  -4.274   0.207  0.00  0.00    +0.044 C 
ATOM      7  C   UNL     1       0.079  -2.768   0.165  0.00  0.00    -0.050 A 
ATOM      8  C   UNL     1       0.663  -2.037   1.183  0.00  0.00    +0.005 A 
ATOM      9  C   UNL     1       0.635  -0.656   1.147  0.00  0.00    +0.026 A 
ATOM     10  C   UNL     1       0.021  -0.003   0.087  0.00  0.00    +0.051 A 
ATOM     11  C   UNL     1      -0.569  -0.740  -0.931  0.00  0.00    +0.026 A 
ATOM     12  C   UNL     1      -0.534  -2.120  -0.892  0.00  0.00    +0.005 A 
ENDBRANCH   1  10
BRANCH   2  13
ATOM     13  C   UNL     1      -2.509   1.773   0.383  0.00  0.00    +0.020 A 
ATOM     14  C   UNL     1      -2.777   0.477   0.828  0.00  0.00    +0.013 A 
ATOM     15  C   UNL     1      -4.082   0.075   1.024  0.00  0.00    +0.021 A 
ATOM     16  C   UNL     1      -5.125   0.950   0.770  0.00  0.00    +0.041 A 
ATOM     17  C   UNL     1      -4.865   2.235   0.323  0.00  0.00    +0.021 A 
ATOM     18  C   UNL     1      -3.564   2.650   0.128  0.00  0.00    +0.013 A 
ATOM     19 CL   UNL     1      -6.764   0.434   1.012  0.00  0.00    -0.084 Cl
ENDBRANCH   2  13
BRANCH   5  20
ATOM     20  S   UNL     1       2.736   1.775  -0.358  0.00  0.00    -0.073 S 
BRANCH  20  21
ATOM     21  C   UNL     1       3.498   3.409  -0.518  0.00  0.00    +0.137 C 
ATOM     22  C   UNL     1       3.353   4.171   0.800  0.00  0.00    +0.029 C 
BRANCH  21  23
ATOM     23  C   UNL     1       4.960   3.251  -0.849  0.00  0.00    +0.233 C 
ATOM     24  O   UNL     1       5.525   2.204  -0.616  0.00  0.00    -0.274 OA
ATOM     25  N   UNL     1       5.639   4.274  -1.404  0.00  0.00    -0.253 N 
ATOM     26  H   UNL     1       5.188   5.112  -1.591  0.00  0.00    +0.158 HD
BRANCH  25  27
ATOM     27  C   UNL     1       6.985   4.129  -1.709  0.00  0.00    +0.224 A 
ATOM     28  C   UNL     1       7.804   5.066  -2.269  0.00  0.00    +0.092 A 
ATOM     29  C   UNL     1       9.051   4.415  -2.362  0.00  0.00    +0.082 A 
ATOM     30  N   UNL     1       8.881   3.217  -1.878  0.00  0.00    -0.081 NA
ATOM     31  O   UNL     1       7.744   3.040  -1.506  0.00  0.00    -0.339 OA
ATOM     32  C   UNL     1      10.330   4.992  -2.912  0.00  0.00    +0.069 C 
ENDBRANCH  25  27
ENDBRANCH  21  23
ENDBRANCH  20  21
ENDBRANCH   5  20
TORSDOF 6
