REMARK  Name = ZINC17194882
REMARK  7 active torsions:
REMARK  status: ('A' for Active; 'I' for Inactive)
REMARK    1  A    between atoms: C_1  and  C_2
REMARK    2  A    between atoms: C_6  and  N_8
REMARK    3  A    between atoms: C_11  and  C_17
REMARK    4  A    between atoms: C_21  and  O_30
REMARK    5  A    between atoms: C_22  and  O_28
REMARK    6  A    between atoms: O_28  and  C_29
REMARK    7  A    between atoms: O_30  and  C_31
REMARK                            x       y       z     vdW  Elec       q    Type
REMARK                         _______ _______ _______ _____ _____    ______ ____
ROOT
ATOM      1  N   UNL     1      -2.458   3.824   0.045  0.00  0.00    -0.256 N 
ATOM      2  C   UNL     1      -3.613   3.135  -0.050  0.00  0.00    +0.265 A 
ATOM      3  O   UNL     1      -3.597   1.921  -0.148  0.00  0.00    -0.267 OA
ATOM      4  C   UNL     1      -4.836   3.829  -0.034  0.00  0.00    +0.072 A 
ATOM      5  C   UNL     1      -4.826   5.188   0.077  0.00  0.00    +0.258 A 
ATOM      6  N   UNL     1      -3.628   5.848   0.171  0.00  0.00    -0.302 N 
ATOM      7  C   UNL     1      -2.469   5.164   0.159  0.00  0.00    +0.168 A 
ATOM      8  S   UNL     1      -0.988   6.013   0.284  0.00  0.00    -0.012 S 
ATOM      9  O   UNL     1      -5.986   5.877   0.094  0.00  0.00    -0.267 OA
ATOM     10  H   UNL     1      -3.610   6.945   0.256  0.00  0.00    +0.171 HD
ENDROOT
BRANCH   4  11
ATOM     11  C   UNL     1      -6.140   3.080  -0.138  0.00  0.00    +0.001 C 
ATOM     12  C   UNL     1      -6.312   2.209   1.079  0.00  0.00    -0.050 A 
ATOM     13  C   UNL     1      -5.977   2.736   2.318  0.00  0.00    +0.052 A 
ATOM     14  C   UNL     1      -6.121   1.975   3.465  0.00  0.00    +0.162 A 
ATOM     15  C   UNL     1      -6.606   0.673   3.372  0.00  0.00    +0.162 A 
ATOM     16  C   UNL     1      -6.937   0.152   2.135  0.00  0.00    +0.053 A 
ATOM     17  C   UNL     1      -6.788   0.918   0.988  0.00  0.00    -0.044 A 
ATOM     18  C   UNL     1      -7.154   0.302  -0.338  0.00  0.00    +0.016 C 
ATOM     19  C   UNL     1      -7.320   1.395  -1.394  0.00  0.00    -0.077 C 
ATOM     20  N   UNL     1      -6.133   2.265  -1.357  0.00  0.00    +0.387 N 
ATOM     21  H   UNL     1      -6.141   2.923  -2.238  0.00  0.00    -0.085 HD
ATOM     22  H   UNL     1      -5.228   1.639  -1.375  0.00  0.00    -0.085 HD
BRANCH  15  23
ATOM     23  O   UNL     1      -6.753  -0.082   4.494  0.00  0.00    -0.491 OA
ATOM     24  C   UNL     1      -7.256  -1.408   4.321  0.00  0.00    +0.277 C 
ENDBRANCH  15  23
BRANCH  14  25
ATOM     25  O   UNL     1      -5.791   2.497   4.676  0.00  0.00    -0.491 OA
ATOM     26  C   UNL     1      -5.300   3.838   4.693  0.00  0.00    +0.277 C 
ENDBRANCH  14  25
ENDBRANCH   4  11
BRANCH   1  32
ATOM     27  C   UNL     1       1.317   1.954  -2.493  0.00  0.00    +0.044 C 
ATOM     28  C   UNL     1       0.614   2.218  -1.186  0.00  0.00    -0.048 A 
ATOM     29  C   UNL     1       1.176   1.783   0.000  0.00  0.00    +0.003 A 
ATOM     30  C   UNL     1       0.534   2.023   1.201  0.00  0.00    +0.002 A 
ATOM     31  C   UNL     1      -0.673   2.694   1.219  0.00  0.00    +0.026 A 
ATOM     32  C   UNL     1      -1.236   3.138   0.030  0.00  0.00    +0.052 A 
ATOM     33  C   UNL     1      -0.590   2.895  -1.175  0.00  0.00    +0.029 A 
ENDBRANCH   1  32
TORSDOF 4
