REMARK  Name = ZINC54475930
REMARK  4 active torsions:
REMARK  status: ('A' for Active; 'I' for Inactive)
REMARK    1  A    between atoms: C_2  and  N_22
REMARK    2  A    between atoms: C_4  and  C_11
REMARK    3  A    between atoms: C_11  and  S_12
REMARK    4  A    between atoms: S_12  and  C_13
REMARK                            x       y       z     vdW  Elec       q    Type
REMARK                         _______ _______ _______ _____ _____    ______ ____
ROOT
ATOM      1  C   UNL     1      -0.017   1.378   0.010  0.00  0.00    +0.042 A 
ATOM      2  C   UNL     1       1.170   2.088   0.002  0.00  0.00    +0.127 A 
ATOM      3  C   UNL     1       2.379   1.417  -0.014  0.00  0.00    +0.040 A 
ATOM      4  C   UNL     1       2.403   0.036  -0.025  0.00  0.00    +0.007 A 
ATOM      5  C   UNL     1       1.213  -0.679  -0.017  0.00  0.00    +0.133 A 
ATOM      6  C   UNL     1       0.002  -0.004   0.002  0.00  0.00    +0.022 A 
ATOM      7  C   UNL     1      -1.298  -0.768   0.019  0.00  0.00    +0.202 C 
ATOM      8  O   UNL     1      -1.054  -2.125  -0.363  0.00  0.00    -0.339 OA
ATOM      9  C   UNL     1       0.044  -2.718   0.343  0.00  0.00    +0.394 C 
ATOM     10  O   UNL     1       1.246  -2.038  -0.031  0.00  0.00    -0.466 OA
ENDROOT
BRANCH   2  11
ATOM     11  N   UNL     1       1.146   3.567   0.011  0.00  0.00    +0.056 N 
ATOM     12  O   UNL     1       0.089   4.155   0.025  0.00  0.00    -0.126 OA
ATOM     13  O   UNL     1       2.183   4.189   0.004  0.00  0.00    -0.126 OA
ENDBRANCH   2  11
BRANCH   4  14
ATOM     14  C   UNL     1       3.721  -0.695  -0.044  0.00  0.00    +0.113 C 
BRANCH  14  15
ATOM     15  S   UNL     1       4.268  -1.000   1.658  0.00  0.00    -0.115 S 
BRANCH  15  16
ATOM     16  C   UNL     1       5.800  -1.850   1.467  0.00  0.00    +0.079 A 
ATOM     17  C   UNL     1       5.822  -3.237   1.384  0.00  0.00    +0.142 A 
ATOM     18  C   UNL     1       7.026  -3.901   1.234  0.00  0.00    +0.078 A 
ATOM     19  C   UNL     1       8.209  -3.185   1.165  0.00  0.00    +0.129 A 
ATOM     20  C   UNL     1       8.191  -1.803   1.247  0.00  0.00    +0.078 A 
ATOM     21  C   UNL     1       6.989  -1.133   1.392  0.00  0.00    +0.142 A 
ATOM     22  F   UNL     1       6.971   0.216   1.467  0.00  0.00    -0.204 F 
ATOM     23  F   UNL     1       9.384  -3.836   1.019  0.00  0.00    -0.205 F 
ATOM     24  F   UNL     1       4.668  -3.937   1.451  0.00  0.00    -0.204 F 
ENDBRANCH  15  16
ENDBRANCH  14  15
ENDBRANCH   4  14
TORSDOF 4
