REMARK  Name = ZINC41511580
REMARK  9 active torsions:
REMARK  status: ('A' for Active; 'I' for Inactive)
REMARK    1  A    between atoms: C_1  and  C_2
REMARK    2  A    between atoms: C_4  and  O_31
REMARK    3  A    between atoms: C_5  and  C_22
REMARK    4  A    between atoms: C_11  and  C_12
REMARK    5  A    between atoms: C_15  and  N_18
REMARK    6  A    between atoms: N_18  and  C_19
REMARK    7  A    between atoms: N_18  and  C_20
REMARK    8  A    between atoms: C_22  and  N_23
REMARK    9  A    between atoms: C_28  and  C_30
REMARK                            x       y       z     vdW  Elec       q    Type
REMARK                         _______ _______ _______ _____ _____    ______ ____
ROOT
ATOM      1  C   UNL     1      -0.084   1.509   0.017  0.00  0.00    +0.045 C 
ATOM      2  C   UNL     1      -0.074   0.003   0.006  0.00  0.00    -0.033 A 
ATOM      3  C   UNL     1      -0.096  -0.674  -1.181  0.00  0.00    +0.050 A 
ATOM      4  C   UNL     1      -0.087  -2.066  -1.193  0.00  0.00    +0.122 A 
ATOM      5  C   UNL     1      -0.054  -2.781  -0.007  0.00  0.00    +0.020 A 
ATOM      6  C   UNL     1      -0.030  -2.109   1.209  0.00  0.00    +0.145 A 
ATOM      7  C   UNL     1      -0.035  -0.704   1.208  0.00  0.00    +0.071 A 
ATOM      8  C   UNL     1       0.000  -0.288   2.622  0.00  0.00    +0.232 C 
ATOM      9  O   UNL     1       0.004   0.847   3.066  0.00  0.00    -0.283 OA
ATOM     10  C   UNL     1       0.030  -1.548   3.377  0.00  0.00    +0.176 C 
ATOM     11  C   UNL     1       0.068  -1.673   4.729  0.00  0.00    +0.058 C 
ATOM     12  O   UNL     1       0.003  -2.563   2.480  0.00  0.00    -0.451 OA
ENDROOT
BRANCH  11  13
ATOM     13  C   UNL     1      -0.019  -3.002   5.346  0.00  0.00    -0.021 A 
ATOM     14  C   UNL     1      -0.116  -3.125   6.738  0.00  0.00    +0.010 A 
ATOM     15  C   UNL     1      -0.197  -4.364   7.308  0.00  0.00    +0.023 A 
ATOM     16  C   UNL     1      -0.182  -5.503   6.507  0.00  0.00    +0.029 A 
ATOM     17  C   UNL     1      -0.085  -5.386   5.123  0.00  0.00    +0.023 A 
ATOM     18  C   UNL     1      -0.010  -4.151   4.543  0.00  0.00    +0.010 A 
BRANCH  16  19
ATOM     19  N   UNL     1      -0.265  -6.763   7.092  0.00  0.00    -0.336 N 
ATOM     20  C   UNL     1      -0.366  -6.889   8.548  0.00  0.00    +0.129 C 
ATOM     21  C   UNL     1      -0.250  -7.963   6.252  0.00  0.00    +0.129 C 
ENDBRANCH  16  19
ENDBRANCH  11  13
BRANCH   4  22
ATOM     22  O   UNL     1      -0.110  -2.728  -2.378  0.00  0.00    -0.506 OA
ATOM     23  H   UNL     1       0.766  -2.914  -2.742  0.00  0.00    +0.292 HD
ENDBRANCH   4  22
BRANCH   5  24
ATOM     24  C   UNL     1      -0.044  -4.287  -0.035  0.00  0.00    -0.035 C 
BRANCH  24  25
ATOM     25  N   UNL     1       1.343  -4.768  -0.077  0.00  0.00    +0.384 N 
ATOM     26  C   UNL     1       1.969  -4.343  -1.335  0.00  0.00    -0.078 C 
ATOM     27  C   UNL     1       3.438  -4.771  -1.349  0.00  0.00    -0.019 C 
ATOM     28  C   UNL     1       3.521  -6.295  -1.224  0.00  0.00    -0.003 C 
ATOM     29  C   UNL     1       2.801  -6.733   0.055  0.00  0.00    -0.016 C 
ATOM     30  C   UNL     1       1.356  -6.232   0.016  0.00  0.00    -0.071 C 
ATOM     31  C   UNL     1       0.632  -6.668   1.292  0.00  0.00    -0.013 C 
ATOM     32  H   UNL     1       1.857  -4.378   0.699  0.00  0.00    -0.081 HD
ENDBRANCH  24  25
ENDBRANCH   5  24
TORSDOF 5
