REMARK  Name = ZINC08327088
REMARK  3 active torsions:
REMARK  status: ('A' for Active; 'I' for Inactive)
REMARK    1  A    between atoms: C_3  and  O_13
REMARK    2  A    between atoms: C_6  and  N_7
REMARK    3  A    between atoms: O_13  and  C_14
REMARK                            x       y       z     vdW  Elec       q    Type
REMARK                         _______ _______ _______ _____ _____    ______ ____
ROOT
ATOM      1  C   UNL     1       4.295  -0.248  -0.745  0.00  0.00    +0.027 A 
ATOM      2  C   UNL     1       5.671  -0.219  -0.851  0.00  0.00    +0.048 A 
ATOM      3  C   UNL     1       6.356   0.974  -0.671  0.00  0.00    +0.131 A 
ATOM      4  C   UNL     1       5.658   2.140  -0.390  0.00  0.00    +0.048 A 
ATOM      5  C   UNL     1       4.281   2.113  -0.289  0.00  0.00    +0.027 A 
ATOM      6  C   UNL     1       3.595   0.919  -0.469  0.00  0.00    +0.036 A 
ENDROOT
BRANCH   6   7
ATOM      7  N   UNL     1       2.199   0.891  -0.368  0.00  0.00    -0.271 N 
ATOM      8  C   UNL     1       1.375   2.035   0.042  0.00  0.00    +0.114 C 
ATOM      9  C   UNL     1      -0.062   1.690  -0.406  0.00  0.00    +0.029 C 
ATOM     10  C   UNL     1      -0.022   0.144  -0.429  0.00  0.00    +0.098 C 
ATOM     11  C   UNL     1       1.440  -0.186  -0.634  0.00  0.00    +0.220 C 
ATOM     12  O   UNL     1       1.866  -1.266  -0.985  0.00  0.00    -0.275 OA
ENDBRANCH   6   7
BRANCH   3  13
ATOM     13  O   UNL     1       7.712   1.001  -0.769  0.00  0.00    -0.437 OA
BRANCH  13  14
ATOM     14  C   UNL     1       8.431   1.093   0.375  0.00  0.00    +0.232 A 
ATOM     15  C   UNL     1       9.844   1.233   0.326  0.00  0.00    +0.070 A 
ATOM     16  C   UNL     1      10.732   1.301  -0.821  0.00  0.00    +0.023 A 
ATOM     17  C   UNL     1      12.051   1.437  -0.620  0.00  0.00    +0.048 A 
ATOM     18  S   UNL     1      12.200   1.483   1.156  0.00  0.00    -0.077 S 
ATOM     19  C   UNL     1      10.487   1.319   1.581  0.00  0.00    +0.115 A 
ATOM     20  N   UNL     1       9.805   1.270   2.708  0.00  0.00    -0.228 NA
ATOM     21  C   UNL     1       8.493   1.139   2.687  0.00  0.00    +0.226 A 
ATOM     22  N   UNL     1       7.826   1.058   1.549  0.00  0.00    -0.201 NA
ENDBRANCH  13  14
ENDBRANCH   3  13
TORSDOF 3
