REMARK  Name = ZINC67060937
REMARK  9 active torsions:
REMARK  status: ('A' for Active; 'I' for Inactive)
REMARK    1  A    between atoms: C_1  and  C_2
REMARK    2  A    between atoms: C_2  and  C_3
REMARK    3  A    between atoms: C_2  and  C_4
REMARK    4  A    between atoms: C_4  and  C_5
REMARK    5  A    between atoms: C_5  and  C_6
REMARK    6  A    between atoms: N_8  and  N_9
REMARK    7  A    between atoms: N_12  and  C_13
REMARK    8  A    between atoms: N_16  and  C_19
REMARK    9  A    between atoms: C_19  and  C_20
REMARK                            x       y       z     vdW  Elec       q    Type
REMARK                         _______ _______ _______ _____ _____    ______ ____
ROOT
ATOM      1  N   UNL     1       4.859  -0.752  -3.775  0.00  0.00    -0.218 N 
ATOM      2  C   UNL     1       6.170  -0.492  -3.950  0.00  0.00    +0.316 C 
ATOM      3  O   UNL     1       6.740  -0.884  -4.950  0.00  0.00    -0.251 OA
ATOM      4  N   UNL     1       6.851   0.201  -3.015  0.00  0.00    -0.296 N 
ATOM      5  H   UNL     1       4.370  -1.251  -4.447  0.00  0.00    +0.174 HD
ATOM      6  H   UNL     1       6.397   0.514  -2.217  0.00  0.00    +0.151 HD
ENDROOT
BRANCH   4   7
ATOM      7  C   UNL     1       8.276   0.483  -3.205  0.00  0.00    +0.071 C 
ATOM      8  C   UNL     1       8.439   1.754  -4.044  0.00  0.00    +0.004 C 
ATOM      9  C   UNL     1       9.927   2.087  -4.171  0.00  0.00    -0.077 C 
ATOM     10  N   UNL     1      10.500   2.302  -2.837  0.00  0.00    +0.382 N 
ATOM     11  C   UNL     1      10.412   1.065  -2.052  0.00  0.00    -0.077 C 
ATOM     12  C   UNL     1       8.942   0.693  -1.843  0.00  0.00    +0.004 C 
ATOM     13  H   UNL     1       9.990   3.035  -2.368  0.00  0.00    -0.081 HD
BRANCH  10  14
ATOM     14  C   UNL     1      11.909   2.697  -2.969  0.00  0.00    -0.043 C 
BRANCH  14  15
ATOM     15  C   UNL     1      12.465   3.037  -1.610  0.00  0.00    -0.064 A 
ATOM     16  C   UNL     1      12.380   4.332  -1.134  0.00  0.00    +0.004 A 
ATOM     17  C   UNL     1      12.889   4.644   0.113  0.00  0.00    +0.038 A 
ATOM     18  C   UNL     1      13.483   3.660   0.884  0.00  0.00    +0.123 A 
ATOM     19  C   UNL     1      13.567   2.364   0.406  0.00  0.00    +0.038 A 
ATOM     20  C   UNL     1      13.053   2.052  -0.839  0.00  0.00    +0.004 A 
ATOM     21  F   UNL     1      13.982   3.965   2.102  0.00  0.00    -0.205 F 
ENDBRANCH  14  15
ENDBRANCH  10  14
ENDBRANCH   4   7
BRANCH   1  24
ATOM     22  C   UNL     1       2.893  -0.559  -2.447  0.00  0.00    +0.229 C 
ATOM     23  O   UNL     1       2.281  -1.183  -3.288  0.00  0.00    -0.274 OA
ATOM     24  N   UNL     1       4.204  -0.300  -2.622  0.00  0.00    -0.233 N 
ATOM     25  H   UNL     1       4.693   0.200  -1.950  0.00  0.00    +0.173 HD
BRANCH  22  26
ATOM     26  C   UNL     1       2.187  -0.073  -1.207  0.00  0.00    +0.097 C 
BRANCH  26  27
ATOM     27  C   UNL     1       0.718  -0.497  -1.257  0.00  0.00    +0.012 C 
BRANCH  27  29
ATOM     28  C   UNL     1      -0.019   1.526   0.010  0.00  0.00    +0.007 C 
ATOM     29  C   UNL     1       0.002  -0.004   0.002  0.00  0.00    -0.017 C 
ATOM     30  C   UNL     1      -1.433  -0.534   0.013  0.00  0.00    +0.007 C 
ENDBRANCH  27  29
ENDBRANCH  26  27
ENDBRANCH  22  26
ENDBRANCH   1  24
TORSDOF 7
