REMARK  Name = ZINC32819325
REMARK  8 active torsions:
REMARK  status: ('A' for Active; 'I' for Inactive)
REMARK    1  A    between atoms: C_1  and  C_2
REMARK    2  A    between atoms: C_2  and  O_3
REMARK    3  A    between atoms: O_3  and  C_4
REMARK    4  A    between atoms: C_4  and  C_6
REMARK    5  A    between atoms: N_11  and  C_13
REMARK    6  A    between atoms: C_13  and  C_14
REMARK    7  A    between atoms: N_19  and  C_20
REMARK    8  A    between atoms: C_27  and  C_29
REMARK                            x       y       z     vdW  Elec       q    Type
REMARK                         _______ _______ _______ _____ _____    ______ ____
ROOT
ATOM      1  C   UNL     1      -3.786  -0.667   0.017  0.00  0.00    +0.034 A 
ATOM      2  C   UNL     1      -4.847   0.176   0.027  0.00  0.00    +0.070 A 
ATOM      3  S   UNL     1      -4.014   1.757   0.038  0.00  0.00    -0.060 S 
ATOM      4  C   UNL     1      -2.386   1.155   0.020  0.00  0.00    +0.172 A 
ATOM      5  N   UNL     1      -2.573  -0.151   0.013  0.00  0.00    -0.231 NA
ATOM      6  N   UNL     1      -1.191   1.867   0.018  0.00  0.00    -0.216 N 
ATOM      7  C   UNL     1      -0.014   1.209   0.009  0.00  0.00    +0.223 C 
ATOM      8  O   UNL     1       0.002  -0.004   0.002  0.00  0.00    -0.275 OA
ATOM      9  C   UNL     1       1.280   1.980   0.001  0.00  0.00    +0.110 C 
ENDROOT
BRANCH   6  10
ATOM     10  C   UNL     1      -1.210   3.268   0.026  0.00  0.00    +0.078 A 
ATOM     11  C   UNL     1      -1.219   3.970  -1.172  0.00  0.00    +0.027 A 
ATOM     12  C   UNL     1      -1.243   5.351  -1.161  0.00  0.00    +0.002 A 
ATOM     13  C   UNL     1      -1.246   6.036   0.040  0.00  0.00    +0.003 A 
ATOM     14  C   UNL     1      -1.232   5.341   1.236  0.00  0.00    +0.040 A 
ATOM     15  C   UNL     1      -1.213   3.958   1.232  0.00  0.00    +0.145 A 
ATOM     16  F   UNL     1      -1.199   3.279   2.400  0.00  0.00    -0.204 F 
ENDBRANCH   6  10
BRANCH   1  17
ATOM     17  C   UNL     1      -3.988  -2.161   0.010  0.00  0.00    -0.022 C 
BRANCH  17  22
ATOM     18  C   UNL     1      -3.703  -4.596  -2.848  0.00  0.00    +0.081 C 
ATOM     19  C   UNL     1      -4.861  -4.082  -3.708  0.00  0.00    +0.011 C 
ATOM     20  C   UNL     1      -4.915  -2.555  -3.618  0.00  0.00    -0.018 C 
ATOM     21  C   UNL     1      -5.074  -2.140  -2.153  0.00  0.00    -0.078 C 
ATOM     22  N   UNL     1      -3.941  -2.655  -1.372  0.00  0.00    +0.384 N 
ATOM     23  C   UNL     1      -3.897  -4.122  -1.405  0.00  0.00    -0.064 C 
ATOM     24  H   UNL     1      -3.017  -2.281  -1.836  0.00  0.00    -0.081 HD
BRANCH  18  25
ATOM     25  C   UNL     1      -3.678  -6.102  -2.884  0.00  0.00    +0.308 C 
ATOM     26  O   UNL     1      -3.802  -6.733  -1.861  0.00  0.00    -0.251 OA
BRANCH  25  27
ATOM     27  O   UNL     1      -3.517  -6.743  -4.052  0.00  0.00    -0.465 OA
BRANCH  27  29
ATOM     28  C   UNL     1      -3.311  -8.742  -5.427  0.00  0.00    +0.048 C 
ATOM     29  C   UNL     1      -3.503  -8.194  -4.012  0.00  0.00    +0.229 C 
ENDBRANCH  27  29
ENDBRANCH  25  27
ENDBRANCH  18  25
ENDBRANCH  17  22
ENDBRANCH   1  17
TORSDOF 6
