REMARK  Name = ZINC63584177
REMARK  4 active torsions:
REMARK  status: ('A' for Active; 'I' for Inactive)
REMARK    1  A    between atoms: N_9  and  C_14
REMARK    2  A    between atoms: C_14  and  C_15
REMARK    3  A    between atoms: C_20  and  N_23
REMARK    4  A    between atoms: N_23  and  C_24
REMARK                            x       y       z     vdW  Elec       q    Type
REMARK                         _______ _______ _______ _____ _____    ______ ____
ROOT
ATOM      1  C   UNL     1       2.649  -4.678  -1.467  0.00  0.00    +0.236 C 
ATOM      2  O   UNL     1       2.584  -3.887  -2.385  0.00  0.00    -0.274 OA
ATOM      3  N   UNL     1       2.741  -5.998  -1.720  0.00  0.00    -0.300 N 
ATOM      4  C   UNL     1       2.815  -6.968  -0.619  0.00  0.00    +0.109 C 
ATOM      5  C   UNL     1       1.718  -8.020  -0.815  0.00  0.00    +0.041 C 
ATOM      6  C   UNL     1       1.852  -8.639  -2.208  0.00  0.00    +0.073 C 
ATOM      7  C   UNL     1       1.674  -7.551  -3.270  0.00  0.00    +0.041 C 
ATOM      8  C   UNL     1       2.764  -6.495  -3.103  0.00  0.00    +0.109 C 
ENDROOT
BRANCH   6   9
ATOM      9  N   UNL     1       0.825  -9.668  -2.386  0.00  0.00    -0.341 N 
ATOM     10  H   UNL     1       0.004  -9.627  -1.872  0.00  0.00    +0.146 HD
BRANCH   9  11
ATOM     11  C   UNL     1       1.030 -10.710  -3.296  0.00  0.00    +0.027 A 
ATOM     12  C   UNL     1       2.208 -10.773  -4.027  0.00  0.00    +0.026 A 
ATOM     13  C   UNL     1       2.409 -11.803  -4.925  0.00  0.00    +0.040 A 
ATOM     14  C   UNL     1       1.435 -12.772  -5.096  0.00  0.00    +0.124 A 
ATOM     15  C   UNL     1       0.259 -12.711  -4.368  0.00  0.00    +0.040 A 
ATOM     16  C   UNL     1       0.057 -11.686  -3.465  0.00  0.00    +0.026 A 
ATOM     17  F   UNL     1       1.632 -13.779  -5.976  0.00  0.00    -0.205 F 
ENDBRANCH   9  11
ENDBRANCH   6   9
BRANCH   1  18
ATOM     18  C   UNL     1       2.627  -4.183  -0.044  0.00  0.00    +0.225 C 
BRANCH  18  27
ATOM     19  C   UNL     1      -0.017   1.375   0.010  0.00  0.00    +0.001 A 
ATOM     20  C   UNL     1       1.169   2.093   0.002  0.00  0.00    +0.002 A 
ATOM     21  C   UNL     1       2.386   1.442  -0.013  0.00  0.00    +0.026 A 
ATOM     22  C   UNL     1       2.425   0.056  -0.021  0.00  0.00    +0.056 A 
ATOM     23  C   UNL     1       1.223  -0.673  -0.013  0.00  0.00    +0.063 A 
ATOM     24  C   UNL     1       0.002  -0.004   0.002  0.00  0.00    +0.015 A 
ATOM     25  C   UNL     1       1.301  -2.145  -0.021  0.00  0.00    +0.265 A 
ATOM     26  O   UNL     1       0.291  -2.823  -0.016  0.00  0.00    -0.267 OA
ATOM     27  N   UNL     1       2.522  -2.722  -0.036  0.00  0.00    -0.252 N 
ATOM     28  C   UNL     1       3.642  -1.982  -0.043  0.00  0.00    +0.330 A 
ATOM     29  O   UNL     1       4.716  -2.551  -0.056  0.00  0.00    -0.246 OA
ATOM     30  N   UNL     1       3.627  -0.638  -0.036  0.00  0.00    -0.307 N 
ATOM     31  H   UNL     1       4.464  -0.148  -0.041  0.00  0.00    +0.170 HD
ENDBRANCH  18  27
ENDBRANCH   1  18
TORSDOF 4
