REMARK  Name = ZINC13734477
REMARK  3 active torsions:
REMARK  status: ('A' for Active; 'I' for Inactive)
REMARK    1  A    between atoms: C_4  and  C_7
REMARK    2  A    between atoms: C_8  and  C_9
REMARK    3  A    between atoms: N_18  and  C_21
REMARK                            x       y       z     vdW  Elec       q    Type
REMARK                         _______ _______ _______ _____ _____    ______ ____
ROOT
ATOM      1  C   UNL     1       4.993  -2.738  -0.061  0.00  0.00    +0.096 C 
ATOM      2  N   UNL     1       6.210  -2.206  -0.065  0.00  0.00    -0.088 NA
ATOM      3  O   UNL     1       7.220  -3.231  -0.123  0.00  0.00    -0.380 OA
ATOM      4  C   UNL     1       6.595  -4.309  -0.797  0.00  0.00    +0.308 C 
ATOM      5  C   UNL     1       5.201  -4.160  -0.071  0.00  0.00    +0.180 C 
ATOM      6  C   UNL     1       4.565  -5.414  -0.390  0.00  0.00    +0.239 C 
ATOM      7  O   UNL     1       3.382  -5.615  -0.569  0.00  0.00    -0.274 OA
ATOM      8  N   UNL     1       5.584  -6.332  -0.449  0.00  0.00    -0.207 N 
ATOM      9  C   UNL     1       6.835  -5.742  -0.441  0.00  0.00    +0.271 C 
ATOM     10  O   UNL     1       7.897  -6.266  -0.183  0.00  0.00    -0.271 OA
ENDROOT
BRANCH   8  11
ATOM     11  C   UNL     1       5.382  -7.717  -0.529  0.00  0.00    +0.044 A 
ATOM     12  C   UNL     1       4.093  -8.232  -0.559  0.00  0.00    +0.024 A 
ATOM     13  C   UNL     1       3.897  -9.596  -0.638  0.00  0.00    +0.002 A 
ATOM     14  C   UNL     1       4.983 -10.450  -0.688  0.00  0.00    +0.000 A 
ATOM     15  C   UNL     1       6.269  -9.941  -0.658  0.00  0.00    +0.002 A 
ATOM     16  C   UNL     1       6.471  -8.577  -0.585  0.00  0.00    +0.024 A 
ENDBRANCH   8  11
BRANCH   1  18
ATOM     17  C   UNL     1       3.692  -0.680  -0.037  0.00  0.00    +0.010 C 
ATOM     18  C   UNL     1       3.714  -2.027  -0.045  0.00  0.00    +0.028 C 
BRANCH  17  22
ATOM     19  C   UNL     1      -0.017   1.380   0.010  0.00  0.00    +0.000 A 
ATOM     20  C   UNL     1       1.168   2.095   0.002  0.00  0.00    +0.001 A 
ATOM     21  C   UNL     1       2.377   1.433  -0.013  0.00  0.00    +0.008 A 
ATOM     22  C   UNL     1       2.405   0.035  -0.021  0.00  0.00    -0.025 A 
ATOM     23  C   UNL     1       1.204  -0.681  -0.013  0.00  0.00    +0.008 A 
ATOM     24  C   UNL     1       0.002  -0.004   0.002  0.00  0.00    +0.001 A 
ENDBRANCH  17  22
ENDBRANCH   1  18
TORSDOF 3
