REMARK  Name = ZINC04745110
REMARK  6 active torsions:
REMARK  status: ('A' for Active; 'I' for Inactive)
REMARK    1  A    between atoms: C_4  and  C_7
REMARK    2  A    between atoms: C_7  and  C_8
REMARK    3  A    between atoms: C_14  and  C_16
REMARK    4  A    between atoms: C_22  and  C_23
REMARK    5  A    between atoms: C_22  and  N_62
REMARK    6  A    between atoms: C_27  and  N_29
REMARK                            x       y       z     vdW  Elec       q    Type
REMARK                         _______ _______ _______ _____ _____    ______ ____
ROOT
ATOM      1  C   UNL     1       4.630  -0.054  -2.912  0.00  0.00    +0.059 C 
ATOM      2  C   UNL     1       4.566   1.405  -3.374  0.00  0.00    +0.009 C 
ATOM      3  C   UNL     1       3.126   1.910  -3.246  0.00  0.00    -0.018 C 
ATOM      4  C   UNL     1       2.665   1.758  -1.794  0.00  0.00    -0.078 C 
ATOM      5  C   UNL     1       4.125  -0.149  -1.470  0.00  0.00    -0.066 C 
ATOM      6  N   UNL     1       2.727   0.329  -1.419  0.00  0.00    +0.383 N 
ATOM      7  H   UNL     1       2.164  -0.214  -2.084  0.00  0.00    -0.081 HD
ENDROOT
BRANCH   1  14
ATOM      8  C   UNL     1       7.102  -2.907  -6.170  0.00  0.00    -0.004 C 
ATOM      9  C   UNL     1       5.682  -2.369  -5.977  0.00  0.00    +0.023 C 
ATOM     10  C   UNL     1       5.751  -0.963  -5.372  0.00  0.00    +0.108 C 
ATOM     11  N   UNL     1       6.549  -1.018  -4.139  0.00  0.00    -0.301 N 
ATOM     12  C   UNL     1       7.898  -1.595  -4.196  0.00  0.00    +0.108 C 
ATOM     13  C   UNL     1       7.803  -2.999  -4.813  0.00  0.00    +0.023 C 
ATOM     14  C   UNL     1       6.054  -0.541  -2.980  0.00  0.00    +0.217 C 
ATOM     15  O   UNL     1       6.755  -0.505  -1.991  0.00  0.00    -0.275 OA
BRANCH   8  16
ATOM     16  C   UNL     1       7.038  -4.297  -6.806  0.00  0.00    +0.038 C 
BRANCH  16  20
ATOM     17  C   UNL     1      10.997  -5.653  -7.666  0.00  0.00    +0.000 A 
ATOM     18  C   UNL     1      10.421  -5.933  -6.441  0.00  0.00    +0.000 A 
ATOM     19  C   UNL     1       9.140  -5.495  -6.163  0.00  0.00    +0.003 A 
ATOM     20  C   UNL     1       8.435  -4.775  -7.109  0.00  0.00    -0.047 A 
ATOM     21  C   UNL     1       9.009  -4.500  -8.336  0.00  0.00    +0.003 A 
ATOM     22  C   UNL     1      10.291  -4.935  -8.613  0.00  0.00    +0.000 A 
ENDBRANCH  16  20
ENDBRANCH   8  16
ENDBRANCH   1  14
BRANCH   6  23
ATOM     23  C   UNL     1       2.179   0.141  -0.060  0.00  0.00    -0.043 C 
BRANCH  23  24
ATOM     24  C   UNL     1       0.866   0.872   0.049  0.00  0.00    -0.062 A 
ATOM     25  C   UNL     1      -0.312   0.234  -0.292  0.00  0.00    +0.002 A 
ATOM     26  C   UNL     1      -1.515   0.906  -0.198  0.00  0.00    +0.002 A 
ATOM     27  C   UNL     1      -1.543   2.215   0.248  0.00  0.00    +0.033 A 
ATOM     28  C   UNL     1      -0.365   2.853   0.590  0.00  0.00    +0.126 A 
ATOM     29  C   UNL     1       0.839   2.182   0.490  0.00  0.00    +0.034 A 
BRANCH  28  30
ATOM     30  N   UNL     1      -0.394   4.256   1.062  0.00  0.00    +0.056 N 
ATOM     31  O   UNL     1       0.643   4.818   1.363  0.00  0.00    -0.126 OA
ATOM     32  O   UNL     1      -1.455   4.847   1.150  0.00  0.00    -0.126 OA
ENDBRANCH  28  30
ENDBRANCH  23  24
ENDBRANCH   6  23
TORSDOF 6
