REMARK  Name = ZINC64056362
REMARK  8 active torsions:
REMARK  status: ('A' for Active; 'I' for Inactive)
REMARK    1  A    between atoms: C_1  and  C_2
REMARK    2  A    between atoms: C_3  and  C_28
REMARK    3  A    between atoms: C_7  and  S_11
REMARK    4  A    between atoms: S_11  and  C_12
REMARK    5  A    between atoms: C_12  and  C_14
REMARK    6  A    between atoms: C_12  and  C_15
REMARK    7  A    between atoms: C_20  and  C_27
REMARK    8  A    between atoms: C_21  and  C_26
REMARK                            x       y       z     vdW  Elec       q    Type
REMARK                         _______ _______ _______ _____ _____    ______ ____
ROOT
ATOM      1  C   UNL     1       0.436   1.565   4.713  0.00  0.00    +0.115 C 
ATOM      2  C   UNL     1      -0.805   0.967   5.379  0.00  0.00    +0.027 C 
ENDROOT
BRANCH   1   3
ATOM      3  C   UNL     1       0.581   3.008   5.124  0.00  0.00    +0.137 C 
ATOM      4  N   UNL     1       1.200   3.275   6.249  0.00  0.00    -0.160 NA
ATOM      5  C   UNL     1       1.379   4.521   6.699  0.00  0.00    +0.271 C 
ATOM      6  O   UNL     1       1.960   4.734   7.750  0.00  0.00    -0.268 OA
ATOM      7  C   UNL     1       0.842   5.648   5.871  0.00  0.00    +0.071 C 
ATOM      8  C   UNL     1       0.903   6.965   6.119  0.00  0.00    -0.045 C 
ATOM      9  C   UNL     1       0.277   7.900   5.110  0.00  0.00    +0.076 C 
ATOM     10  S   UNL     1      -0.361   6.720   3.853  0.00  0.00    -0.098 S 
ATOM     11  C   UNL     1       0.167   5.214   4.629  0.00  0.00    +0.111 C 
ATOM     12  N   UNL     1       0.081   3.940   4.328  0.00  0.00    -0.226 NA
ATOM     13  C   UNL     1       1.327   8.833   4.503  0.00  0.00    +0.024 C 
ATOM     14  C   UNL     1       1.573   7.493   7.361  0.00  0.00    +0.041 C 
ENDBRANCH   1   3
BRANCH   1  15
ATOM     15  S   UNL     1       0.264   1.464   2.910  0.00  0.00    -0.094 S 
BRANCH  15  22
ATOM     16  C   UNL     1      -0.018   1.503   0.010  0.00  0.00    +0.045 C 
ATOM     17  C   UNL     1       0.002  -0.004   0.002  0.00  0.00    -0.029 A 
ATOM     18  C   UNL     1      -0.095  -0.678  -1.154  0.00  0.00    -0.008 A 
ATOM     19  S   UNL     1      -0.024  -2.386  -0.648  0.00  0.00    -0.074 S 
ATOM     20  C   UNL     1       0.134  -2.149   1.102  0.00  0.00    +0.113 A 
ATOM     21  C   UNL     1       0.133  -0.744   1.245  0.00  0.00    +0.043 A 
ATOM     22  C   UNL     1       0.256  -0.266   2.579  0.00  0.00    +0.109 A 
ATOM     23  N   UNL     1       0.363  -1.139   3.570  0.00  0.00    -0.229 NA
ATOM     24  C   UNL     1       0.362  -2.443   3.361  0.00  0.00    +0.223 A 
ATOM     25  N   UNL     1       0.241  -2.946   2.147  0.00  0.00    -0.228 NA
ATOM     26  C   UNL     1      -0.232  -0.123  -2.548  0.00  0.00    +0.052 C 
ENDBRANCH  15  22
ENDBRANCH   1  15
TORSDOF 3
