REMARK  Name = ZINC12049045
REMARK  9 active torsions:
REMARK  status: ('A' for Active; 'I' for Inactive)
REMARK    1  A    between atoms: C_1  and  O_2
REMARK    2  A    between atoms: O_2  and  C_3
REMARK    3  A    between atoms: C_7  and  C_11
REMARK    4  A    between atoms: C_8  and  O_9
REMARK    5  A    between atoms: O_9  and  C_10
REMARK    6  A    between atoms: N_13  and  C_14
REMARK    7  A    between atoms: N_13  and  C_30
REMARK    8  A    between atoms: C_14  and  C_15
REMARK    9  A    between atoms: C_23  and  N_24
REMARK                            x       y       z     vdW  Elec       q    Type
REMARK                         _______ _______ _______ _____ _____    ______ ____
ROOT
ATOM      1  C   UNL     1       0.081   5.974  -0.009  0.00  0.00    +0.147 C 
ENDROOT
BRANCH   1   2
ATOM      2  C   UNL     1      -0.015   6.489  -1.422  0.00  0.00    +0.008 A 
ATOM      3  C   UNL     1       1.119   6.775  -2.122  0.00  0.00    +0.018 A 
ATOM      4  C   UNL     1       0.986   7.249  -3.443  0.00  0.00    -0.001 A 
ATOM      5  C   UNL     1       2.112   7.557  -4.223  0.00  0.00    +0.011 A 
ATOM      6  C   UNL     1       1.947   8.017  -5.494  0.00  0.00    +0.021 A 
ATOM      7  C   UNL     1       0.672   8.187  -6.032  0.00  0.00    +0.043 A 
ATOM      8  C   UNL     1      -0.442   7.898  -5.302  0.00  0.00    +0.046 A 
ATOM      9  C   UNL     1      -0.310   7.420  -3.987  0.00  0.00    +0.049 A 
ATOM     10  C   UNL     1      -1.270   6.680  -2.017  0.00  0.00    +0.104 A 
ATOM     11 CL   UNL     1       0.501   8.777  -7.655  0.00  0.00    -0.083 Cl
ATOM     12  N   UNL     1      -1.458   7.138  -3.280  0.00  0.00    -0.343 N 
ATOM     13  H   UNL     1      -2.394   7.265  -3.682  0.00  0.00    +0.167 HD
BRANCH  10  14
ATOM     14  N   UNL     1      -2.415   6.390  -1.290  0.00  0.00    -0.316 N 
ATOM     15  C   UNL     1      -2.952   7.609  -0.632  0.00  0.00    +0.106 C 
ATOM     16  C   UNL     1      -4.427   7.235  -0.343  0.00  0.00    +0.020 C 
ATOM     17  C   UNL     1      -4.824   6.408  -1.587  0.00  0.00    +0.020 C 
ATOM     18  C   UNL     1      -3.494   5.900  -2.174  0.00  0.00    +0.106 C 
ENDBRANCH  10  14
ENDBRANCH   1   2
BRANCH   1  21
ATOM     19  C   UNL     1       1.107   3.827   0.512  0.00  0.00    +0.251 C 
ATOM     20  O   UNL     1       1.166   2.619   0.387  0.00  0.00    -0.270 OA
ATOM     21  N   UNL     1       0.074   4.510  -0.021  0.00  0.00    -0.290 N 
BRANCH  19  26
ATOM     22  C   UNL     1       3.688   4.693   3.114  0.00  0.00    +0.162 A 
ATOM     23  C   UNL     1       4.156   5.902   2.627  0.00  0.00    +0.049 A 
ATOM     24  C   UNL     1       3.636   6.434   1.459  0.00  0.00    +0.005 A 
ATOM     25  C   UNL     1       2.648   5.766   0.769  0.00  0.00    +0.017 A 
ATOM     26  C   UNL     1       2.165   4.545   1.248  0.00  0.00    +0.082 A 
ATOM     27  C   UNL     1       2.690   4.007   2.429  0.00  0.00    +0.174 A 
BRANCH  22  29
ATOM     28  C   UNL     1       5.226   4.934   4.912  0.00  0.00    +0.277 C 
ATOM     29  O   UNL     1       4.204   4.177   4.261  0.00  0.00    -0.491 OA
ENDBRANCH  22  29
BRANCH  27  30
ATOM     30  O   UNL     1       2.229   2.821   2.902  0.00  0.00    -0.491 OA
ATOM     31  C   UNL     1       1.122   2.870   3.804  0.00  0.00    +0.277 C 
ENDBRANCH  27  30
ENDBRANCH  19  26
BRANCH  21  32
ATOM     32  C   UNL     1      -1.054   3.787  -0.613  0.00  0.00    +0.077 C 
ATOM     33  C   UNL     1      -1.202   2.303  -0.269  0.00  0.00    +0.024 C 
ATOM     34  C   UNL     1      -0.738   2.723  -1.666  0.00  0.00    +0.024 C 
ENDBRANCH  21  32
ENDBRANCH   1  21
TORSDOF 7
