REMARK  Name = ZINC43141955
REMARK  5 active torsions:
REMARK  status: ('A' for Active; 'I' for Inactive)
REMARK    1  A    between atoms: C_1  and  C_2
REMARK    2  A    between atoms: C_2  and  C_3
REMARK    3  A    between atoms: N_12  and  C_13
REMARK    4  A    between atoms: C_16  and  C_20
REMARK    5  A    between atoms: C_18  and  C_19
REMARK                            x       y       z     vdW  Elec       q    Type
REMARK                         _______ _______ _______ _____ _____    ______ ____
ROOT
ATOM      1  C   UNL     1      -1.676  -0.662   0.546  0.00  0.00    +0.006 C 
ATOM      2  C   UNL     1      -1.581  -2.183   0.406  0.00  0.00    +0.006 C 
ATOM      3  C   UNL     1      -2.979  -2.763   0.177  0.00  0.00    +0.019 C 
ATOM      4  C   UNL     1      -3.557  -2.194  -1.122  0.00  0.00    +0.109 C 
ATOM      5  N   UNL     1      -3.517  -0.727  -1.054  0.00  0.00    -0.285 N 
ATOM      6  C   UNL     1      -2.240  -0.068  -0.749  0.00  0.00    +0.112 C 
ATOM      7  C   UNL     1      -4.631   0.001  -1.268  0.00  0.00    +0.306 C 
ATOM      8  O   UNL     1      -4.607   1.208  -1.118  0.00  0.00    -0.252 OA
ATOM      9  N   UNL     1      -5.772  -0.608  -1.648  0.00  0.00    -0.269 N 
ATOM     10  H   UNL     1      -5.809  -1.576  -1.704  0.00  0.00    +0.156 HD
ENDROOT
BRANCH   9  11
ATOM     11  C   UNL     1      -6.902   0.155  -1.961  0.00  0.00    +0.038 A 
ATOM     12  C   UNL     1      -6.771   1.508  -2.249  0.00  0.00    +0.024 A 
ATOM     13  C   UNL     1      -7.888   2.258  -2.558  0.00  0.00    +0.005 A 
ATOM     14  C   UNL     1      -9.137   1.664  -2.581  0.00  0.00    -0.050 A 
ATOM     15  C   UNL     1      -9.271   0.319  -2.295  0.00  0.00    +0.008 A 
ATOM     16  C   UNL     1      -8.157  -0.439  -1.991  0.00  0.00    -0.029 A 
ATOM     17  C   UNL     1      -8.303  -1.907  -1.685  0.00  0.00    +0.045 C 
ATOM     18  C   UNL     1     -10.354   2.486  -2.918  0.00  0.00    +0.044 C 
ENDBRANCH   9  11
BRANCH   1  20
ATOM     19  C   UNL     1      -0.394   1.418   1.068  0.00  0.00    +0.004 C 
ATOM     20  C   UNL     1      -0.283  -0.085   0.807  0.00  0.00    +0.002 C 
ENDBRANCH   1  20
TORSDOF 2
