REMARK  Name = ZINC32447316
REMARK  9 active torsions:
REMARK  status: ('A' for Active; 'I' for Inactive)
REMARK    1  A    between atoms: C_1  and  C_2
REMARK    2  A    between atoms: C_2  and  C_3
REMARK    3  A    between atoms: C_3  and  C_5
REMARK    4  A    between atoms: C_3  and  N_25
REMARK    5  A    between atoms: C_5  and  N_6
REMARK    6  A    between atoms: C_7  and  C_9
REMARK    7  A    between atoms: C_9  and  N_10
REMARK    8  A    between atoms: C_13  and  C_17
REMARK    9  A    between atoms: C_13  and  C_18
REMARK                            x       y       z     vdW  Elec       q    Type
REMARK                         _______ _______ _______ _____ _____    ______ ____
ROOT
ATOM      1  N   UNL     1       1.250  -0.792  -1.370  0.00  0.00    -0.316 N 
ATOM      2  C   UNL     1       1.552  -2.097  -1.223  0.00  0.00    +0.231 C 
ATOM      3  O   UNL     1       1.127  -2.910  -2.017  0.00  0.00    -0.274 OA
ATOM      4  H   UNL     1       1.635  -0.054  -0.650  0.00  0.00    +0.149 HD
ENDROOT
BRANCH   1   5
ATOM      5  C   UNL     1       0.410  -0.355  -2.488  0.00  0.00    +0.089 C 
BRANCH   5   6
ATOM      6  C   UNL     1       0.321   1.173  -2.492  0.00  0.00    -0.051 C 
BRANCH   6   7
ATOM      7  N   UNL     1      -0.238   1.634  -1.214  0.00  0.00    +0.385 N 
ATOM      8  C   UNL     1      -1.704   1.504  -1.202  0.00  0.00    -0.073 C 
ATOM      9  C   UNL     1      -2.191   1.640   0.241  0.00  0.00    +0.017 C 
ATOM     10  C   UNL     1      -1.599   2.876   0.869  0.00  0.00    -0.048 A 
ATOM     11  C   UNL     1      -2.176   3.369   2.029  0.00  0.00    +0.004 A 
ATOM     12  C   UNL     1      -1.663   4.497   2.639  0.00  0.00    +0.000 A 
ATOM     13  C   UNL     1      -0.568   5.138   2.089  0.00  0.00    +0.000 A 
ATOM     14  C   UNL     1       0.006   4.648   0.933  0.00  0.00    +0.002 A 
ATOM     15  C   UNL     1      -0.509   3.511   0.321  0.00  0.00    -0.061 A 
ATOM     16  C   UNL     1       0.150   3.022  -0.942  0.00  0.00    -0.042 C 
ATOM     17  H   UNL     1       0.178   0.998  -0.420  0.00  0.00    -0.081 HD
ENDBRANCH   6   7
BRANCH   6  19
ATOM     18  C   UNL     1      -0.562   3.155  -3.731  0.00  0.00    +0.002 C 
ATOM     19  C   UNL     1      -0.584   1.627  -3.639  0.00  0.00    -0.017 C 
ENDBRANCH   6  19
ENDBRANCH   5   6
ENDBRANCH   1   5
BRANCH   2  20
ATOM     20  C   UNL     1       2.416  -2.547  -0.074  0.00  0.00    +0.213 C 
BRANCH  20  21
ATOM     21  N   UNL     1       2.595  -3.999  -0.136  0.00  0.00    -0.215 N 
ATOM     22  C   UNL     1       3.597  -4.611  -0.798  0.00  0.00    +0.251 C 
ATOM     23  O   UNL     1       4.486  -4.083  -1.431  0.00  0.00    -0.272 OA
ATOM     24  C   UNL     1       3.381  -6.096  -0.587  0.00  0.00    +0.135 C 
ATOM     25  N   UNL     1       2.169  -6.155   0.248  0.00  0.00    -0.281 N 
ATOM     26  C   UNL     1       1.787  -4.883   0.462  0.00  0.00    +0.310 C 
ATOM     27  O   UNL     1       0.815  -4.571   1.121  0.00  0.00    -0.252 OA
ATOM     28  C   UNL     1       4.572  -6.714   0.150  0.00  0.00    +0.047 C 
ATOM     29  H   UNL     1       1.764  -7.128   0.562  0.00  0.00    +0.152 HD
BRANCH  24  30
ATOM     30  C   UNL     1       3.152  -6.791  -1.904  0.00  0.00    -0.015 A 
ATOM     31  C   UNL     1       3.731  -6.293  -3.057  0.00  0.00    +0.009 A 
ATOM     32  C   UNL     1       3.526  -6.933  -4.265  0.00  0.00    +0.039 A 
ATOM     33  C   UNL     1       2.732  -8.066  -4.322  0.00  0.00    +0.123 A 
ATOM     34  C   UNL     1       2.149  -8.560  -3.168  0.00  0.00    +0.039 A 
ATOM     35  C   UNL     1       2.360  -7.922  -1.960  0.00  0.00    +0.009 A 
ATOM     36  F   UNL     1       2.526  -8.688  -5.503  0.00  0.00    -0.205 F 
ENDBRANCH  24  30
ENDBRANCH  20  21
ENDBRANCH   2  20
TORSDOF 7
