REMARK  Name = ZINC64792794
REMARK  7 active torsions:
REMARK  status: ('A' for Active; 'I' for Inactive)
REMARK    1  A    between atoms: C_1  and  C_2
REMARK    2  A    between atoms: C_5  and  C_8
REMARK    3  A    between atoms: C_10  and  C_30
REMARK    4  A    between atoms: N_17  and  C_18
REMARK    5  A    between atoms: C_18  and  C_19
REMARK    6  A    between atoms: N_21  and  C_22
REMARK    7  A    between atoms: C_22  and  C_23
REMARK                            x       y       z     vdW  Elec       q    Type
REMARK                         _______ _______ _______ _____ _____    ______ ____
ROOT
ATOM      1  C   UNL     1       0.096  -4.223  -0.028  0.00  0.00    +0.043 C 
ATOM      2  C   UNL     1       0.003  -4.849  -1.193  0.00  0.00    +0.028 C 
ATOM      3  C   UNL     1      -0.018  -6.348  -1.328  0.00  0.00    +0.167 C 
ATOM      4  N   UNL     1      -0.206  -6.956  -0.017  0.00  0.00    -0.202 N 
ATOM      5  C   UNL     1      -0.105  -6.275   1.155  0.00  0.00    +0.243 A 
ATOM      6  N   UNL     1      -0.323  -7.125   2.117  0.00  0.00    -0.092 NA
ATOM      7  N   UNL     1      -0.559  -8.297   1.632  0.00  0.00    -0.021 NA
ATOM      8  N   UNL     1      -0.506  -8.269   0.340  0.00  0.00    -0.042 NA
ATOM      9  N   UNL     1       0.182  -4.918   1.185  0.00  0.00    -0.259 N 
ENDROOT
BRANCH   1  14
ATOM     10  C   UNL     1       0.171   1.533   0.045  0.00  0.00    +0.044 C 
ATOM     11  C   UNL     1       0.151   0.026   0.026  0.00  0.00    -0.050 A 
ATOM     12  C   UNL     1       1.021  -0.663  -0.800  0.00  0.00    +0.004 A 
ATOM     13  C   UNL     1       1.008  -2.043  -0.822  0.00  0.00    +0.010 A 
ATOM     14  C   UNL     1       0.115  -2.742  -0.009  0.00  0.00    -0.004 A 
ATOM     15  C   UNL     1      -0.759  -2.041   0.821  0.00  0.00    +0.010 A 
ATOM     16  C   UNL     1      -0.733  -0.661   0.838  0.00  0.00    +0.004 A 
ENDBRANCH   1  14
BRANCH   3  17
ATOM     17  C   UNL     1       1.289  -6.816  -1.915  0.00  0.00    -0.019 A 
ATOM     18  C   UNL     1       2.475  -6.561  -1.252  0.00  0.00    +0.006 A 
ATOM     19  C   UNL     1       3.674  -6.991  -1.790  0.00  0.00    +0.000 A 
ATOM     20  C   UNL     1       3.686  -7.676  -2.991  0.00  0.00    +0.000 A 
ATOM     21  C   UNL     1       2.500  -7.932  -3.653  0.00  0.00    +0.000 A 
ATOM     22  C   UNL     1       1.301  -7.506  -3.113  0.00  0.00    +0.006 A 
ENDBRANCH   3  17
BRANCH   9  23
ATOM     23  C   UNL     1       0.554  -4.242   2.430  0.00  0.00    +0.209 C 
BRANCH  23  24
ATOM     24  C   UNL     1      -0.692  -3.866   3.190  0.00  0.00    +0.231 C 
ATOM     25  O   UNL     1      -1.778  -4.231   2.791  0.00  0.00    -0.274 OA
ATOM     26  N   UNL     1      -0.599  -3.126   4.313  0.00  0.00    -0.310 N 
ATOM     27  H   UNL     1       0.269  -2.835   4.631  0.00  0.00    +0.149 HD
BRANCH  26  28
ATOM     28  C   UNL     1      -1.811  -2.761   5.051  0.00  0.00    +0.142 C 
BRANCH  28  29
ATOM     29  C   UNL     1      -1.436  -1.940   6.257  0.00  0.00    +0.005 A 
ATOM     30  C   UNL     1      -1.364  -2.533   7.503  0.00  0.00    +0.008 A 
ATOM     31  C   UNL     1      -1.020  -1.780   8.610  0.00  0.00    +0.000 A 
ATOM     32  C   UNL     1      -0.747  -0.431   8.472  0.00  0.00    +0.003 A 
ATOM     33  C   UNL     1      -0.817   0.164   7.227  0.00  0.00    +0.038 A 
ATOM     34  C   UNL     1      -1.157  -0.591   6.117  0.00  0.00    +0.128 A 
ATOM     35  F   UNL     1      -1.222  -0.010   4.898  0.00  0.00    -0.205 F 
ENDBRANCH  28  29
ENDBRANCH  26  28
ENDBRANCH  23  24
ENDBRANCH   9  23
TORSDOF 6
