REMARK  Name = ZINC36167148
REMARK  6 active torsions:
REMARK  status: ('A' for Active; 'I' for Inactive)
REMARK    1  A    between atoms: C_1  and  C_2
REMARK    2  A    between atoms: N_11  and  C_12
REMARK    3  A    between atoms: C_12  and  C_13
REMARK    4  A    between atoms: C_25  and  C_27
REMARK    5  A    between atoms: C_30  and  O_33
REMARK    6  A    between atoms: O_33  and  C_34
REMARK                            x       y       z     vdW  Elec       q    Type
REMARK                         _______ _______ _______ _____ _____    ______ ____
ROOT
ATOM      1  C   UNL     1       0.161   1.572   0.292  0.00  0.00    +0.044 C 
ATOM      2  C   UNL     1       0.124   0.068   0.194  0.00  0.00    -0.050 A 
ATOM      3  C   UNL     1       0.102  -0.545  -1.046  0.00  0.00    +0.005 A 
ATOM      4  C   UNL     1       0.068  -1.920  -1.141  0.00  0.00    +0.024 A 
ATOM      5  C   UNL     1       0.055  -2.703   0.010  0.00  0.00    +0.043 A 
ATOM      6  C   UNL     1       0.078  -2.075   1.253  0.00  0.00    +0.017 A 
ATOM      7  C   UNL     1       0.117  -0.702   1.343  0.00  0.00    +0.012 A 
ATOM      8  C   UNL     1       0.060  -3.181   2.265  0.00  0.00    +0.188 C 
ATOM      9  C   UNL     1       0.020  -4.453   1.469  0.00  0.00    +0.259 C 
ATOM     10  O   UNL     1      -0.008  -5.583   1.908  0.00  0.00    -0.272 OA
ATOM     11  N   UNL     1       0.019  -4.091   0.170  0.00  0.00    -0.264 N 
ATOM     12  N   UNL     1      -1.044  -3.070   3.214  0.00  0.00    -0.270 N 
ATOM     13  C   UNL     1      -0.663  -2.819   4.606  0.00  0.00    +0.121 C 
ATOM     14  C   UNL     1       0.717  -3.466   4.928  0.00  0.00    +0.091 C 
ATOM     15  S   UNL     1       1.562  -3.124   3.317  0.00  0.00    -0.120 S 
ATOM     16  C   UNL     1      -2.332  -3.189   2.834  0.00  0.00    +0.248 C 
ATOM     17  O   UNL     1      -2.608  -3.322   1.657  0.00  0.00    -0.270 OA
ENDROOT
BRANCH  16  18
ATOM     18  C   UNL     1      -3.406  -3.159   3.845  0.00  0.00    +0.037 A 
ATOM     19  C   UNL     1      -3.321  -2.284   4.931  0.00  0.00    +0.016 A 
ATOM     20  C   UNL     1      -4.326  -2.258   5.873  0.00  0.00    +0.046 A 
ATOM     21  C   UNL     1      -5.423  -3.102   5.744  0.00  0.00    +0.120 A 
ATOM     22  C   UNL     1      -5.511  -3.974   4.665  0.00  0.00    +0.046 A 
ATOM     23  C   UNL     1      -4.514  -4.001   3.716  0.00  0.00    +0.016 A 
BRANCH  21  24
ATOM     24  O   UNL     1      -6.411  -3.074   6.674  0.00  0.00    -0.495 OA
ATOM     25  C   UNL     1      -7.510  -3.967   6.481  0.00  0.00    +0.277 C 
ENDBRANCH  21  24
ENDBRANCH  16  18
BRANCH  11  26
ATOM     26  C   UNL     1      -0.015  -5.042  -0.944  0.00  0.00    +0.149 C 
BRANCH  26  27
ATOM     27  C   UNL     1       1.394  -5.405  -1.337  0.00  0.00    -0.027 A 
ATOM     28  C   UNL     1       2.059  -4.658  -2.292  0.00  0.00    +0.008 A 
ATOM     29  C   UNL     1       3.351  -4.989  -2.654  0.00  0.00    +0.041 A 
ATOM     30  C   UNL     1       3.980  -6.070  -2.061  0.00  0.00    +0.158 A 
ATOM     31  C   UNL     1       3.314  -6.819  -1.104  0.00  0.00    +0.159 A 
ATOM     32  C   UNL     1       2.022  -6.482  -0.740  0.00  0.00    +0.046 A 
ATOM     33  F   UNL     1       3.926  -7.875  -0.525  0.00  0.00    -0.202 F 
ATOM     34  F   UNL     1       5.243  -6.395  -2.416  0.00  0.00    -0.202 F 
ENDBRANCH  26  27
ENDBRANCH  11  26
TORSDOF 4
