REMARK  Name = ZINC16047178
REMARK  7 active torsions:
REMARK  status: ('A' for Active; 'I' for Inactive)
REMARK    1  A    between atoms: C_1  and  C_2
REMARK    2  A    between atoms: C_8  and  N_10
REMARK    3  A    between atoms: C_11  and  C_13
REMARK    4  A    between atoms: C_13  and  C_15
REMARK    5  A    between atoms: C_13  and  N_16
REMARK    6  A    between atoms: C_19  and  C_24
REMARK    7  A    between atoms: C_24  and  C_25
REMARK                            x       y       z     vdW  Elec       q    Type
REMARK                         _______ _______ _______ _____ _____    ______ ____
ROOT
ATOM      1  N   UNL     1       2.861  -2.694  -2.019  0.00  0.00    -0.213 N 
ATOM      2  C   UNL     1       3.822  -1.888  -1.516  0.00  0.00    +0.244 C 
ATOM      3  O   UNL     1       4.942  -2.204  -1.175  0.00  0.00    -0.273 OA
ATOM      4  C   UNL     1       3.206  -0.504  -1.467  0.00  0.00    +0.165 C 
ATOM      5  N   UNL     1       1.847  -0.708  -1.998  0.00  0.00    -0.287 N 
ATOM      6  C   UNL     1       1.740  -2.016  -2.292  0.00  0.00    +0.310 C 
ATOM      7  O   UNL     1       0.738  -2.525  -2.753  0.00  0.00    -0.252 OA
ATOM      8  H   UNL     1       1.163  -0.030  -2.114  0.00  0.00    +0.151 HD
ENDROOT
BRANCH   1   9
ATOM      9  C   UNL     1       3.027  -4.133  -2.240  0.00  0.00    +0.168 C 
ATOM     10  C   UNL     1       2.828  -4.447  -3.724  0.00  0.00    +0.038 C 
BRANCH   9  12
ATOM     11  N   UNL     1       1.972  -6.234  -1.472  0.00  0.00    -0.311 N 
ATOM     12  C   UNL     1       2.008  -4.887  -1.426  0.00  0.00    +0.234 C 
ATOM     13  O   UNL     1       1.221  -4.283  -0.729  0.00  0.00    -0.274 OA
ATOM     14  H   UNL     1       2.601  -6.717  -2.029  0.00  0.00    +0.149 HD
BRANCH  11  21
ATOM     15  C   UNL     1       0.179  -8.117  -2.748  0.00  0.00    +0.009 C 
ATOM     16  C   UNL     1       0.714  -8.326  -1.330  0.00  0.00    +0.006 C 
ATOM     17  C   UNL     1      -0.321  -9.092  -0.503  0.00  0.00    +0.005 C 
ATOM     18  C   UNL     1       0.213  -9.301   0.915  0.00  0.00    +0.000 C 
ATOM     19  C   UNL     1       0.480  -7.942   1.565  0.00  0.00    +0.002 C 
ATOM     20  C   UNL     1       1.515  -7.176   0.738  0.00  0.00    +0.022 C 
ATOM     21  C   UNL     1       0.981  -6.967  -0.680  0.00  0.00    +0.076 C 
ENDBRANCH  11  21
ENDBRANCH   9  12
ENDBRANCH   1   9
BRANCH   4  22
ATOM     22  C   UNL     1       3.150   0.009  -0.027  0.00  0.00    +0.069 C 
BRANCH  22  23
ATOM     23  C   UNL     1       2.600   1.412  -0.015  0.00  0.00    -0.020 A 
ATOM     24  C   UNL     1       3.312   2.549  -0.015  0.00  0.00    +0.087 A 
ATOM     25  N   UNL     1       2.470   3.628  -0.002  0.00  0.00    -0.360 N 
ATOM     26  H   UNL     1       2.753   4.556   0.001  0.00  0.00    +0.165 HD
ATOM     27  C   UNL     1       1.161   3.199   0.008  0.00  0.00    +0.047 A 
ATOM     28  C   UNL     1       1.185   1.793   0.000  0.00  0.00    +0.003 A 
ATOM     29  C   UNL     1      -0.013   1.076   0.008  0.00  0.00    +0.010 A 
ATOM     30  C   UNL     1      -1.204   1.745   0.017  0.00  0.00    +0.001 A 
ATOM     31  C   UNL     1      -1.233   3.133   0.031  0.00  0.00    +0.002 A 
ATOM     32  C   UNL     1      -0.062   3.860   0.024  0.00  0.00    +0.026 A 
ENDBRANCH  22  23
ENDBRANCH   4  22
TORSDOF 5
