REMARK  Name = ZINC58819016
REMARK  8 active torsions:
REMARK  status: ('A' for Active; 'I' for Inactive)
REMARK    1  A    between atoms: C_1  and  C_2
REMARK    2  A    between atoms: C_15  and  C_17
REMARK    3  A    between atoms: C_17  and  N_18
REMARK    4  A    between atoms: N_18  and  C_19
REMARK    5  A    between atoms: C_20  and  C_22
REMARK    6  A    between atoms: C_22  and  C_24
REMARK    7  A    between atoms: C_22  and  O_25
REMARK    8  A    between atoms: O_25  and  C_26
REMARK                            x       y       z     vdW  Elec       q    Type
REMARK                         _______ _______ _______ _____ _____    ______ ____
ROOT
ATOM      1  C   UNL     1      -0.451   1.157   1.005  0.00  0.00    +0.029 C 
ATOM      2  C   UNL     1      -0.337  -0.369   0.986  0.00  0.00    +0.087 C 
ATOM      3  C   UNL     1      -1.715  -0.985   1.232  0.00  0.00    +0.118 C 
ATOM      4  C   UNL     1      -1.574  -2.436   1.610  0.00  0.00    +0.219 C 
ATOM      5  O   UNL     1      -1.836  -3.298   0.798  0.00  0.00    -0.275 OA
ATOM      6  N   UNL     1      -1.157  -2.784   2.846  0.00  0.00    -0.284 N 
ATOM      7  C   UNL     1      -0.758  -1.803   3.763  0.00  0.00    +0.055 A 
ATOM      8  C   UNL     1      -1.252  -1.797   5.057  0.00  0.00    +0.025 A 
ATOM      9  C   UNL     1      -0.826  -0.833   5.951  0.00  0.00    +0.002 A 
ATOM     10  C   UNL     1       0.093   0.124   5.559  0.00  0.00    +0.002 A 
ATOM     11  C   UNL     1       0.583   0.131   4.266  0.00  0.00    +0.025 A 
ATOM     12  C   UNL     1       0.152  -0.825   3.360  0.00  0.00    +0.058 A 
ATOM     13  N   UNL     1       0.593  -0.800   2.032  0.00  0.00    -0.265 N 
ATOM     14  C   UNL     1       1.853  -1.166   1.722  0.00  0.00    +0.237 C 
ATOM     15  O   UNL     1       2.225  -1.139   0.568  0.00  0.00    -0.274 OA
ATOM     16  H   UNL     1      -1.134  -3.719   3.102  0.00  0.00    +0.155 HD
ENDROOT
BRANCH  14  17
ATOM     17  C   UNL     1       2.798  -1.607   2.809  0.00  0.00    +0.203 C 
BRANCH  17  18
ATOM     18  N   UNL     1       4.095  -1.949   2.219  0.00  0.00    -0.293 N 
ATOM     19  C   UNL     1       5.128  -0.921   2.076  0.00  0.00    +0.132 C 
ATOM     20  C   UNL     1       4.337  -3.210   1.808  0.00  0.00    +0.256 C 
ATOM     21  O   UNL     1       3.481  -4.061   1.927  0.00  0.00    -0.272 OA
BRANCH  20  22
ATOM     22  C   UNL     1       5.671  -3.562   1.202  0.00  0.00    +0.256 C 
ATOM     23  C   UNL     1       6.768  -3.403   2.256  0.00  0.00    +0.062 C 
BRANCH  22  24
ATOM     24  O   UNL     1       5.643  -4.915   0.743  0.00  0.00    -0.478 OA
BRANCH  24  25
ATOM     25  C   UNL     1       6.505  -5.245  -0.255  0.00  0.00    +0.141 A 
ATOM     26  C   UNL     1       7.436  -4.320  -0.704  0.00  0.00    +0.047 A 
ATOM     27  C   UNL     1       8.312  -4.658  -1.717  0.00  0.00    +0.005 A 
ATOM     28  C   UNL     1       8.262  -5.918  -2.285  0.00  0.00    +0.022 A 
ATOM     29  C   UNL     1       7.334  -6.843  -1.841  0.00  0.00    +0.063 A 
ATOM     30  C   UNL     1       6.459  -6.511  -0.822  0.00  0.00    +0.101 A 
ATOM     31 CL   UNL     1       5.300  -7.675  -0.258  0.00  0.00    -0.078 Cl
ATOM     32 CL   UNL     1       7.273  -8.424  -2.557  0.00  0.00    -0.082 Cl
ENDBRANCH  24  25
ENDBRANCH  22  24
ENDBRANCH  20  22
ENDBRANCH  17  18
ENDBRANCH  14  17
TORSDOF 5
