REMARK  Name = ZINC28288901
REMARK  6 active torsions:
REMARK  status: ('A' for Active; 'I' for Inactive)
REMARK    1  A    between atoms: C_1  and  C_2
REMARK    2  A    between atoms: C_5  and  C_8
REMARK    3  A    between atoms: C_8  and  C_10
REMARK    4  A    between atoms: C_8  and  N_25
REMARK    5  A    between atoms: C_10  and  N_11
REMARK    6  A    between atoms: C_12  and  C_14
REMARK                            x       y       z     vdW  Elec       q    Type
REMARK                         _______ _______ _______ _____ _____    ______ ____
ROOT
ATOM      1  C   UNL     1      -1.172   1.701   3.224  0.00  0.00    +0.094 C 
ENDROOT
BRANCH   1   2
ATOM      2  N   UNL     1      -1.055   3.146   3.006  0.00  0.00    -0.310 N 
ATOM      3  C   UNL     1      -1.961   3.984   3.546  0.00  0.00    +0.279 C 
ATOM      4  O   UNL     1      -2.875   3.542   4.214  0.00  0.00    -0.267 OA
ATOM      5  H   UNL     1      -0.228   3.546   2.401  0.00  0.00    +0.149 HD
BRANCH   3   6
ATOM      6  C   UNL     1      -1.843   5.445   3.326  0.00  0.00    +0.193 A 
ATOM      7  C   UNL     1      -2.769   6.263   3.882  0.00  0.00    +0.103 A 
ATOM      8  C   UNL     1      -2.653   7.713   3.664  0.00  0.00    +0.193 A 
ATOM      9  O   UNL     1      -3.456   8.496   4.140  0.00  0.00    -0.287 OA
ATOM     10  C   UNL     1      -1.517   8.174   2.843  0.00  0.00    +0.064 A 
ATOM     11  C   UNL     1      -1.317   9.528   2.575  0.00  0.00    +0.015 A 
ATOM     12  C   UNL     1      -0.253   9.918   1.810  0.00  0.00    +0.001 A 
ATOM     13  C   UNL     1       0.626   8.974   1.299  0.00  0.00    +0.004 A 
ATOM     14  C   UNL     1       0.445   7.631   1.552  0.00  0.00    +0.047 A 
ATOM     15  C   UNL     1      -0.631   7.212   2.328  0.00  0.00    +0.139 A 
ATOM     16  O   UNL     1      -0.822   5.905   2.590  0.00  0.00    -0.450 OA
ENDBRANCH   3   6
ENDBRANCH   1   2
BRANCH   1  17
ATOM     17  C   UNL     1      -0.089   0.976   2.422  0.00  0.00    -0.020 C 
BRANCH  17  22
ATOM     18  C   UNL     1      -0.861  -4.733   2.872  0.00  0.00    +0.044 C 
ATOM     19  C   UNL     1      -0.660  -3.244   2.754  0.00  0.00    -0.050 A 
ATOM     20  C   UNL     1       0.524  -2.671   3.180  0.00  0.00    +0.003 A 
ATOM     21  C   UNL     1       0.709  -1.306   3.072  0.00  0.00    +0.002 A 
ATOM     22  C   UNL     1      -0.290  -0.513   2.539  0.00  0.00    -0.059 A 
ATOM     23  C   UNL     1      -1.476  -1.085   2.119  0.00  0.00    +0.002 A 
ATOM     24  C   UNL     1      -1.659  -2.452   2.222  0.00  0.00    +0.003 A 
ENDBRANCH  17  22
BRANCH  17  25
ATOM     25  N   UNL     1      -0.177   1.372   1.010  0.00  0.00    +0.385 N 
ATOM     26  C   UNL     1      -1.558   1.706   0.642  0.00  0.00    -0.078 C 
ATOM     27  C   UNL     1      -1.589   2.252  -0.787  0.00  0.00    -0.019 C 
ATOM     28  C   UNL     1      -1.028   1.196  -1.744  0.00  0.00    -0.004 C 
ATOM     29  C   UNL     1       0.395   0.831  -1.309  0.00  0.00    -0.019 C 
ATOM     30  C   UNL     1       0.368   0.326   0.135  0.00  0.00    -0.078 C 
ATOM     31  H   UNL     1       0.435   2.276   0.873  0.00  0.00    -0.081 HD
ENDBRANCH  17  25
ENDBRANCH   1  17
TORSDOF 5
