REMARK  Name = ZINC21253864
REMARK  8 active torsions:
REMARK  status: ('A' for Active; 'I' for Inactive)
REMARK    1  A    between atoms: C_1  and  C_2
REMARK    2  A    between atoms: C_5  and  N_9
REMARK    3  A    between atoms: C_6  and  C_8
REMARK    4  A    between atoms: C_13  and  S_14
REMARK    5  A    between atoms: S_14  and  C_15
REMARK    6  A    between atoms: C_15  and  C_16
REMARK    7  A    between atoms: C_18  and  O_19
REMARK    8  A    between atoms: C_28  and  C_30
REMARK                            x       y       z     vdW  Elec       q    Type
REMARK                         _______ _______ _______ _____ _____    ______ ____
ROOT
ATOM      1  C   UNL     1      -0.286  -6.287  -0.968  0.00  0.00    -0.020 A 
ATOM      2  C   UNL     1      -0.279  -6.960  -2.147  0.00  0.00    +0.092 A 
ATOM      3  C   UNL     1      -0.200  -6.248  -3.361  0.00  0.00    +0.285 A 
ATOM      4  O   UNL     1      -0.132  -4.908  -3.389  0.00  0.00    -0.425 OA
ATOM      5  C   UNL     1      -0.136  -4.178  -2.253  0.00  0.00    +0.141 A 
ATOM      6  C   UNL     1      -0.211  -4.825  -1.005  0.00  0.00    +0.022 A 
ATOM      7  C   UNL     1      -0.215  -4.073   0.175  0.00  0.00    +0.013 A 
ATOM      8  C   UNL     1      -0.140  -2.712   0.112  0.00  0.00    +0.024 A 
ATOM      9  C   UNL     1      -0.071  -2.064  -1.121  0.00  0.00    +0.037 A 
ATOM     10  C   UNL     1      -0.065  -2.794  -2.300  0.00  0.00    +0.070 A 
ATOM     11  N   UNL     1       0.000  -0.672  -1.169  0.00  0.00    -0.286 N 
ATOM     12  C   UNL     1      -0.605  -0.000  -2.168  0.00  0.00    +0.214 C 
ATOM     13  O   UNL     1      -1.141  -0.609  -3.070  0.00  0.00    -0.276 OA
ATOM     14  C   UNL     1      -0.617   1.507  -2.165  0.00  0.00    +0.109 C 
ATOM     15  H   UNL     1       0.550  -0.122  -0.391  0.00  0.00    +0.155 HD
ENDROOT
BRANCH   3  16
ATOM     16  O   UNL     1      -0.194  -6.865  -4.412  0.00  0.00    -0.480 OA
ATOM     17  H   UNL     1      -0.133  -6.323  -5.367  0.00  0.00    +0.295 HD
ENDBRANCH   3  16
BRANCH   1  18
ATOM     18  C   UNL     1      -0.370  -7.024   0.344  0.00  0.00    +0.113 C 
BRANCH  18  19
ATOM     19  S   UNL     1       1.300  -7.405   0.930  0.00  0.00    -0.083 S 
BRANCH  19  24
ATOM     20  N   UNL     1       1.818  -8.762   3.310  0.00  0.00    -0.294 N 
ATOM     21  C   UNL     1       1.097  -9.322   4.343  0.00  0.00    +0.113 A 
ATOM     22  C   UNL     1      -0.203  -9.125   4.065  0.00  0.00    +0.131 A 
ATOM     23  N   UNL     1      -0.292  -8.461   2.901  0.00  0.00    -0.230 NA
ATOM     24  C   UNL     1       0.914  -8.240   2.432  0.00  0.00    +0.174 A 
BRANCH  20  29
ATOM     25  C   UNL     1       7.471  -8.650   2.806  0.00  0.00    +0.044 C 
ATOM     26  C   UNL     1       5.970  -8.680   2.940  0.00  0.00    -0.050 A 
ATOM     27  C   UNL     1       5.298  -9.888   2.907  0.00  0.00    +0.005 A 
ATOM     28  C   UNL     1       3.922  -9.919   3.029  0.00  0.00    +0.027 A 
ATOM     29  C   UNL     1       3.215  -8.735   3.186  0.00  0.00    +0.051 A 
ATOM     30  C   UNL     1       3.891  -7.523   3.213  0.00  0.00    -0.026 A 
ATOM     31  C   UNL     1       5.267  -7.499   3.095  0.00  0.00    +0.008 A 
ATOM     32  C   UNL     1       3.126  -6.235   3.376  0.00  0.00    +0.046 C 
ENDBRANCH  20  29
ENDBRANCH  19  24
ENDBRANCH  18  19
ENDBRANCH   1  18
TORSDOF 5
