REMARK  Name = ZINC14540262
REMARK  7 active torsions:
REMARK  status: ('A' for Active; 'I' for Inactive)
REMARK    1  A    between atoms: C_1  and  O_2
REMARK    2  A    between atoms: O_2  and  C_3
REMARK    3  A    between atoms: C_3  and  C_4
REMARK    4  A    between atoms: C_4  and  N_5
REMARK    5  A    between atoms: C_13  and  N_66
REMARK    6  A    between atoms: N_24  and  C_27
REMARK    7  A    between atoms: C_27  and  C_28
REMARK                            x       y       z     vdW  Elec       q    Type
REMARK                         _______ _______ _______ _____ _____    ______ ____
ROOT
ATOM      1  N   UNL     1       0.005   0.137  -0.180  0.00  0.00    -0.222 N 
ATOM      2  C   UNL     1       1.253  -0.369  -0.266  0.00  0.00    +0.247 C 
ATOM      3  O   UNL     1       1.566  -1.535  -0.375  0.00  0.00    -0.273 OA
ATOM      4  C   UNL     1       2.177   0.824  -0.198  0.00  0.00    +0.112 C 
ATOM      5  C   UNL     1       3.003   0.933  -1.476  0.00  0.00    +0.017 C 
ATOM      6  C   UNL     1       3.948   2.133  -1.368  0.00  0.00    -0.076 C 
ATOM      7  C   UNL     1       4.031   1.932   1.047  0.00  0.00    -0.076 C 
ATOM      8  C   UNL     1       3.090   0.724   1.020  0.00  0.00    +0.017 C 
ATOM      9  N   UNL     1       1.271   1.972  -0.071  0.00  0.00    -0.267 N 
ATOM     10  C   UNL     1       0.021   1.471  -0.070  0.00  0.00    +0.312 C 
ATOM     11  O   UNL     1      -0.981   2.154   0.018  0.00  0.00    -0.252 OA
ATOM     12  N   UNL     1       4.831   1.943  -0.197  0.00  0.00    +0.382 N 
ATOM     13  H   UNL     1       5.315   1.042  -0.289  0.00  0.00    -0.081 HD
ENDROOT
BRANCH  12  14
ATOM     14  C   UNL     1       5.835   3.024  -0.141  0.00  0.00    -0.064 C 
ATOM     15  C   UNL     1       6.707   2.964  -1.401  0.00  0.00    -0.010 C 
ATOM     16  C   UNL     1       7.896   3.903  -1.210  0.00  0.00    +0.034 C 
ATOM     17  C   UNL     1       7.428   5.269  -0.780  0.00  0.00    -0.044 A 
ATOM     18  C   UNL     1       8.314   6.330  -0.918  0.00  0.00    +0.004 A 
ATOM     19  C   UNL     1       7.947   7.604  -0.537  0.00  0.00    +0.000 A 
ATOM     20  C   UNL     1       6.688   7.828  -0.013  0.00  0.00    +0.000 A 
ATOM     21  C   UNL     1       5.806   6.776   0.124  0.00  0.00    +0.004 A 
ATOM     22  C   UNL     1       6.172   5.493  -0.262  0.00  0.00    -0.046 A 
ATOM     23  C   UNL     1       5.158   4.392  -0.089  0.00  0.00    +0.020 C 
ENDBRANCH  12  14
BRANCH   1  24
ATOM     24  C   UNL     1      -1.216  -0.672  -0.206  0.00  0.00    +0.146 C 
BRANCH  24  25
ATOM     25  C   UNL     1      -1.691  -0.834  -1.651  0.00  0.00    +0.179 C 
BRANCH  25  27
ATOM     26  C   UNL     1      -1.073  -1.793  -3.759  0.00  0.00    +0.194 C 
ATOM     27  O   UNL     1      -0.724  -1.584  -2.389  0.00  0.00    -0.381 OA
ENDBRANCH  25  27
ENDBRANCH  24  25
ENDBRANCH   1  24
BRANCH   9  28
ATOM     28  C   UNL     1       1.652   3.383   0.034  0.00  0.00    +0.145 C 
BRANCH  28  29
ATOM     29  C   UNL     1       1.040   4.154  -1.107  0.00  0.00    -0.030 A 
ATOM     30  C   UNL     1       1.675   4.191  -2.335  0.00  0.00    +0.005 A 
ATOM     31  C   UNL     1       1.111   4.895  -3.383  0.00  0.00    +0.000 A 
ATOM     32  C   UNL     1      -0.081   5.570  -3.200  0.00  0.00    +0.000 A 
ATOM     33  C   UNL     1      -0.713   5.538  -1.971  0.00  0.00    +0.000 A 
ATOM     34  C   UNL     1      -0.152   4.830  -0.925  0.00  0.00    +0.005 A 
ENDBRANCH  28  29
ENDBRANCH   9  28
TORSDOF 6
