REMARK  Name = ZINC00976136
REMARK  7 active torsions:
REMARK  status: ('A' for Active; 'I' for Inactive)
REMARK    1  A    between atoms: C_4  and  N_7
REMARK    2  A    between atoms: N_7  and  C_8
REMARK    3  A    between atoms: C_14  and  C_16
REMARK    4  A    between atoms: C_16  and  S_17
REMARK    5  A    between atoms: S_17  and  C_18
REMARK    6  A    between atoms: C_21  and  C_23
REMARK    7  A    between atoms: C_27  and  O_29
REMARK                            x       y       z     vdW  Elec       q    Type
REMARK                         _______ _______ _______ _____ _____    ______ ____
ROOT
ATOM      1  N   UNL     1      -0.330  12.570   0.170  0.00  0.00    -0.240 N 
ATOM      2  C   UNL     1      -1.073  11.488  -0.136  0.00  0.00    +0.234 C 
ATOM      3  O   UNL     1      -2.283  11.572  -0.169  0.00  0.00    -0.274 OA
ENDROOT
BRANCH   1   7
ATOM      4  C   UNL     1       3.827  12.367  -0.032  0.00  0.00    +0.000 A 
ATOM      5  C   UNL     1       3.131  13.155  -0.930  0.00  0.00    +0.002 A 
ATOM      6  C   UNL     1       1.753  13.224  -0.866  0.00  0.00    +0.024 A 
ATOM      7  C   UNL     1       1.067  12.502   0.102  0.00  0.00    +0.041 A 
ATOM      8  C   UNL     1       1.770  11.717   1.006  0.00  0.00    +0.024 A 
ATOM      9  C   UNL     1       3.147  11.647   0.933  0.00  0.00    +0.002 A 
ENDBRANCH   1   7
BRANCH   1  10
ATOM     10  C   UNL     1      -0.955  13.763   0.555  0.00  0.00    +0.041 A 
ATOM     11  C   UNL     1      -1.702  14.485  -0.366  0.00  0.00    +0.024 A 
ATOM     12  C   UNL     1      -2.322  15.658   0.018  0.00  0.00    +0.002 A 
ATOM     13  C   UNL     1      -2.189  16.119   1.315  0.00  0.00    +0.000 A 
ATOM     14  C   UNL     1      -1.441  15.405   2.233  0.00  0.00    +0.002 A 
ATOM     15  C   UNL     1      -0.824  14.228   1.857  0.00  0.00    +0.024 A 
ENDBRANCH   1  10
BRANCH   2  16
ATOM     16  C   UNL     1      -0.401  10.173  -0.436  0.00  0.00    +0.175 C 
BRANCH  16  17
ATOM     17  S   UNL     1      -1.660   8.913  -0.761  0.00  0.00    -0.056 S 
BRANCH  17  18
ATOM     18  C   UNL     1      -0.625   7.521  -1.073  0.00  0.00    +0.278 A 
ATOM     19  N   UNL     1       0.688   7.508  -1.050  0.00  0.00    -0.101 NA
ATOM     20  N   UNL     1       1.109   6.323  -1.323  0.00  0.00    -0.106 NA
ATOM     21  C   UNL     1       0.083   5.534  -1.532  0.00  0.00    +0.249 A 
ATOM     22  O   UNL     1      -1.036   6.277  -1.383  0.00  0.00    -0.411 OA
BRANCH  21  23
ATOM     23  C   UNL     1       0.141   4.097  -1.873  0.00  0.00    +0.042 A 
ATOM     24  C   UNL     1      -1.039   3.376  -2.069  0.00  0.00    +0.013 A 
ATOM     25  C   UNL     1      -0.982   2.036  -2.392  0.00  0.00    +0.004 A 
ATOM     26  C   UNL     1       0.241   1.401  -2.513  0.00  0.00    +0.045 A 
ATOM     27  C   UNL     1       1.419   2.110  -2.320  0.00  0.00    +0.118 A 
ATOM     28  C   UNL     1       1.373   3.456  -2.000  0.00  0.00    +0.058 A 
BRANCH  27  29
ATOM     29  O   UNL     1       2.618   1.482  -2.445  0.00  0.00    -0.507 OA
ATOM     30  H   UNL     1       2.982   1.505  -3.341  0.00  0.00    +0.292 HD
ENDBRANCH  27  29
ENDBRANCH  21  23
ENDBRANCH  17  18
ENDBRANCH  16  17
ENDBRANCH   2  16
TORSDOF 7
