REMARK  Name = ZINC02709086
REMARK  7 active torsions:
REMARK  status: ('A' for Active; 'I' for Inactive)
REMARK    1  A    between atoms: C_1  and  C_2
REMARK    2  A    between atoms: C_5  and  S_8
REMARK    3  A    between atoms: S_8  and  C_11
REMARK    4  A    between atoms: C_12  and  S_18
REMARK    5  A    between atoms: N_16  and  C_17
REMARK    6  A    between atoms: S_18  and  C_21
REMARK    7  A    between atoms: C_24  and  C_27
REMARK                            x       y       z     vdW  Elec       q    Type
REMARK                         _______ _______ _______ _____ _____    ______ ____
ROOT
ATOM      1  C   UNL     1       0.754   3.444   0.001  0.00  0.00    +0.198 A 
ATOM      2  C   UNL     1      -0.527   3.815   0.079  0.00  0.00    +0.178 A 
ATOM      3  S   UNL     1      -1.365   2.240   0.062  0.00  0.00    -0.006 S 
ATOM      4  C   UNL     1       0.033   1.217  -0.036  0.00  0.00    +0.294 A 
ATOM      5  O   UNL     1       0.089   0.001  -0.079  0.00  0.00    -0.259 OA
ATOM      6  N   UNL     1       1.045   2.114  -0.058  0.00  0.00    -0.289 N 
ATOM      7  C   UNL     1       2.436   1.663  -0.144  0.00  0.00    +0.154 C 
ENDROOT
BRANCH   1   8
ATOM      8  S   UNL     1       2.040   4.649  -0.025  0.00  0.00    +0.043 S 
ATOM      9  O   UNL     1       3.044   4.152  -0.900  0.00  0.00    -0.163 OA
ATOM     10  O   UNL     1       1.412   5.908  -0.222  0.00  0.00    -0.163 OA
BRANCH   8  15
ATOM     11  C   UNL     1       4.472   4.779   5.495  0.00  0.00    +0.044 C 
ATOM     12  C   UNL     1       3.865   4.747   4.116  0.00  0.00    -0.050 A 
ATOM     13  C   UNL     1       4.370   3.888   3.158  0.00  0.00    +0.005 A 
ATOM     14  C   UNL     1       3.813   3.858   1.894  0.00  0.00    +0.028 A 
ATOM     15  C   UNL     1       2.750   4.687   1.587  0.00  0.00    +0.095 A 
ATOM     16  C   UNL     1       2.248   5.550   2.543  0.00  0.00    +0.028 A 
ATOM     17  C   UNL     1       2.803   5.577   3.809  0.00  0.00    +0.005 A 
ENDBRANCH   8  15
ENDBRANCH   1   8
BRANCH   2  18
ATOM     18  S   UNL     1      -1.211   5.436   0.168  0.00  0.00    +0.035 S 
ATOM     19  O   UNL     1      -0.712   6.023   1.362  0.00  0.00    -0.164 OA
ATOM     20  O   UNL     1      -1.018   6.029  -1.110  0.00  0.00    -0.164 OA
BRANCH  18  21
ATOM     21  C   UNL     1      -2.950   5.257   0.383  0.00  0.00    +0.094 A 
ATOM     22  C   UNL     1      -3.780   5.195  -0.721  0.00  0.00    +0.027 A 
ATOM     23  C   UNL     1      -5.145   5.050  -0.552  0.00  0.00    +0.005 A 
ATOM     24  C   UNL     1      -5.680   4.976   0.720  0.00  0.00    -0.050 A 
ATOM     25  C   UNL     1      -4.850   5.043   1.824  0.00  0.00    +0.005 A 
ATOM     26  C   UNL     1      -3.486   5.184   1.655  0.00  0.00    +0.027 A 
ATOM     27  C   UNL     1      -7.168   4.822   0.904  0.00  0.00    +0.044 C 
ENDBRANCH  18  21
ENDBRANCH   2  18
TORSDOF 4
