REMARK  Name = ZINC09410669
REMARK  9 active torsions:
REMARK  status: ('A' for Active; 'I' for Inactive)
REMARK    1  A    between atoms: C_1  and  C_2
REMARK    2  A    between atoms: C_2  and  C_32
REMARK    3  A    between atoms: C_7  and  O_31
REMARK    4  A    between atoms: C_9  and  O_13
REMARK    5  A    between atoms: O_13  and  C_14
REMARK    6  A    between atoms: C_14  and  C_15
REMARK    7  A    between atoms: N_17  and  C_18
REMARK    8  A    between atoms: C_18  and  C_19
REMARK    9  A    between atoms: C_19  and  C_20
REMARK                            x       y       z     vdW  Elec       q    Type
REMARK                         _______ _______ _______ _____ _____    ______ ____
ROOT
ATOM      1  C   UNL     1      -0.013   1.086   0.008  0.00  0.00    +0.324 C 
ENDROOT
BRANCH   1   2
ATOM      2  C   UNL     1      -0.742   1.585  -1.213  0.00  0.00    +0.251 C 
ATOM      3  O   UNL     1      -1.736   2.268  -1.088  0.00  0.00    -0.272 OA
ATOM      4  N   UNL     1      -0.288   1.272  -2.443  0.00  0.00    -0.312 N 
ATOM      5  H   UNL     1       0.507   0.726  -2.543  0.00  0.00    +0.149 HD
BRANCH   4   6
ATOM      6  C   UNL     1      -0.997   1.758  -3.630  0.00  0.00    +0.109 C 
BRANCH   6   7
ATOM      7  C   UNL     1      -0.281   1.264  -4.889  0.00  0.00    +0.056 C 
BRANCH   7   8
ATOM      8  C   UNL     1      -1.010   1.763  -6.110  0.00  0.00    -0.021 A 
ATOM      9  C   UNL     1      -1.942   1.099  -6.810  0.00  0.00    +0.087 A 
ATOM     10  N   UNL     1      -2.380   1.869  -7.853  0.00  0.00    -0.360 N 
ATOM     11  H   UNL     1      -3.053   1.603  -8.499  0.00  0.00    +0.165 HD
ATOM     12  C   UNL     1      -1.722   3.080  -7.848  0.00  0.00    +0.047 A 
ATOM     13  C   UNL     1      -0.840   3.068  -6.753  0.00  0.00    +0.006 A 
ATOM     14  C   UNL     1      -0.028   4.176  -6.500  0.00  0.00    +0.048 A 
ATOM     15  C   UNL     1      -0.104   5.279  -7.322  0.00  0.00    +0.124 A 
ATOM     16  C   UNL     1      -0.981   5.291  -8.401  0.00  0.00    +0.040 A 
ATOM     17  C   UNL     1      -1.784   4.204  -8.665  0.00  0.00    +0.029 A 
ATOM     18  F   UNL     1       0.676   6.355  -7.077  0.00  0.00    -0.205 F 
ENDBRANCH   7   8
ENDBRANCH   6   7
ENDBRANCH   4   6
ENDBRANCH   1   2
BRANCH   1  19
ATOM     19  O   UNL     1      -0.682   1.547   1.184  0.00  0.00    -0.483 OA
BRANCH  19  28
ATOM     20  C   UNL     1      -1.227  -0.468   7.007  0.00  0.00    +0.056 C 
ATOM     21  C   UNL     1      -0.579   0.913   7.124  0.00  0.00    +0.112 C 
ATOM     22  C   UNL     1       0.933   0.753   7.335  0.00  0.00    +0.127 C 
ATOM     23  C   UNL     1       1.484   0.036   6.116  0.00  0.00    +0.174 C 
ATOM     24  O   UNL     1       2.337  -0.823   6.212  0.00  0.00    -0.292 OA
ATOM     25  C   UNL     1       0.932   0.433   4.816  0.00  0.00    +0.101 A 
ATOM     26  C   UNL     1       1.543   0.018   3.622  0.00  0.00    +0.134 A 
ATOM     27  C   UNL     1       0.996   0.396   2.409  0.00  0.00    +0.092 A 
ATOM     28  C   UNL     1      -0.150   1.183   2.378  0.00  0.00    +0.128 A 
ATOM     29  C   UNL     1      -0.752   1.605   3.556  0.00  0.00    +0.092 A 
ATOM     30  C   UNL     1      -0.223   1.235   4.780  0.00  0.00    +0.139 A 
ATOM     31  O   UNL     1      -0.813   1.652   5.925  0.00  0.00    -0.485 OA
ATOM     32  C   UNL     1      -1.185   1.663   8.312  0.00  0.00    +0.056 C 
BRANCH  26  33
ATOM     33  O   UNL     1       2.661  -0.749   3.657  0.00  0.00    -0.506 OA
ATOM     34  H   UNL     1       3.485  -0.243   3.669  0.00  0.00    +0.292 HD
ENDBRANCH  26  33
ENDBRANCH  19  28
ENDBRANCH   1  19
TORSDOF 7
