REMARK  Name = ZINC10788561
REMARK  8 active torsions:
REMARK  status: ('A' for Active; 'I' for Inactive)
REMARK    1  A    between atoms: C_1  and  C_2
REMARK    2  A    between atoms: C_4  and  C_29
REMARK    3  A    between atoms: C_6  and  C_8
REMARK    4  A    between atoms: C_8  and  O_10
REMARK    5  A    between atoms: O_10  and  C_11
REMARK    6  A    between atoms: C_11  and  C_12
REMARK    7  A    between atoms: C_16  and  C_25
REMARK    8  A    between atoms: N_27  and  C_28
REMARK                            x       y       z     vdW  Elec       q    Type
REMARK                         _______ _______ _______ _____ _____    ______ ____
ROOT
ATOM      1  C   UNL     1      -2.310   4.748   5.025  0.00  0.00    +0.258 C 
ATOM      2  O   UNL     1      -2.435   5.442   4.038  0.00  0.00    -0.272 OA
ATOM      3  N   UNL     1      -1.502   3.670   4.992  0.00  0.00    -0.261 N 
ATOM      4  C   UNL     1      -1.232   2.883   6.208  0.00  0.00    +0.168 C 
ATOM      5  C   UNL     1       0.264   2.540   6.216  0.00  0.00    +0.276 C 
ATOM      6  O   UNL     1       0.578   1.817   5.023  0.00  0.00    -0.476 OA
ATOM      7  C   UNL     1       0.153   2.333   3.840  0.00  0.00    +0.143 A 
ATOM      8  C   UNL     1      -0.888   3.256   3.798  0.00  0.00    +0.078 A 
ATOM      9  C   UNL     1      -1.317   3.767   2.583  0.00  0.00    +0.027 A 
ATOM     10  C   UNL     1      -0.707   3.360   1.411  0.00  0.00    +0.002 A 
ATOM     11  C   UNL     1       0.328   2.445   1.450  0.00  0.00    +0.004 A 
ATOM     12  C   UNL     1       0.759   1.931   2.659  0.00  0.00    +0.047 A 
ENDROOT
BRANCH   5  13
ATOM     13  C   UNL     1       0.582   1.690   7.420  0.00  0.00    +0.255 C 
ATOM     14  O   UNL     1       0.958   0.547   7.273  0.00  0.00    -0.272 OA
ATOM     15  N   UNL     1       0.447   2.202   8.659  0.00  0.00    -0.315 N 
ATOM     16  C   UNL     1       0.756   1.376   9.829  0.00  0.00    +0.128 C 
ATOM     17  H   UNL     1       0.147   3.116   8.777  0.00  0.00    +0.148 HD
ENDBRANCH   5  13
BRANCH   1  18
ATOM     18  C   UNL     1      -3.058   5.092   6.287  0.00  0.00    +0.328 C 
BRANCH  18  19
ATOM     19  O   UNL     1      -3.947   6.211   6.033  0.00  0.00    -0.452 OA
BRANCH  19  20
ATOM     20  C   UNL     1      -4.694   6.646   7.067  0.00  0.00    +0.340 C 
ATOM     21  O   UNL     1      -4.604   6.104   8.150  0.00  0.00    -0.245 OA
BRANCH  20  27
ATOM     22  C   UNL     1      -6.708  10.141   4.131  0.00  0.00    +0.044 C 
ATOM     23  C   UNL     1      -6.593   9.466   5.473  0.00  0.00    -0.049 A 
ATOM     24  C   UNL     1      -7.359   9.910   6.537  0.00  0.00    +0.006 A 
ATOM     25  C   UNL     1      -7.260   9.295   7.773  0.00  0.00    -0.049 A 
ATOM     26  C   UNL     1      -6.396   8.234   7.952  0.00  0.00    +0.018 A 
ATOM     27  C   UNL     1      -5.621   7.781   6.883  0.00  0.00    +0.060 A 
ATOM     28  C   UNL     1      -5.721   8.410   5.640  0.00  0.00    +0.018 A 
ATOM     29  C   UNL     1      -8.097   9.786   8.926  0.00  0.00    +0.044 C 
ENDBRANCH  20  27
ENDBRANCH  19  20
ENDBRANCH  18  19
ENDBRANCH   1  18
TORSDOF 5
