REMARK  Name = ZINC65257859
REMARK  4 active torsions:
REMARK  status: ('A' for Active; 'I' for Inactive)
REMARK    1  A    between atoms: C_4  and  C_7
REMARK    2  A    between atoms: C_9  and  C_12
REMARK    3  A    between atoms: C_12  and  N_18
REMARK    4  A    between atoms: C_19  and  C_21
REMARK                            x       y       z     vdW  Elec       q    Type
REMARK                         _______ _______ _______ _____ _____    ______ ____
ROOT
ATOM      1  C   UNL     1       5.692  -3.722  -0.082  0.00  0.00    +0.113 C 
ATOM      2  C   UNL     1       5.311  -4.414  -1.392  0.00  0.00    +0.035 C 
ATOM      3  C   UNL     1       5.891  -5.829  -1.410  0.00  0.00    +0.003 C 
ATOM      4  C   UNL     1       7.415  -5.756  -1.296  0.00  0.00    +0.000 C 
ATOM      5  C   UNL     1       7.797  -5.065   0.014  0.00  0.00    +0.003 C 
ATOM      6  C   UNL     1       7.216  -3.649   0.032  0.00  0.00    +0.035 C 
ENDROOT
BRANCH   1   9
ATOM      7  C   UNL     1       3.699  -0.689  -0.037  0.00  0.00    +0.202 A 
ATOM      8  N   UNL     1       3.853  -2.025  -0.051  0.00  0.00    -0.190 NA
ATOM      9  C   UNL     1       5.120  -2.328  -0.065  0.00  0.00    +0.251 A 
ATOM     10  O   UNL     1       5.828  -1.191  -0.059  0.00  0.00    -0.335 OA
ATOM     11  N   UNL     1       4.884  -0.131  -0.046  0.00  0.00    -0.056 NA
BRANCH   7  15
ATOM     12  C   UNL     1      -0.017   1.379   0.010  0.00  0.00    +0.000 A 
ATOM     13  C   UNL     1       1.169   2.092   0.002  0.00  0.00    +0.001 A 
ATOM     14  C   UNL     1       2.377   1.426  -0.013  0.00  0.00    +0.012 A 
ATOM     15  C   UNL     1       2.402   0.033  -0.021  0.00  0.00    +0.022 A 
ATOM     16  C   UNL     1       1.205  -0.680  -0.013  0.00  0.00    +0.012 A 
ATOM     17  C   UNL     1       0.002  -0.004   0.002  0.00  0.00    +0.001 A 
ENDBRANCH   7  15
ENDBRANCH   1   9
BRANCH   1  18
ATOM     18  N   UNL     1       5.154  -4.485   1.047  0.00  0.00    -0.297 N 
ATOM     19  C   UNL     1       3.825  -4.680   1.157  0.00  0.00    +0.248 C 
ATOM     20  O   UNL     1       3.072  -4.223   0.318  0.00  0.00    -0.270 OA
ATOM     21  H   UNL     1       5.754  -4.850   1.716  0.00  0.00    +0.150 HD
BRANCH  19  22
ATOM     22  C   UNL     1       3.282  -5.449   2.295  0.00  0.00    +0.072 A 
ATOM     23  C   UNL     1       4.143  -5.970   3.263  0.00  0.00    +0.016 A 
ATOM     24  C   UNL     1       3.630  -6.687   4.323  0.00  0.00    +0.001 A 
ATOM     25  C   UNL     1       2.265  -6.891   4.431  0.00  0.00    +0.003 A 
ATOM     26  C   UNL     1       1.405  -6.379   3.478  0.00  0.00    +0.039 A 
ATOM     27  C   UNL     1       1.904  -5.653   2.412  0.00  0.00    +0.135 A 
ATOM     28  F   UNL     1       1.063  -5.148   1.483  0.00  0.00    -0.205 F 
ENDBRANCH  19  22
ENDBRANCH   1  18
TORSDOF 4
