REMARK  Name = ZINC22607152
REMARK  0 active torsions:
REMARK  status: ('A' for Active; 'I' for Inactive)
REMARK                            x       y       z     vdW  Elec       q    Type
REMARK                         _______ _______ _______ _____ _____    ______ ____
ROOT
ATOM      1  C   UNL     1      -1.134   1.286   3.591  0.00  0.00    +0.007 A 
ATOM      2  C   UNL     1      -0.586   0.844   2.382  0.00  0.00    +0.022 A 
ATOM      3  C   UNL     1      -0.691   1.600   1.258  0.00  0.00    +0.027 A 
ATOM      4  N   UNL     1      -1.378   2.766   1.274  0.00  0.00    -0.312 N 
ATOM      5  C   UNL     1      -1.851   3.252   2.449  0.00  0.00    +0.251 A 
ATOM      6  O   UNL     1      -2.365   4.359   2.480  0.00  0.00    -0.268 OA
ATOM      7  C   UNL     1      -1.758   2.499   3.627  0.00  0.00    +0.070 A 
ATOM      8  C   UNL     1      -1.665   3.548   0.071  0.00  0.00    +0.130 C 
ATOM      9  C   UNL     1      -0.779   3.158  -1.100  0.00  0.00    +0.027 C 
ATOM     10  C   UNL     1      -0.739   1.620  -1.231  0.00  0.00    +0.018 C 
ATOM     11  C   UNL     1      -0.013   1.086   0.008  0.00  0.00    +0.054 C 
ATOM     12  C   UNL     1       1.420   1.645  -0.003  0.00  0.00    +0.117 C 
ATOM     13  N   UNL     1       1.338   3.105   0.160  0.00  0.00    -0.300 N 
ATOM     14  C   UNL     1       0.626   3.723  -0.963  0.00  0.00    +0.113 C 
ATOM     15  C   UNL     1       2.594   3.657   0.313  0.00  0.00    +0.200 A 
ATOM     16  N   UNL     1       3.392   3.232   1.288  0.00  0.00    -0.183 NA
ATOM     17  C   UNL     1       4.603   3.760   1.433  0.00  0.00    +0.218 A 
ATOM     18  N   UNL     1       5.013   4.720   0.610  0.00  0.00    -0.190 NA
ATOM     19  C   UNL     1       4.213   5.148  -0.362  0.00  0.00    +0.183 A 
ATOM     20  N   UNL     1       3.003   4.616  -0.510  0.00  0.00    -0.306 N 
ATOM     21  S   UNL     1       4.756   6.420  -1.454  0.00  0.00    -0.011 S 
ATOM     22  N   UNL     1       5.433   3.315   2.442  0.00  0.00    -0.327 N 
ATOM     23  H   UNL     1       6.436   3.752   2.562  0.00  0.00    +0.145 HD
ATOM     24  H   UNL     1       5.093   2.524   3.126  0.00  0.00    +0.145 HD
ATOM     25  H   UNL     1       2.341   4.970  -1.314  0.00  0.00    +0.171 HD
ENDROOT
TORSDOF 0
