REMARK  Name = ZINC49383569
REMARK  3 active torsions:
REMARK  status: ('A' for Active; 'I' for Inactive)
REMARK    1  A    between atoms: C_6  and  N_7
REMARK    2  A    between atoms: N_10  and  C_13
REMARK    3  A    between atoms: C_13  and  C_14
REMARK                            x       y       z     vdW  Elec       q    Type
REMARK                         _______ _______ _______ _____ _____    ______ ____
ROOT
ATOM      1  N   UNL     1      -1.201  -0.722   0.010  0.00  0.00    -0.254 N 
ATOM      2  C   UNL     1      -1.322  -2.183  -0.096  0.00  0.00    +0.134 C 
ATOM      3  C   UNL     1      -2.841  -2.433  -0.036  0.00  0.00    +0.129 C 
ATOM      4  N   UNL     1      -3.415  -1.086   0.097  0.00  0.00    -0.275 N 
ATOM      5  C   UNL     1      -2.423  -0.186   0.120  0.00  0.00    +0.310 C 
ATOM      6  O   UNL     1      -2.616   1.010   0.227  0.00  0.00    -0.252 OA
ENDROOT
BRANCH   1  12
ATOM      7  C   UNL     1      -0.017   1.384  -0.005  0.00  0.00    +0.026 A 
ATOM      8  C   UNL     1       1.170   2.091  -0.013  0.00  0.00    +0.043 A 
ATOM      9  C   UNL     1       2.379   1.417  -0.013  0.00  0.00    +0.159 A 
ATOM     10  C   UNL     1       2.401   0.030  -0.006  0.00  0.00    +0.160 A 
ATOM     11  C   UNL     1       1.215  -0.680   0.001  0.00  0.00    +0.064 A 
ATOM     12  C   UNL     1       0.002  -0.004   0.002  0.00  0.00    +0.041 A 
ATOM     13  F   UNL     1       3.582  -0.627  -0.006  0.00  0.00    -0.202 F 
ATOM     14  F   UNL     1       3.538   2.110  -0.021  0.00  0.00    -0.202 F 
ENDBRANCH   1  12
BRANCH   4  15
ATOM     15  C   UNL     1      -4.844  -0.778   0.194  0.00  0.00    +0.205 C 
BRANCH  15  16
ATOM     16  C   UNL     1      -5.260  -0.780   1.643  0.00  0.00    +0.233 C 
ATOM     17  O   UNL     1      -4.444  -1.016   2.508  0.00  0.00    -0.274 OA
ATOM     18  N   UNL     1      -6.540  -0.520   1.976  0.00  0.00    -0.294 N 
ATOM     19  C   UNL     1      -6.966  -0.511   3.384  0.00  0.00    +0.114 C 
ATOM     20  C   UNL     1      -7.419   0.904   3.764  0.00  0.00    +0.074 C 
ATOM     21  C   UNL     1      -8.308   1.441   2.671  0.00  0.00    +0.039 A 
ATOM     22  C   UNL     1      -8.364   0.940   1.418  0.00  0.00    +0.054 A 
ATOM     23  N   UNL     1      -9.267   1.683   0.725  0.00  0.00    -0.348 N 
ATOM     24  H   UNL     1      -9.522   1.565  -0.203  0.00  0.00    +0.166 HD
ATOM     25  C   UNL     1      -9.744   2.620   1.578  0.00  0.00    +0.171 A 
ATOM     26  N   UNL     1      -9.164   2.466   2.739  0.00  0.00    -0.349 N 
ATOM     27  C   UNL     1      -7.548  -0.231   0.940  0.00  0.00    +0.162 C 
ATOM     28  H   UNL     1      -9.328   3.008   3.526  0.00  0.00    +0.166 HD
ENDBRANCH  15  16
ENDBRANCH   4  15
TORSDOF 3
