REMARK  Name = ZINC41455816
REMARK  5 active torsions:
REMARK  status: ('A' for Active; 'I' for Inactive)
REMARK    1  A    between atoms: C_1  and  C_2
REMARK    2  A    between atoms: C_5  and  N_9
REMARK    3  A    between atoms: C_7  and  C_8
REMARK    4  A    between atoms: C_10  and  C_24
REMARK    5  A    between atoms: C_12  and  C_14
REMARK                            x       y       z     vdW  Elec       q    Type
REMARK                         _______ _______ _______ _____ _____    ______ ____
ROOT
ATOM      1  N   UNL     1       0.073  -4.172  -0.034  0.00  0.00    -0.236 N 
ATOM      2  C   UNL     1      -0.546  -4.955  -0.956  0.00  0.00    +0.043 A 
ATOM      3  C   UNL     1      -0.295  -6.242  -0.620  0.00  0.00    +0.057 A 
ATOM      4  C   UNL     1       0.503  -6.180   0.547  0.00  0.00    +0.148 A 
ATOM      5  N   UNL     1       0.682  -4.905   0.829  0.00  0.00    -0.161 NA
ATOM      6  C   UNL     1      -1.359  -4.479  -2.132  0.00  0.00    +0.066 C 
ENDROOT
BRANCH   4   7
ATOM      7  C   UNL     1       1.040  -7.329   1.304  0.00  0.00    +0.267 C 
ATOM      8  O   UNL     1       0.722  -8.462   0.997  0.00  0.00    -0.268 OA
ATOM      9  N   UNL     1       1.883  -7.122   2.335  0.00  0.00    -0.293 N 
ATOM     10  C   UNL     1       2.523  -8.256   3.017  0.00  0.00    +0.127 C 
ATOM     11  C   UNL     1       4.043  -8.048   2.992  0.00  0.00    +0.126 C 
ATOM     12  N   UNL     1       4.338  -6.685   3.454  0.00  0.00    -0.301 N 
ATOM     13  C   UNL     1       3.698  -5.551   2.772  0.00  0.00    +0.126 C 
ATOM     14  C   UNL     1       2.183  -5.758   2.794  0.00  0.00    +0.127 C 
ATOM     15  C   UNL     1       5.181  -6.478   4.485  0.00  0.00    +0.328 C 
ATOM     16  O   UNL     1       5.417  -5.348   4.858  0.00  0.00    -0.279 OA
ENDBRANCH   4   7
BRANCH   1  21
ATOM     17  C   UNL     1      -0.004   1.502  -0.007  0.00  0.00    +0.044 C 
ATOM     18  C   UNL     1       0.017  -0.005  -0.014  0.00  0.00    -0.047 A 
ATOM     19  C   UNL     1       0.033  -0.689  -1.216  0.00  0.00    +0.006 A 
ATOM     20  C   UNL     1       0.052  -2.070  -1.226  0.00  0.00    +0.028 A 
ATOM     21  C   UNL     1       0.054  -2.771  -0.027  0.00  0.00    +0.066 A 
ATOM     22  C   UNL     1       0.038  -2.082   1.178  0.00  0.00    +0.031 A 
ATOM     23  C   UNL     1       0.025  -0.700   1.181  0.00  0.00    -0.046 A 
ATOM     24  C   UNL     1       0.013   0.049   2.488  0.00  0.00    +0.044 C 
ENDBRANCH   1  21
TORSDOF 2
