REMARK  Name = ZINC66175346
REMARK  6 active torsions:
REMARK  status: ('A' for Active; 'I' for Inactive)
REMARK    1  A    between atoms: C_1  and  C_2
REMARK    2  A    between atoms: C_5  and  C_7
REMARK    3  A    between atoms: C_7  and  C_9
REMARK    4  A    between atoms: C_7  and  N_10
REMARK    5  A    between atoms: N_13  and  C_14
REMARK    6  A    between atoms: N_13  and  C_15
REMARK                            x       y       z     vdW  Elec       q    Type
REMARK                         _______ _______ _______ _____ _____    ______ ____
ROOT
ATOM      1  N   UNL     1       2.851  -2.963  -0.864  0.00  0.00    -0.290 N 
ATOM      2  C   UNL     1       3.520  -3.976  -1.449  0.00  0.00    +0.303 C 
ATOM      3  O   UNL     1       3.184  -5.126  -1.241  0.00  0.00    -0.253 OA
ATOM      4  N   UNL     1       4.560  -3.715  -2.265  0.00  0.00    -0.286 N 
ATOM      5  C   UNL     1       4.965  -2.329  -2.515  0.00  0.00    +0.134 C 
ATOM      6  H   UNL     1       3.119  -2.045  -1.030  0.00  0.00    +0.151 HD
ENDROOT
BRANCH   4   7
ATOM      7  C   UNL     1       5.287  -4.816  -2.901  0.00  0.00    +0.080 C 
ATOM      8  C   UNL     1       6.755  -4.776  -2.467  0.00  0.00    +0.041 C 
ATOM      9  C   UNL     1       7.504  -5.950  -3.107  0.00  0.00    +0.108 C 
ATOM     10  N   UNL     1       7.303  -5.903  -4.561  0.00  0.00    -0.317 N 
ATOM     11  C   UNL     1       5.930  -5.847  -5.083  0.00  0.00    +0.108 C 
ATOM     12  C   UNL     1       5.199  -4.675  -4.422  0.00  0.00    +0.041 C 
ATOM     13  C   UNL     1       8.390  -5.911  -5.427  0.00  0.00    +0.099 A 
ATOM     14  C   UNL     1       8.178  -5.993  -6.800  0.00  0.00    +0.042 A 
ATOM     15  C   UNL     1       9.268  -6.000  -7.650  0.00  0.00    +0.005 A 
ATOM     16  C   UNL     1      10.540  -5.925  -7.097  0.00  0.00    +0.018 A 
ATOM     17  C   UNL     1      10.678  -5.846  -5.726  0.00  0.00    +0.084 A 
ATOM     18  N   UNL     1       9.618  -5.836  -4.939  0.00  0.00    -0.350 N 
ATOM     19  H   UNL     1       9.743  -5.776  -3.979  0.00  0.00    +0.166 HD
ENDBRANCH   4   7
BRANCH   1  20
ATOM     20  C   UNL     1       1.720  -3.247   0.022  0.00  0.00    +0.137 C 
ATOM     21  C   UNL     1       2.237  -3.527   1.435  0.00  0.00    +0.036 C 
BRANCH  20  26
ATOM     22  C   UNL     1       0.083   1.523   0.137  0.00  0.00    +0.086 C 
ATOM     23  C   UNL     1       0.083   0.016   0.103  0.00  0.00    +0.102 A 
ATOM     24  C   UNL     1      -1.009  -0.770   0.090  0.00  0.00    +0.045 A 
ATOM     25  C   UNL     1      -0.550  -2.107   0.057  0.00  0.00    +0.047 A 
ATOM     26  C   UNL     1       0.794  -2.058   0.053  0.00  0.00    +0.125 A 
ATOM     27  O   UNL     1       1.172  -0.769   0.075  0.00  0.00    -0.463 OA
ENDBRANCH  20  26
ENDBRANCH   1  20
TORSDOF 3
