REMARK  Name = ZINC27777619
REMARK  8 active torsions:
REMARK  status: ('A' for Active; 'I' for Inactive)
REMARK    1  A    between atoms: C_1  and  C_2
REMARK    2  A    between atoms: C_12  and  S_14
REMARK    3  A    between atoms: S_14  and  C_15
REMARK    4  A    between atoms: C_15  and  C_17
REMARK    5  A    between atoms: C_15  and  C_18
REMARK    6  A    between atoms: C_20  and  C_23
REMARK    7  A    between atoms: C_23  and  C_24
REMARK    8  A    between atoms: C_23  and  C_25
REMARK                            x       y       z     vdW  Elec       q    Type
REMARK                         _______ _______ _______ _____ _____    ______ ____
ROOT
ATOM      1  C   UNL     1      -0.088   2.466  -6.784  0.00  0.00    +0.088 C 
ATOM      2  C   UNL     1      -0.236   2.225  -5.303  0.00  0.00    +0.128 A 
ATOM      3  N   UNL     1      -1.377   2.522  -4.713  0.00  0.00    -0.225 NA
ATOM      4  C   UNL     1      -1.528   2.320  -3.418  0.00  0.00    +0.113 A 
ATOM      5  C   UNL     1      -0.491   1.786  -2.632  0.00  0.00    +0.043 A 
ATOM      6  C   UNL     1      -0.791   1.612  -1.202  0.00  0.00    -0.025 A 
ATOM      7  C   UNL     1      -2.015   1.978  -0.789  0.00  0.00    -0.004 A 
ATOM      8  S   UNL     1      -2.839   2.566  -2.251  0.00  0.00    -0.073 S 
ATOM      9  C   UNL     1      -2.206   1.759   0.688  0.00  0.00    +0.043 C 
ATOM     10  C   UNL     1      -0.772   1.602   1.246  0.00  0.00    +0.010 C 
ATOM     11  C   UNL     1      -0.013   1.086   0.008  0.00  0.00    +0.037 C 
ATOM     12  C   UNL     1       0.714   1.486  -3.325  0.00  0.00    +0.110 A 
ATOM     13  N   UNL     1       0.781   1.721  -4.628  0.00  0.00    -0.225 NA
ENDROOT
BRANCH  12  14
ATOM     14  S   UNL     1       2.097   0.812  -2.466  0.00  0.00    -0.092 S 
BRANCH  14  15
ATOM     15  C   UNL     1       3.272   0.657  -3.834  0.00  0.00    +0.138 C 
ATOM     16  C   UNL     1       2.748  -0.367  -4.842  0.00  0.00    +0.029 C 
BRANCH  15  17
ATOM     17  C   UNL     1       4.606   0.200  -3.301  0.00  0.00    +0.240 A 
ATOM     18  N   UNL     1       5.782   0.685  -3.620  0.00  0.00    -0.195 NA
ATOM     19  C   UNL     1       6.672  -0.025  -2.904  0.00  0.00    +0.174 A 
ATOM     20  N   UNL     1       6.005  -0.889  -2.200  0.00  0.00    -0.061 NA
ATOM     21  O   UNL     1       4.816  -0.773  -2.409  0.00  0.00    -0.337 OA
BRANCH  19  22
ATOM     22  C   UNL     1       8.169   0.150  -2.917  0.00  0.00    +0.054 C 
ATOM     23  C   UNL     1       8.653   0.503  -1.509  0.00  0.00    +0.015 C 
ATOM     24  C   UNL     1       8.831  -1.152  -3.372  0.00  0.00    +0.015 C 
ENDBRANCH  19  22
ENDBRANCH  15  17
ENDBRANCH  14  15
ENDBRANCH  12  14
TORSDOF 4
