REMARK  Name = ZINC16641989
REMARK  6 active torsions:
REMARK  status: ('A' for Active; 'I' for Inactive)
REMARK    1  A    between atoms: C_1  and  C_2
REMARK    2  A    between atoms: C_9  and  C_11
REMARK    3  A    between atoms: C_13  and  O_32
REMARK    4  A    between atoms: C_18  and  S_21
REMARK    5  A    between atoms: S_21  and  N_24
REMARK    6  A    between atoms: N_24  and  C_25
REMARK                            x       y       z     vdW  Elec       q    Type
REMARK                         _______ _______ _______ _____ _____    ______ ____
ROOT
ATOM      1  C   UNL     1      -1.383   5.705   1.902  0.00  0.00    +0.051 A 
ATOM      2  C   UNL     1      -0.094   6.216   1.908  0.00  0.00    +0.080 A 
ATOM      3  C   UNL     1       0.104   7.586   2.122  0.00  0.00    +0.214 A 
ATOM      4  N   UNL     1      -0.903   8.407   2.319  0.00  0.00    -0.213 NA
ATOM      5  C   UNL     1      -2.169   7.979   2.326  0.00  0.00    +0.076 A 
ATOM      6  C   UNL     1      -2.456   6.609   2.111  0.00  0.00    +0.015 A 
ATOM      7  C   UNL     1      -3.787   6.171   2.114  0.00  0.00    +0.039 A 
ATOM      8  C   UNL     1      -4.792   7.067   2.318  0.00  0.00    +0.109 A 
ATOM      9  C   UNL     1      -4.514   8.417   2.524  0.00  0.00    +0.031 A 
ATOM     10  C   UNL     1      -3.232   8.875   2.538  0.00  0.00    +0.030 A 
ENDROOT
BRANCH   1  18
ATOM     11  C   UNL     1      -1.907   0.431  -1.229  0.00  0.00    +0.009 C 
ATOM     12  C   UNL     1      -1.868   1.937  -0.966  0.00  0.00    +0.003 C 
ATOM     13  C   UNL     1      -1.010   2.620  -2.035  0.00  0.00    +0.006 C 
ATOM     14  C   UNL     1      -0.997   4.131  -1.792  0.00  0.00    +0.019 C 
ATOM     15  C   UNL     1      -0.379   4.418  -0.420  0.00  0.00    +0.108 C 
ATOM     16  N   UNL     1      -1.109   3.650   0.598  0.00  0.00    -0.297 N 
ATOM     17  C   UNL     1      -1.260   2.200   0.415  0.00  0.00    +0.111 C 
ATOM     18  C   UNL     1      -1.631   4.264   1.678  0.00  0.00    +0.247 C 
ATOM     19  O   UNL     1      -2.305   3.634   2.469  0.00  0.00    -0.270 OA
ENDBRANCH   1  18
BRANCH   8  20
ATOM     20  S   UNL     1      -6.465   6.513   2.321  0.00  0.00    +0.072 S 
ATOM     21  O   UNL     1      -7.256   7.607   1.876  0.00  0.00    -0.150 OA
ATOM     22  O   UNL     1      -6.476   5.251   1.669  0.00  0.00    -0.150 OA
BRANCH  20  23
ATOM     23  N   UNL     1      -6.886   6.235   3.898  0.00  0.00    -0.216 N 
ATOM     24  H   UNL     1      -7.572   6.775   4.319  0.00  0.00    +0.174 HD
BRANCH  23  25
ATOM     25  C   UNL     1      -6.251   5.221   4.622  0.00  0.00    +0.048 A 
ATOM     26  C   UNL     1      -6.085   3.963   4.058  0.00  0.00    +0.027 A 
ATOM     27  C   UNL     1      -5.454   2.965   4.774  0.00  0.00    +0.040 A 
ATOM     28  C   UNL     1      -4.996   3.214   6.057  0.00  0.00    +0.124 A 
ATOM     29  C   UNL     1      -5.165   4.466   6.623  0.00  0.00    +0.040 A 
ATOM     30  C   UNL     1      -5.792   5.470   5.909  0.00  0.00    +0.027 A 
ATOM     31  F   UNL     1      -4.383   2.235   6.757  0.00  0.00    -0.205 F 
ENDBRANCH  23  25
ENDBRANCH  20  23
ENDBRANCH   8  20
BRANCH   3  32
ATOM     32  O   UNL     1       1.368   8.077   2.127  0.00  0.00    -0.492 OA
ATOM     33  H   UNL     1       1.682   8.364   1.258  0.00  0.00    +0.294 HD
ENDBRANCH   3  32
TORSDOF 5
