REMARK  Name = ZINC65609371
REMARK  5 active torsions:
REMARK  status: ('A' for Active; 'I' for Inactive)
REMARK    1  A    between atoms: C_1  and  C_2
REMARK    2  A    between atoms: C_6  and  C_8
REMARK    3  A    between atoms: C_6  and  C_9
REMARK    4  A    between atoms: C_10  and  C_12
REMARK    5  A    between atoms: C_13  and  C_14
REMARK                            x       y       z     vdW  Elec       q    Type
REMARK                         _______ _______ _______ _____ _____    ______ ____
ROOT
ATOM      1  C   UNL     1      -0.017   1.527  -0.004  0.00  0.00    +0.039 C 
ATOM      2  C   UNL     1       0.005  -0.003  -0.013  0.00  0.00    +0.133 C 
ATOM      3  C   UNL     1      -1.432  -0.536   0.015  0.00  0.00    +0.139 C 
ATOM      4  N   UNL     1      -1.383  -1.995   0.195  0.00  0.00    -0.293 N 
ATOM      5  C   UNL     1      -0.561  -2.530   1.292  0.00  0.00    +0.142 C 
ATOM      6  C   UNL     1       0.834  -1.900   1.202  0.00  0.00    +0.080 C 
ATOM      7  O   UNL     1       0.705  -0.477   1.140  0.00  0.00    -0.368 OA
ATOM      8  C   UNL     1       1.542  -2.404  -0.057  0.00  0.00    +0.043 C 
ATOM      9  C   UNL     1       1.650  -2.286   2.438  0.00  0.00    +0.043 C 
ATOM     10  C   UNL     1      -2.071  -2.818  -0.621  0.00  0.00    +0.240 C 
ATOM     11  O   UNL     1      -2.816  -2.355  -1.467  0.00  0.00    -0.271 OA
ENDROOT
BRANCH  10  12
ATOM     12  C   UNL     1      -1.928  -4.214  -0.496  0.00  0.00    +0.069 C 
ATOM     13  C   UNL     1      -2.537  -5.044  -1.389  0.00  0.00    +0.034 C 
BRANCH  13  14
ATOM     14  C   UNL     1      -2.395  -6.439  -1.265  0.00  0.00    +0.085 A 
ATOM     15  C   UNL     1      -1.209  -7.136  -1.104  0.00  0.00    +0.156 A 
ATOM     16  N   UNL     1      -1.502  -8.430  -1.026  0.00  0.00    -0.209 NA
ATOM     17  C   UNL     1      -2.797  -8.594  -1.127  0.00  0.00    +0.179 A 
ATOM     18  N   UNL     1      -3.430  -7.391  -1.274  0.00  0.00    -0.292 N 
ATOM     19  C   UNL     1      -4.800  -7.413  -1.385  0.00  0.00    +0.101 A 
ATOM     20  C   UNL     1      -5.470  -8.566  -1.347  0.00  0.00    +0.067 A 
ATOM     21  S   UNL     1      -4.148  -9.751  -1.154  0.00  0.00    -0.058 S 
ATOM     22 CL   UNL     1       0.381  -6.443  -1.020  0.00  0.00    -0.060 Cl
ENDBRANCH  13  14
ENDBRANCH  10  12
TORSDOF 2
