REMARK  Name = ZINC46734558
REMARK  5 active torsions:
REMARK  status: ('A' for Active; 'I' for Inactive)
REMARK    1  A    between atoms: C_1  and  C_2
REMARK    2  A    between atoms: C_2  and  C_28
REMARK    3  A    between atoms: N_5  and  C_9
REMARK    4  A    between atoms: C_9  and  C_10
REMARK    5  A    between atoms: C_16  and  C_19
REMARK                            x       y       z     vdW  Elec       q    Type
REMARK                         _______ _______ _______ _____ _____    ______ ____
ROOT
ATOM      1  C   UNL     1       2.871  -1.896  -1.406  0.00  0.00    +0.213 C 
ENDROOT
BRANCH   1   6
ATOM      2  C   UNL     1      -0.019   1.526   0.010  0.00  0.00    +0.047 C 
ATOM      3  C   UNL     1       0.002  -0.004   0.002  0.00  0.00    +0.135 C 
ATOM      4  C   UNL     1       0.815  -0.520  -1.169  0.00  0.00    +0.251 C 
ATOM      5  O   UNL     1       0.595  -0.342  -2.348  0.00  0.00    -0.272 OA
ATOM      6  N   UNL     1       1.833  -1.217  -0.627  0.00  0.00    -0.215 N 
ATOM      7  C   UNL     1       1.777  -1.214   0.710  0.00  0.00    +0.310 C 
ATOM      8  O   UNL     1       2.586  -1.776   1.421  0.00  0.00    -0.252 OA
ATOM      9  N   UNL     1       0.724  -0.519   1.178  0.00  0.00    -0.281 N 
ATOM     10  H   UNL     1       0.487  -0.383   2.109  0.00  0.00    +0.152 HD
BRANCH   3  11
ATOM     11  C   UNL     1      -1.401  -0.551  -0.040  0.00  0.00    -0.015 A 
ATOM     12  C   UNL     1      -2.004  -0.815  -1.256  0.00  0.00    +0.009 A 
ATOM     13  C   UNL     1      -3.291  -1.317  -1.296  0.00  0.00    +0.039 A 
ATOM     14  C   UNL     1      -3.976  -1.557  -0.117  0.00  0.00    +0.123 A 
ATOM     15  C   UNL     1      -3.372  -1.293   1.100  0.00  0.00    +0.039 A 
ATOM     16  C   UNL     1      -2.083  -0.796   1.138  0.00  0.00    +0.009 A 
ATOM     17  F   UNL     1      -5.234  -2.048  -0.155  0.00  0.00    -0.205 F 
ENDBRANCH   3  11
ENDBRANCH   1   6
BRANCH   1  18
ATOM     18  C   UNL     1       4.020  -0.950  -1.644  0.00  0.00    +0.234 C 
ATOM     19  O   UNL     1       3.975   0.180  -1.206  0.00  0.00    -0.274 OA
ATOM     20  N   UNL     1       5.097  -1.360  -2.343  0.00  0.00    -0.299 N 
ATOM     21  C   UNL     1       5.163  -2.724  -2.885  0.00  0.00    +0.108 C 
ATOM     22  C   UNL     1       6.463  -3.380  -2.410  0.00  0.00    +0.020 C 
ATOM     23  C   UNL     1       7.649  -2.493  -2.795  0.00  0.00    +0.014 C 
ATOM     24  C   UNL     1       7.515  -1.133  -2.107  0.00  0.00    +0.075 C 
ATOM     25  C   UNL     1       6.224  -0.449  -2.583  0.00  0.00    +0.119 C 
BRANCH  24  26
ATOM     26  C   UNL     1       8.700  -0.271  -2.460  0.00  0.00    +0.142 A 
ATOM     27  N   UNL     1       9.049   0.108  -3.663  0.00  0.00    -0.133 NA
ATOM     28  N   UNL     1      10.108   0.837  -3.611  0.00  0.00    -0.129 NA
ATOM     29  C   UNL     1      10.496   0.963  -2.352  0.00  0.00    +0.161 A 
ATOM     30  N   UNL     1       9.598   0.259  -1.587  0.00  0.00    -0.286 N 
ATOM     31  C   UNL     1       9.736   0.208  -0.231  0.00  0.00    +0.094 A 
ATOM     32  C   UNL     1      10.755   0.850   0.379  0.00  0.00    +0.018 A 
ATOM     33  C   UNL     1      11.688   1.581  -0.377  0.00  0.00    +0.005 A 
ATOM     34  C   UNL     1      11.567   1.634  -1.731  0.00  0.00    +0.048 A 
ENDBRANCH  24  26
ENDBRANCH   1  18
TORSDOF 4
