REMARK  Name = ZINC62424170
REMARK  8 active torsions:
REMARK  status: ('A' for Active; 'I' for Inactive)
REMARK    1  A    between atoms: C_1  and  N_2
REMARK    2  A    between atoms: N_2  and  C_3
REMARK    3  A    between atoms: N_2  and  C_23
REMARK    4  A    between atoms: C_6  and  C_9
REMARK    5  A    between atoms: C_9  and  N_10
REMARK    6  A    between atoms: N_10  and  C_11
REMARK    7  A    between atoms: C_11  and  C_12
REMARK    8  A    between atoms: C_15  and  N_18
REMARK                            x       y       z     vdW  Elec       q    Type
REMARK                         _______ _______ _______ _____ _____    ______ ____
ROOT
ATOM      1  C   UNL     1       0.144  -2.526   5.079  0.00  0.00    -0.046 C 
ENDROOT
BRANCH   1   5
ATOM      2  C   UNL     1       0.037  -0.625   1.252  0.00  0.00    +0.030 A 
ATOM      3  C   UNL     1      -0.039  -2.009   1.345  0.00  0.00    +0.023 A 
ATOM      4  C   UNL     1      -0.004  -2.620   2.583  0.00  0.00    +0.003 A 
ATOM      5  C   UNL     1       0.107  -1.856   3.730  0.00  0.00    -0.064 A 
ATOM      6  C   UNL     1       0.183  -0.478   3.642  0.00  0.00    +0.003 A 
ATOM      7  C   UNL     1       0.154   0.139   2.406  0.00  0.00    +0.023 A 
BRANCH   2   9
ATOM      8  C   UNL     1       0.007  -0.814  -1.219  0.00  0.00    +0.129 C 
ATOM      9  N   UNL     1       0.002  -0.004   0.002  0.00  0.00    -0.330 N 
BRANCH   9  10
ATOM     10  C   UNL     1      -0.040   1.458  -0.089  0.00  0.00    +0.073 C 
ATOM     11  C   UNL     1      -1.365   1.892  -0.718  0.00  0.00    +0.022 C 
ATOM     12  C   UNL     1      -1.409   3.418  -0.813  0.00  0.00    +0.002 C 
ATOM     13  C   UNL     1      -0.247   3.909  -1.680  0.00  0.00    +0.000 C 
ATOM     14  C   UNL     1       1.078   3.474  -1.051  0.00  0.00    +0.002 C 
ATOM     15  C   UNL     1       1.121   1.948  -0.956  0.00  0.00    +0.022 C 
ENDBRANCH   9  10
ENDBRANCH   2   9
ENDBRANCH   1   5
BRANCH   1  16
ATOM     16  N   UNL     1       1.536  -2.826   5.439  0.00  0.00    +0.384 N 
ATOM     17  H   UNL     1       1.938  -3.440   4.747  0.00  0.00    -0.085 HD
ATOM     18  H   UNL     1       2.066  -1.968   5.475  0.00  0.00    -0.085 HD
BRANCH  16  19
ATOM     19  C   UNL     1       1.572  -3.479   6.754  0.00  0.00    -0.046 C 
BRANCH  19  20
ATOM     20  C   UNL     1       3.001  -3.786   7.123  0.00  0.00    -0.064 A 
ATOM     21  C   UNL     1       3.563  -4.995   6.758  0.00  0.00    +0.004 A 
ATOM     22  C   UNL     1       4.872  -5.280   7.094  0.00  0.00    +0.028 A 
ATOM     23  C   UNL     1       5.624  -4.350   7.800  0.00  0.00    +0.067 A 
ATOM     24  C   UNL     1       5.056  -3.136   8.166  0.00  0.00    +0.028 A 
ATOM     25  C   UNL     1       3.748  -2.856   7.822  0.00  0.00    +0.004 A 
BRANCH  23  26
ATOM     26  N   UNL     1       6.953  -4.635   8.143  0.00  0.00    -0.220 N 
ATOM     27  C   UNL     1       7.799  -3.841   8.826  0.00  0.00    +0.225 A 
ATOM     28  N   UNL     1       8.942  -4.468   8.940  0.00  0.00    -0.222 NA
ATOM     29  C   UNL     1       8.864  -5.659   8.347  0.00  0.00    +0.245 A 
ATOM     30  N   UNL     1       7.665  -5.810   7.849  0.00  0.00    -0.154 NA
ENDBRANCH  23  26
ENDBRANCH  19  20
ENDBRANCH  16  19
ENDBRANCH   1  16
TORSDOF 7
