REMARK  Name = ZINC38971911
REMARK  5 active torsions:
REMARK  status: ('A' for Active; 'I' for Inactive)
REMARK    1  A    between atoms: C_1  and  C_2
REMARK    2  A    between atoms: C_6  and  S_8
REMARK    3  A    between atoms: S_8  and  N_11
REMARK    4  A    between atoms: C_13  and  N_23
REMARK    5  A    between atoms: N_23  and  C_24
REMARK                            x       y       z     vdW  Elec       q    Type
REMARK                         _______ _______ _______ _____ _____    ______ ____
ROOT
ATOM      1  N   UNL     1       1.496  -3.449   3.146  0.00  0.00    -0.110 NA
ATOM      2  C   UNL     1       1.904  -3.978   4.262  0.00  0.00    +0.192 C 
ATOM      3  C   UNL     1       3.378  -4.030   4.592  0.00  0.00    +0.237 C 
ATOM      4  N   UNL     1       3.775  -4.641   5.870  0.00  0.00    -0.359 N 
ATOM      5  C   UNL     1       2.843  -5.107   6.653  0.00  0.00    +0.063 A 
ATOM      6  C   UNL     1       3.187  -5.727   7.941  0.00  0.00    +0.027 A 
ATOM      7  C   UNL     1       2.192  -6.197   8.726  0.00  0.00    +0.002 A 
ATOM      8  C   UNL     1       0.844  -6.109   8.343  0.00  0.00    +0.002 A 
ATOM      9  C   UNL     1       0.451  -5.553   7.176  0.00  0.00    +0.030 A 
ATOM     10  C   UNL     1       1.411  -5.026   6.274  0.00  0.00    +0.089 A 
ATOM     11  N   UNL     1       1.022  -4.482   5.140  0.00  0.00    -0.226 NA
ATOM     12  H   UNL     1       4.710  -4.697   6.124  0.00  0.00    +0.162 HD
ENDROOT
BRANCH   1  13
ATOM     13  S   UNL     1      -0.123  -3.393   2.800  0.00  0.00    +0.100 S 
ATOM     14  O   UNL     1      -0.711  -2.515   3.751  0.00  0.00    -0.146 OA
ATOM     15  O   UNL     1      -0.551  -4.738   2.638  0.00  0.00    -0.146 OA
BRANCH  13  21
ATOM     16  C   UNL     1      -0.729   0.860  -0.178  0.00  0.00    +0.044 C 
ATOM     17  C   UNL     1      -0.571  -0.636  -0.089  0.00  0.00    -0.049 A 
ATOM     18  C   UNL     1      -0.560  -1.400  -1.241  0.00  0.00    +0.003 A 
ATOM     19  C   UNL     1      -0.416  -2.772  -1.159  0.00  0.00    +0.002 A 
ATOM     20  C   UNL     1      -0.282  -3.381   0.075  0.00  0.00    +0.029 A 
ATOM     21  C   UNL     1      -0.293  -2.617   1.227  0.00  0.00    +0.113 A 
ATOM     22  C   UNL     1      -0.433  -1.244   1.145  0.00  0.00    +0.032 A 
ENDBRANCH  13  21
ENDBRANCH   1  13
BRANCH   3  23
ATOM     23  N   UNL     1       4.051  -4.765   3.518  0.00  0.00    -0.317 N 
ATOM     24  H   UNL     1       3.659  -5.580   3.168  0.00  0.00    +0.148 HD
BRANCH  23  25
ATOM     25  C   UNL     1       5.259  -4.291   2.997  0.00  0.00    +0.047 A 
ATOM     26  C   UNL     1       5.887  -3.198   3.580  0.00  0.00    +0.024 A 
ATOM     27  C   UNL     1       7.080  -2.733   3.064  0.00  0.00    +0.002 A 
ATOM     28  C   UNL     1       7.650  -3.353   1.967  0.00  0.00    +0.002 A 
ATOM     29  C   UNL     1       7.028  -4.442   1.384  0.00  0.00    +0.022 A 
ATOM     30  C   UNL     1       5.837  -4.916   1.899  0.00  0.00    +0.062 A 
ATOM     31 CL   UNL     1       5.059  -6.287   1.170  0.00  0.00    -0.082 Cl
ENDBRANCH  23  25
ENDBRANCH   3  23
TORSDOF 4
