REMARK  Name = ZINC39195928
REMARK  6 active torsions:
REMARK  status: ('A' for Active; 'I' for Inactive)
REMARK    1  A    between atoms: C_1  and  C_2
REMARK    2  A    between atoms: C_2  and  C_3
REMARK    3  A    between atoms: C_3  and  C_4
REMARK    4  A    between atoms: C_16  and  C_18
REMARK    5  A    between atoms: C_23  and  O_24
REMARK    6  A    between atoms: O_24  and  C_25
REMARK                            x       y       z     vdW  Elec       q    Type
REMARK                         _______ _______ _______ _____ _____    ______ ____
ROOT
ATOM      1  C   UNL     1       0.920  -2.893  -1.575  0.00  0.00    +0.064 C 
ATOM      2  C   UNL     1      -0.580  -3.010  -1.815  0.00  0.00    +0.134 C 
ATOM      3  N   UNL     1      -0.724  -2.639  -3.251  0.00  0.00    -0.295 N 
ATOM      4  C   UNL     1       0.568  -2.904  -3.934  0.00  0.00    +0.123 C 
ATOM      5  C   UNL     1       1.459  -3.544  -2.885  0.00  0.00    +0.117 C 
ATOM      6  C   UNL     1       2.926  -3.281  -2.902  0.00  0.00    +0.227 C 
ATOM      7  O   UNL     1       3.512  -2.914  -3.898  0.00  0.00    -0.275 OA
ATOM      8  N   UNL     1       3.559  -3.483  -1.710  0.00  0.00    -0.240 N 
ATOM      9  C   UNL     1       2.874  -3.837  -0.605  0.00  0.00    +0.306 C 
ATOM     10  O   UNL     1       3.467  -4.372   0.311  0.00  0.00    -0.252 OA
ATOM     11  N   UNL     1       1.540  -3.609  -0.484  0.00  0.00    -0.291 N 
ATOM     12  C   UNL     1      -1.837  -2.147  -3.830  0.00  0.00    +0.250 C 
ATOM     13  O   UNL     1      -2.869  -2.063  -3.193  0.00  0.00    -0.270 OA
ATOM     14  H   UNL     1       4.521  -3.369  -1.657  0.00  0.00    +0.159 HD
ATOM     15  H   UNL     1       1.035  -3.914   0.286  0.00  0.00    +0.151 HD
ENDROOT
BRANCH  12  16
ATOM     16  C   UNL     1      -1.803  -1.710  -5.239  0.00  0.00    +0.079 A 
ATOM     17  C   UNL     1      -0.722  -0.965  -5.718  0.00  0.00    +0.017 A 
ATOM     18  C   UNL     1      -0.696  -0.560  -7.035  0.00  0.00    +0.001 A 
ATOM     19  C   UNL     1      -1.738  -0.888  -7.888  0.00  0.00    +0.004 A 
ATOM     20  C   UNL     1      -2.812  -1.624  -7.428  0.00  0.00    +0.047 A 
ATOM     21  C   UNL     1      -2.852  -2.045  -6.106  0.00  0.00    +0.141 A 
BRANCH  21  22
ATOM     22  O   UNL     1      -3.904  -2.772  -5.655  0.00  0.00    -0.455 OA
BRANCH  22  23
ATOM     23  C   UNL     1      -4.842  -3.165  -6.556  0.00  0.00    +0.128 A 
ATOM     24  C   UNL     1      -4.520  -4.096  -7.533  0.00  0.00    +0.046 A 
ATOM     25  C   UNL     1      -5.476  -4.494  -8.448  0.00  0.00    +0.004 A 
ATOM     26  C   UNL     1      -6.752  -3.964  -8.390  0.00  0.00    +0.000 A 
ATOM     27  C   UNL     1      -7.075  -3.035  -7.418  0.00  0.00    +0.004 A 
ATOM     28  C   UNL     1      -6.125  -2.639  -6.497  0.00  0.00    +0.046 A 
ENDBRANCH  22  23
ENDBRANCH  21  22
ENDBRANCH  12  16
BRANCH   1  29
ATOM     29  C   UNL     1       1.324  -1.418  -1.524  0.00  0.00    +0.028 C 
BRANCH  29  31
ATOM     30  C   UNL     1       1.303   0.655  -0.130  0.00  0.00    +0.004 C 
ATOM     31  C   UNL     1       0.899  -0.819  -0.181  0.00  0.00    -0.001 C 
ENDBRANCH  29  31
ENDBRANCH   1  29
TORSDOF 5
