REMARK  Name = ZINC40567947
REMARK  6 active torsions:
REMARK  status: ('A' for Active; 'I' for Inactive)
REMARK    1  A    between atoms: C_1  and  N_2
REMARK    2  A    between atoms: N_2  and  C_3
REMARK    3  A    between atoms: C_4  and  C_6
REMARK    4  A    between atoms: C_12  and  C_14
REMARK    5  A    between atoms: N_16  and  C_17
REMARK    6  A    between atoms: C_20  and  N_24
REMARK                            x       y       z     vdW  Elec       q    Type
REMARK                         _______ _______ _______ _____ _____    ______ ____
ROOT
ATOM      1  C   UNL     1      -3.473  -1.885   0.932  0.00  0.00    +0.221 C 
ATOM      2  O   UNL     1      -2.917  -1.384   1.886  0.00  0.00    -0.275 OA
ATOM      3  N   UNL     1      -4.802  -2.104   0.965  0.00  0.00    -0.284 N 
ATOM      4  H   UNL     1      -5.258  -2.443   0.179  0.00  0.00    +0.155 HD
ENDROOT
BRANCH   3   5
ATOM      5  C   UNL     1      -5.526  -1.841   2.134  0.00  0.00    +0.048 A 
ATOM      6  C   UNL     1      -5.166  -0.777   2.951  0.00  0.00    +0.026 A 
ATOM      7  C   UNL     1      -5.881  -0.521   4.104  0.00  0.00    +0.034 A 
ATOM      8  C   UNL     1      -6.955  -1.323   4.447  0.00  0.00    +0.127 A 
ATOM      9  C   UNL     1      -7.316  -2.383   3.636  0.00  0.00    +0.049 A 
ATOM     10  C   UNL     1      -6.608  -2.641   2.478  0.00  0.00    +0.041 A 
ATOM     11 BR   UNL     1      -7.108  -4.087   1.365  0.00  0.00    -0.048 Br
BRANCH   8  12
ATOM     12  N   UNL     1      -7.719  -1.045   5.684  0.00  0.00    +0.056 N 
ATOM     13  O   UNL     1      -7.404  -0.119   6.394  0.00  0.00    -0.126 OA
ATOM     14  O   UNL     1      -8.658  -1.745   5.984  0.00  0.00    -0.126 OA
ENDBRANCH   8  12
ENDBRANCH   3   5
BRANCH   1  20
ATOM     15  C   UNL     1      -1.200  -1.913  -0.074  0.00  0.00    +0.091 C 
ATOM     16  C   UNL     1      -0.389  -2.469  -1.246  0.00  0.00    +0.040 C 
ATOM     17  C   UNL     1      -1.021  -2.069  -2.547  0.00  0.00    -0.030 C 
ATOM     18  C   UNL     1      -2.238  -1.643  -2.662  0.00  0.00    -0.030 C 
ATOM     19  C   UNL     1      -3.183  -1.480  -1.508  0.00  0.00    +0.040 C 
ATOM     20  C   UNL     1      -2.678  -2.264  -0.291  0.00  0.00    +0.091 C 
BRANCH  15  24
ATOM     21  C   UNL     1      -0.403   1.612   1.181  0.00  0.00    +0.131 C 
ATOM     22  N   UNL     1      -0.448   0.153   1.060  0.00  0.00    -0.307 N 
ATOM     23  C   UNL     1       0.148  -0.688   2.101  0.00  0.00    +0.131 C 
ATOM     24  C   UNL     1      -1.038  -0.416  -0.010  0.00  0.00    +0.219 C 
ATOM     25  O   UNL     1      -1.440   0.276  -0.921  0.00  0.00    -0.275 OA
ENDBRANCH  15  24
ENDBRANCH   1  20
TORSDOF 4
