REMARK  Name = ZINC35189324
REMARK  3 active torsions:
REMARK  status: ('A' for Active; 'I' for Inactive)
REMARK    1  A    between atoms: C_2  and  C_10
REMARK    2  A    between atoms: C_5  and  O_8
REMARK    3  A    between atoms: N_11  and  N_12
REMARK                            x       y       z     vdW  Elec       q    Type
REMARK                         _______ _______ _______ _____ _____    ______ ____
ROOT
ATOM      1  C   UNL     1      -0.150   1.924   1.597  0.00  0.00    +0.033 A 
ATOM      2  C   UNL     1       1.076   2.379   1.104  0.00  0.00    -0.002 A 
ATOM      3  C   UNL     1       2.242   1.655   1.365  0.00  0.00    +0.033 A 
ATOM      4  C   UNL     1       2.179   0.495   2.108  0.00  0.00    +0.084 A 
ATOM      5  C   UNL     1       0.958   0.046   2.597  0.00  0.00    +0.153 A 
ATOM      6  C   UNL     1      -0.204   0.763   2.339  0.00  0.00    +0.084 A 
ATOM      7 CL   UNL     1      -1.726   0.196   2.952  0.00  0.00    -0.080 Cl
ATOM      8 CL   UNL     1       3.627  -0.406   2.433  0.00  0.00    -0.080 Cl
ENDROOT
BRANCH   5   9
ATOM      9  O   UNL     1       0.900  -1.098   3.328  0.00  0.00    -0.504 OA
ATOM     10  H   UNL     1       1.007  -0.962   4.279  0.00  0.00    +0.292 HD
ENDBRANCH   5   9
BRANCH   2  11
ATOM     11  C   UNL     1       1.138   3.619   0.310  0.00  0.00    +0.141 C 
ATOM     12  N   UNL     1       0.043   4.199  -0.075  0.00  0.00    -0.172 NA
BRANCH  12  13
ATOM     13  N   UNL     1      -1.166   3.490  -0.067  0.00  0.00    -0.207 N 
ATOM     14  C   UNL     1      -1.428   2.306  -0.690  0.00  0.00    +0.248 A 
ATOM     15  N   UNL     1      -2.670   1.999  -0.427  0.00  0.00    -0.136 NA
ATOM     16  N   UNL     1      -3.198   2.907   0.314  0.00  0.00    -0.136 NA
ATOM     17  C   UNL     1      -2.320   3.839   0.569  0.00  0.00    +0.248 A 
ENDBRANCH  12  13
ENDBRANCH   2  11
TORSDOF 3
