REMARK  Name = ZINC04005977
REMARK  5 active torsions:
REMARK  status: ('A' for Active; 'I' for Inactive)
REMARK    1  A    between atoms: C_1  and  C_2
REMARK    2  A    between atoms: C_5  and  C_21
REMARK    3  A    between atoms: C_13  and  O_19
REMARK    4  A    between atoms: O_19  and  C_20
REMARK    5  A    between atoms: C_24  and  N_27
REMARK                            x       y       z     vdW  Elec       q    Type
REMARK                         _______ _______ _______ _____ _____    ______ ____
ROOT
ATOM      1  C   UNL     1       2.545  -7.349  -1.296  0.00  0.00    +0.111 C 
ATOM      2  C   UNL     1       1.096  -7.495  -0.909  0.00  0.00    +0.232 C 
ATOM      3  O   UNL     1       0.572  -8.588  -0.922  0.00  0.00    -0.274 OA
ATOM      4  N   UNL     1       0.382  -6.409  -0.550  0.00  0.00    -0.185 N 
ATOM      5  C   UNL     1      -1.038  -6.409  -0.150  0.00  0.00    +0.140 C 
ATOM      6  C   UNL     1      -1.273  -4.972   0.323  0.00  0.00    +0.067 C 
ATOM      7  C   UNL     1      -2.395  -4.274  -0.448  0.00  0.00    +0.016 C 
ATOM      8  C   UNL     1      -2.502  -2.825   0.023  0.00  0.00    +0.036 C 
ATOM      9  C   UNL     1      -1.192  -2.090  -0.003  0.00  0.00    -0.035 A 
ATOM     10  C   UNL     1      -1.194  -0.707   0.010  0.00  0.00    +0.050 A 
ATOM     11  C   UNL     1       0.002  -0.004   0.002  0.00  0.00    +0.120 A 
ATOM     12  C   UNL     1       1.218  -0.675  -0.019  0.00  0.00    +0.046 A 
ATOM     13  C   UNL     1       1.237  -2.055  -0.027  0.00  0.00    +0.013 A 
ATOM     14  C   UNL     1       0.038  -2.759  -0.027  0.00  0.00    +0.001 A 
ATOM     15  C   UNL     1       0.005  -4.234  -0.062  0.00  0.00    +0.072 C 
ATOM     16  N   UNL     1       0.865  -5.100  -0.493  0.00  0.00    -0.181 NA
ENDROOT
BRANCH   5  17
ATOM     17  C   UNL     1      -1.921  -6.732  -1.327  0.00  0.00    -0.024 A 
ATOM     18  C   UNL     1      -1.569  -6.304  -2.593  0.00  0.00    +0.008 A 
ATOM     19  C   UNL     1      -2.377  -6.605  -3.674  0.00  0.00    +0.033 A 
ATOM     20  C   UNL     1      -3.542  -7.324  -3.487  0.00  0.00    +0.126 A 
ATOM     21  C   UNL     1      -3.897  -7.747  -2.220  0.00  0.00    +0.033 A 
ATOM     22  C   UNL     1      -3.087  -7.451  -1.140  0.00  0.00    +0.008 A 
BRANCH  20  23
ATOM     23  N   UNL     1      -4.411  -7.641  -4.643  0.00  0.00    +0.056 N 
ATOM     24  O   UNL     1      -5.438  -8.274  -4.478  0.00  0.00    -0.126 OA
ATOM     25  O   UNL     1      -4.098  -7.268  -5.760  0.00  0.00    -0.126 OA
ENDBRANCH  20  23
ENDBRANCH   5  17
BRANCH  11  26
ATOM     26  O   UNL     1      -0.016   1.354   0.009  0.00  0.00    -0.495 OA
ATOM     27  C   UNL     1       1.248   2.020   0.001  0.00  0.00    +0.277 C 
ENDBRANCH  11  26
TORSDOF 3
