REMARK  Name = ZINC48260609
REMARK  8 active torsions:
REMARK  status: ('A' for Active; 'I' for Inactive)
REMARK    1  A    between atoms: C_1  and  C_2
REMARK    2  A    between atoms: C_2  and  C_22
REMARK    3  A    between atoms: N_5  and  C_9
REMARK    4  A    between atoms: C_9  and  C_10
REMARK    5  A    between atoms: C_12  and  C_15
REMARK    6  A    between atoms: C_15  and  C_16
REMARK    7  A    between atoms: C_25  and  S_28
REMARK    8  A    between atoms: S_28  and  C_31
REMARK                            x       y       z     vdW  Elec       q    Type
REMARK                         _______ _______ _______ _____ _____    ______ ____
ROOT
ATOM      1  C   UNL     1      -0.019   1.526   0.010  0.00  0.00    +0.047 C 
ATOM      2  C   UNL     1       0.002  -0.004   0.002  0.00  0.00    +0.135 C 
ATOM      3  C   UNL     1       0.815  -0.520  -1.169  0.00  0.00    +0.251 C 
ATOM      4  O   UNL     1       0.595  -0.342  -2.348  0.00  0.00    -0.272 OA
ATOM      5  N   UNL     1       1.833  -1.217  -0.627  0.00  0.00    -0.215 N 
ATOM      6  C   UNL     1       1.777  -1.214   0.710  0.00  0.00    +0.310 C 
ATOM      7  O   UNL     1       2.586  -1.776   1.421  0.00  0.00    -0.252 OA
ATOM      8  N   UNL     1       0.724  -0.519   1.178  0.00  0.00    -0.281 N 
ATOM      9  H   UNL     1       0.487  -0.383   2.109  0.00  0.00    +0.152 HD
ENDROOT
BRANCH   2  10
ATOM     10  C   UNL     1      -1.401  -0.551  -0.040  0.00  0.00    -0.015 A 
ATOM     11  C   UNL     1      -2.005  -0.815  -1.256  0.00  0.00    +0.008 A 
ATOM     12  C   UNL     1      -3.292  -1.317  -1.294  0.00  0.00    +0.027 A 
ATOM     13  C   UNL     1      -3.976  -1.556  -0.117  0.00  0.00    +0.088 A 
ATOM     14  C   UNL     1      -3.372  -1.294   1.099  0.00  0.00    +0.027 A 
ATOM     15  C   UNL     1      -2.083  -0.796   1.137  0.00  0.00    +0.008 A 
BRANCH  13  16
ATOM     16  S   UNL     1      -5.617  -2.195  -0.166  0.00  0.00    -0.006 S 
ATOM     17  O   UNL     1      -6.215  -1.754   1.045  0.00  0.00    -0.170 OA
ATOM     18  O   UNL     1      -6.132  -1.776  -1.423  0.00  0.00    -0.170 OA
ATOM     19  C   UNL     1      -5.416  -3.998  -0.143  0.00  0.00    +0.200 C 
ENDBRANCH  13  16
ENDBRANCH   2  10
BRANCH   5  20
ATOM     20  C   UNL     1       2.871  -1.896  -1.406  0.00  0.00    +0.216 C 
BRANCH  20  21
ATOM     21  C   UNL     1       4.020  -0.950  -1.644  0.00  0.00    +0.245 A 
ATOM     22  N   UNL     1       5.061  -0.802  -0.872  0.00  0.00    -0.194 NA
ATOM     23  C   UNL     1       5.884   0.120  -1.383  0.00  0.00    +0.176 A 
ATOM     24  N   UNL     1       5.373   0.573  -2.491  0.00  0.00    -0.061 NA
ATOM     25  O   UNL     1       4.150  -0.120  -2.686  0.00  0.00    -0.336 OA
BRANCH  23  26
ATOM     26  C   UNL     1       7.189   0.564  -0.773  0.00  0.00    +0.114 C 
BRANCH  26  27
ATOM     27  C   UNL     1       8.307  -0.300  -1.297  0.00  0.00    -0.040 A 
ATOM     28  C   UNL     1       8.652  -1.462  -0.633  0.00  0.00    +0.004 A 
ATOM     29  C   UNL     1       9.677  -2.255  -1.114  0.00  0.00    +0.000 A 
ATOM     30  C   UNL     1      10.358  -1.885  -2.259  0.00  0.00    +0.000 A 
ATOM     31  C   UNL     1      10.013  -0.723  -2.924  0.00  0.00    +0.000 A 
ATOM     32  C   UNL     1       8.984   0.067  -2.445  0.00  0.00    +0.004 A 
ENDBRANCH  26  27
ENDBRANCH  23  26
ENDBRANCH  20  21
ENDBRANCH   5  20
TORSDOF 6
