REMARK  Name = ZINC36741508
REMARK  11 active torsions:
REMARK  status: ('A' for Active; 'I' for Inactive)
REMARK    1  A    between atoms: C_1  and  C_2
REMARK    2  A    between atoms: C_2  and  C_3
REMARK    3  A    between atoms: C_2  and  C_4
REMARK    4  A    between atoms: C_2  and  C_5
REMARK    5  A    between atoms: C_6  and  C_11
REMARK    6  A    between atoms: C_11  and  N_12
REMARK    7  A    between atoms: C_17  and  O_31
REMARK    8  A    between atoms: C_18  and  O_29
REMARK    9  A    between atoms: C_21  and  C_23
REMARK   10  A    between atoms: O_29  and  C_30
REMARK   11  A    between atoms: O_31  and  C_32
REMARK                            x       y       z     vdW  Elec       q    Type
REMARK                         _______ _______ _______ _____ _____    ______ ____
ROOT
ATOM      1  N   UNL     1      -1.168  -2.683  -1.052  0.00  0.00    -0.287 NA
ATOM      2  C   UNL     1      -1.777  -1.403  -0.656  0.00  0.00    +0.090 C 
ATOM      3  C   UNL     1      -3.197  -1.347  -1.220  0.00  0.00    +0.051 C 
ATOM      4  C   UNL     1      -3.943  -2.608  -0.864  0.00  0.00    -0.037 A 
ATOM      5  C   UNL     1      -5.326  -2.606  -0.964  0.00  0.00    +0.053 A 
ATOM      6  C   UNL     1      -6.052  -3.742  -0.652  0.00  0.00    +0.162 A 
ATOM      7  C   UNL     1      -5.387  -4.891  -0.236  0.00  0.00    +0.162 A 
ATOM      8  C   UNL     1      -4.007  -4.887  -0.136  0.00  0.00    +0.055 A 
ATOM      9  C   UNL     1      -3.284  -3.745  -0.448  0.00  0.00    -0.019 A 
ATOM     10  C   UNL     1      -1.784  -3.789  -0.312  0.00  0.00    +0.118 C 
ENDROOT
BRANCH  10  11
ATOM     11  C   UNL     1      -1.274  -5.098  -0.857  0.00  0.00    -0.023 A 
ATOM     12  C   UNL     1      -1.091  -5.276  -2.220  0.00  0.00    +0.023 A 
ATOM     13  C   UNL     1      -0.621  -6.491  -2.683  0.00  0.00    +0.083 A 
ATOM     14  N   UNL     1      -0.348  -7.472  -1.845  0.00  0.00    -0.367 N 
ATOM     15  C   UNL     1      -0.510  -7.338  -0.544  0.00  0.00    +0.083 A 
ATOM     16  C   UNL     1      -0.970  -6.151  -0.007  0.00  0.00    +0.023 A 
ATOM     17  H   UNL     1      -0.020  -8.315  -2.196  0.00  0.00    +0.165 HD
ENDBRANCH  10  11
BRANCH   7  18
ATOM     18  O   UNL     1      -6.090  -6.014   0.072  0.00  0.00    -0.491 OA
ATOM     19  C   UNL     1      -5.340  -7.155   0.492  0.00  0.00    +0.277 C 
ENDBRANCH   7  18
BRANCH   6  20
ATOM     20  O   UNL     1      -7.408  -3.735  -0.751  0.00  0.00    -0.491 OA
ATOM     21  C   UNL     1      -8.021  -2.519  -1.185  0.00  0.00    +0.277 C 
ENDBRANCH   6  20
BRANCH   1  22
ATOM     22  C   UNL     1       0.287  -2.660  -0.849  0.00  0.00    +0.124 C 
BRANCH  22  24
ATOM     23  C   UNL     1       2.274  -1.426  -1.960  0.00  0.00    +0.073 A 
ATOM     24  C   UNL     1       0.928  -1.801  -1.909  0.00  0.00    +0.008 A 
ATOM     25  C   UNL     1       0.303  -1.258  -2.979  0.00  0.00    +0.110 A 
ATOM     26  N   UNL     1       1.221  -0.564  -3.683  0.00  0.00    -0.284 N 
ATOM     27  H   UNL     1       1.058  -0.069  -4.501  0.00  0.00    +0.188 HD
ATOM     28  N   UNL     1       2.450  -0.680  -3.021  0.00  0.00    -0.178 NA
BRANCH  23  30
ATOM     29  C   UNL     1       4.697  -1.302  -1.447  0.00  0.00    +0.017 C 
ATOM     30  C   UNL     1       3.337  -1.809  -0.963  0.00  0.00    +0.007 C 
ATOM     31  C   UNL     1       3.381  -3.332  -0.825  0.00  0.00    +0.017 C 
ATOM     32  C   UNL     1       3.013  -1.183   0.395  0.00  0.00    +0.017 C 
ENDBRANCH  23  30
ENDBRANCH  22  24
ENDBRANCH   1  22
TORSDOF 6
