REMARK  Name = ZINC39683431
REMARK  10 active torsions:
REMARK  status: ('A' for Active; 'I' for Inactive)
REMARK    1  A    between atoms: C_1  and  C_2
REMARK    2  A    between atoms: C_2  and  C_3
REMARK    3  A    between atoms: C_3  and  C_4
REMARK    4  A    between atoms: C_4  and  N_5
REMARK    5  A    between atoms: C_8  and  C_11
REMARK    6  A    between atoms: C_11  and  N_12
REMARK    7  A    between atoms: C_13  and  C_15
REMARK    8  A    between atoms: C_26  and  C_28
REMARK    9  A    between atoms: C_33  and  O_34
REMARK   10  A    between atoms: O_34  and  C_35
REMARK                            x       y       z     vdW  Elec       q    Type
REMARK                         _______ _______ _______ _____ _____    ______ ____
ROOT
ATOM      1  C   UNL     1       4.777  -8.081   6.287  0.00  0.00    +0.100 C 
ATOM      2  C   UNL     1       3.346  -8.645   6.433  0.00  0.00    +0.121 C 
ATOM      3  N   UNL     1       3.491  -9.802   7.348  0.00  0.00    -0.296 N 
ATOM      4  C   UNL     1       4.477  -9.350   8.359  0.00  0.00    +0.115 C 
ATOM      5  C   UNL     1       5.516  -8.544   7.553  0.00  0.00    -0.004 C 
ATOM      6  C   UNL     1       5.989  -7.339   8.360  0.00  0.00    -0.010 C 
ATOM      7  C   UNL     1       6.771  -7.825   9.584  0.00  0.00    -0.082 C 
ATOM      8  N   UNL     1       7.920  -8.628   9.146  0.00  0.00    +0.379 N 
ATOM      9  C   UNL     1       7.452  -9.834   8.451  0.00  0.00    -0.082 C 
ATOM     10  C   UNL     1       6.698  -9.432   7.179  0.00  0.00    -0.010 C 
ATOM     11  C   UNL     1       2.869 -10.995   7.277  0.00  0.00    +0.250 C 
ATOM     12  O   UNL     1       2.155 -11.253   6.326  0.00  0.00    -0.270 OA
ATOM     13  H   UNL     1       8.491  -8.081   8.519  0.00  0.00    -0.086 HD
ATOM     14  H   UNL     1       8.467  -8.896   9.949  0.00  0.00    -0.086 HD
ENDROOT
BRANCH  11  15
ATOM     15  C   UNL     1       3.053 -11.988   8.352  0.00  0.00    +0.078 A 
ATOM     16  C   UNL     1       3.195 -11.571   9.678  0.00  0.00    +0.017 A 
ATOM     17  C   UNL     1       3.366 -12.503  10.677  0.00  0.00    +0.001 A 
ATOM     18  C   UNL     1       3.397 -13.855  10.374  0.00  0.00    +0.004 A 
ATOM     19  C   UNL     1       3.259 -14.281   9.069  0.00  0.00    +0.046 A 
ATOM     20  C   UNL     1       3.080 -13.357   8.050  0.00  0.00    +0.132 A 
BRANCH  20  21
ATOM     21  O   UNL     1       2.938 -13.774   6.767  0.00  0.00    -0.494 OA
ATOM     22  C   UNL     1       2.977 -15.184   6.536  0.00  0.00    +0.277 C 
ENDBRANCH  20  21
ENDBRANCH  11  15
BRANCH   1  24
ATOM     23  N   UNL     1       5.781  -5.900   5.690  0.00  0.00    -0.315 N 
ATOM     24  C   UNL     1       4.742  -6.575   6.221  0.00  0.00    +0.218 C 
ATOM     25  O   UNL     1       3.780  -5.971   6.646  0.00  0.00    -0.275 OA
ATOM     26  H   UNL     1       6.551  -6.383   5.350  0.00  0.00    +0.149 HD
BRANCH  23  27
ATOM     27  C   UNL     1       5.748  -4.437   5.626  0.00  0.00    +0.107 C 
BRANCH  27  31
ATOM     28  N   UNL     1       8.304  -2.337   2.918  0.00  0.00    +0.380 N 
ATOM     29  C   UNL     1       8.316  -1.887   4.315  0.00  0.00    -0.079 C 
ATOM     30  C   UNL     1       7.061  -2.395   5.029  0.00  0.00    -0.014 C 
ATOM     31  C   UNL     1       7.039  -3.925   4.984  0.00  0.00    +0.003 C 
ATOM     32  C   UNL     1       7.101  -4.384   3.524  0.00  0.00    -0.014 C 
ATOM     33  C   UNL     1       8.354  -3.803   2.866  0.00  0.00    -0.079 C 
ATOM     34  H   UNL     1       7.459  -2.014   2.470  0.00  0.00    -0.082 HD
BRANCH  28  35
ATOM     35  C   UNL     1       9.470  -1.783   2.216  0.00  0.00    -0.079 C 
BRANCH  35  36
ATOM     36  C   UNL     1       9.354  -0.258   2.161  0.00  0.00    -0.019 C 
BRANCH  36  38
ATOM     37  C   UNL     1      10.453   1.844   1.376  0.00  0.00    +0.004 C 
ATOM     38  C   UNL     1      10.569   0.319   1.431  0.00  0.00    -0.005 C 
ENDBRANCH  36  38
ENDBRANCH  35  36
ENDBRANCH  28  35
ENDBRANCH  27  31
ENDBRANCH  23  27
ENDBRANCH   1  24
TORSDOF 8
