REMARK  Name = ZINC35368924
REMARK  3 active torsions:
REMARK  status: ('A' for Active; 'I' for Inactive)
REMARK    1  A    between atoms: C_1  and  C_2
REMARK    2  A    between atoms: C_6  and  C_7
REMARK    3  A    between atoms: C_7  and  C_9
REMARK                            x       y       z     vdW  Elec       q    Type
REMARK                         _______ _______ _______ _____ _____    ______ ____
ROOT
ATOM      1  C   UNL     1      -0.057  -1.261   3.668  0.00  0.00    +0.023 A 
ATOM      2  C   UNL     1      -0.036  -2.632   3.395  0.00  0.00    +0.013 A 
ATOM      3  C   UNL     1      -0.118  -3.539   4.427  0.00  0.00    +0.024 A 
ATOM      4  C   UNL     1      -0.221  -3.093   5.742  0.00  0.00    +0.037 A 
ATOM      5  C   UNL     1      -0.242  -1.729   6.016  0.00  0.00    -0.025 A 
ATOM      6  C   UNL     1      -0.156  -0.816   4.989  0.00  0.00    +0.017 A 
ATOM      7  C   UNL     1      -0.353  -1.253   7.441  0.00  0.00    +0.046 C 
ATOM      8  C   UNL     1      -1.222  -2.226   8.238  0.00  0.00    +0.101 C 
ATOM      9  C   UNL     1      -0.766  -3.639   7.992  0.00  0.00    +0.218 C 
ATOM     10  O   UNL     1      -0.818  -4.450   8.892  0.00  0.00    -0.275 OA
ATOM     11  N   UNL     1      -0.303  -4.013   6.786  0.00  0.00    -0.285 N 
ATOM     12  H   UNL     1      -0.023  -4.931   6.641  0.00  0.00    +0.155 HD
ENDROOT
BRANCH   1  13
ATOM     13  C   UNL     1       0.030  -0.285   2.563  0.00  0.00    +0.200 C 
ATOM     14  O   UNL     1      -0.132   0.901   2.784  0.00  0.00    -0.286 OA
BRANCH  13  20
ATOM     15  C   UNL     1      -0.032   1.446  -0.029  0.00  0.00    +0.045 C 
ATOM     16  C   UNL     1       0.301  -0.023   0.014  0.00  0.00    -0.033 A 
ATOM     17  C   UNL     1       0.618  -0.734  -1.117  0.00  0.00    +0.011 A 
ATOM     18  C   UNL     1       0.909  -2.055  -1.008  0.00  0.00    +0.046 A 
ATOM     19  S   UNL     1       0.760  -2.374   0.635  0.00  0.00    -0.093 S 
ATOM     20  C   UNL     1       0.313  -0.744   1.201  0.00  0.00    +0.062 A 
ENDBRANCH  13  20
ENDBRANCH   1  13
TORSDOF 2
