REMARK  Name = ZINC04323409
REMARK  3 active torsions:
REMARK  status: ('A' for Active; 'I' for Inactive)
REMARK    1  A    between atoms: C_3  and  C_6
REMARK    2  A    between atoms: C_7  and  C_8
REMARK    3  A    between atoms: N_15  and  C_16
REMARK                            x       y       z     vdW  Elec       q    Type
REMARK                         _______ _______ _______ _____ _____    ______ ____
ROOT
ATOM      1  C   UNL     1       2.730   6.735   0.139  0.00  0.00    +0.072 A 
ATOM      2  C   UNL     1       4.050   7.143   0.116  0.00  0.00    +0.049 A 
ATOM      3  C   UNL     1       4.065   8.535   0.211  0.00  0.00    +0.135 A 
ATOM      4  N   UNL     1       2.833   8.967   0.289  0.00  0.00    -0.171 NA
ATOM      5  N   UNL     1       1.963   7.870   0.242  0.00  0.00    -0.184 N 
ATOM      6  C   UNL     1       0.617   7.919   0.290  0.00  0.00    +0.339 C 
ATOM      7  O   UNL     1      -0.027   6.890   0.336  0.00  0.00    -0.247 OA
ATOM      8  N   UNL     1      -0.014   9.110   0.289  0.00  0.00    -0.266 N 
ATOM      9  H   UNL     1       0.499   9.931   0.338  0.00  0.00    +0.157 HD
ENDROOT
BRANCH   8  10
ATOM     10  C   UNL     1      -1.411   9.161   0.217  0.00  0.00    +0.035 A 
ATOM     11  C   UNL     1      -2.115   8.123  -0.380  0.00  0.00    +0.025 A 
ATOM     12  C   UNL     1      -3.494   8.173  -0.444  0.00  0.00    +0.022 A 
ATOM     13  C   UNL     1      -4.173   9.262   0.075  0.00  0.00    +0.041 A 
ATOM     14  C   UNL     1      -3.473  10.300   0.664  0.00  0.00    +0.022 A 
ATOM     15  C   UNL     1      -2.095  10.252   0.737  0.00  0.00    +0.025 A 
ATOM     16 CL   UNL     1      -5.905   9.325  -0.014  0.00  0.00    -0.084 Cl
ENDBRANCH   8  10
BRANCH   1  18
ATOM     17  C   UNL     1       3.119   4.329   0.060  0.00  0.00    +0.017 C 
ATOM     18  C   UNL     1       2.242   5.357   0.062  0.00  0.00    +0.029 C 
BRANCH  17  21
ATOM     19  C   UNL     1       2.658   0.579   0.139  0.00  0.00    +0.008 A 
ATOM     20  C   UNL     1       3.351   1.766   0.098  0.00  0.00    +0.015 A 
ATOM     21  C   UNL     1       2.629   2.950   0.094  0.00  0.00    +0.012 A 
ATOM     22  S   UNL     1       0.947   2.353   0.141  0.00  0.00    -0.097 S 
ATOM     23  C   UNL     1       1.299   0.603   0.163  0.00  0.00    +0.046 A 
ENDBRANCH  17  21
ENDBRANCH   1  18
TORSDOF 3
