REMARK  Name = ZINC56218307
REMARK  4 active torsions:
REMARK  status: ('A' for Active; 'I' for Inactive)
REMARK    1  A    between atoms: C_1  and  C_2
REMARK    2  A    between atoms: C_12  and  C_14
REMARK    3  A    between atoms: C_14  and  N_15
REMARK    4  A    between atoms: N_18  and  C_19
REMARK                            x       y       z     vdW  Elec       q    Type
REMARK                         _______ _______ _______ _____ _____    ______ ____
ROOT
ATOM      1  C   UNL     1      -0.019   1.526   0.010  0.00  0.00    +0.008 C 
ATOM      2  C   UNL     1       0.002  -0.004   0.002  0.00  0.00    -0.009 C 
ATOM      3  C   UNL     1       0.724  -0.501  -1.254  0.00  0.00    +0.010 C 
ATOM      4  C   UNL     1       0.541  -2.012  -1.403  0.00  0.00    +0.056 C 
ATOM      5  C   UNL     1       0.951  -2.684  -0.100  0.00  0.00    +0.054 A 
ATOM      6  C   UNL     1       1.031  -1.968   1.051  0.00  0.00    +0.015 A 
ATOM      7  S   UNL     1       1.536  -3.189   2.230  0.00  0.00    -0.057 S 
ATOM      8  C   UNL     1       1.604  -4.500   1.174  0.00  0.00    +0.165 A 
ATOM      9  N   UNL     1       1.255  -3.974   0.021  0.00  0.00    -0.229 NA
ATOM     10  N   UNL     1       1.946  -5.818   1.454  0.00  0.00    -0.263 N 
ATOM     11  C   UNL     1       1.944  -6.738   0.469  0.00  0.00    +0.236 C 
ATOM     12  O   UNL     1       1.644  -6.416  -0.661  0.00  0.00    -0.274 OA
ATOM     13  C   UNL     1       0.751  -0.516   1.243  0.00  0.00    +0.047 C 
ATOM     14  H   UNL     1       2.186  -6.075   2.358  0.00  0.00    +0.157 HD
ENDROOT
BRANCH  11  15
ATOM     15  C   UNL     1       2.314  -8.167   0.772  0.00  0.00    +0.202 C 
BRANCH  15  16
ATOM     16  N   UNL     1       2.236  -8.963  -0.455  0.00  0.00    -0.291 N 
ATOM     17  C   UNL     1       2.526 -10.279  -0.425  0.00  0.00    +0.300 C 
ATOM     18  O   UNL     1       2.853 -10.805   0.621  0.00  0.00    -0.253 OA
ATOM     19  N   UNL     1       2.454 -11.011  -1.554  0.00  0.00    -0.297 N 
ATOM     20  H   UNL     1       1.975  -8.543  -1.290  0.00  0.00    +0.151 HD
ATOM     21  H   UNL     1       2.193 -10.591  -2.389  0.00  0.00    +0.151 HD
BRANCH  19  22
ATOM     22  C   UNL     1       2.770 -12.441  -1.521  0.00  0.00    +0.074 C 
ATOM     23  C   UNL     1       4.280 -12.634  -1.667  0.00  0.00    +0.022 C 
ATOM     24  C   UNL     1       4.610 -14.127  -1.633  0.00  0.00    +0.002 C 
ATOM     25  C   UNL     1       3.892 -14.835  -2.784  0.00  0.00    +0.000 C 
ATOM     26  C   UNL     1       2.381 -14.642  -2.638  0.00  0.00    +0.002 C 
ATOM     27  C   UNL     1       2.052 -13.149  -2.672  0.00  0.00    +0.022 C 
ENDBRANCH  19  22
ENDBRANCH  15  16
ENDBRANCH  11  15
TORSDOF 3
