REMARK  Name = ZINC41715065
REMARK  3 active torsions:
REMARK  status: ('A' for Active; 'I' for Inactive)
REMARK    1  A    between atoms: C_1  and  C_2
REMARK    2  A    between atoms: C_2  and  C_20
REMARK    3  A    between atoms: C_16  and  O_19
REMARK                            x       y       z     vdW  Elec       q    Type
REMARK                         _______ _______ _______ _____ _____    ______ ____
ROOT
ATOM      1  C   UNL     1      -0.019   1.526   0.010  0.00  0.00    +0.011 C 
ATOM      2  C   UNL     1       0.002  -0.004   0.002  0.00  0.00    -0.027 C 
ATOM      3  C   UNL     1       0.719  -0.498  -1.260  0.00  0.00    +0.060 C 
ATOM      4  C   UNL     1       0.946  -1.984  -1.128  0.00  0.00    +0.031 A 
ATOM      5  C   UNL     1       0.867  -2.661   0.040  0.00  0.00    +0.002 A 
ATOM      6  C   UNL     1       1.134  -4.012  -0.232  0.00  0.00    +0.026 A 
ATOM      7  C   UNL     1       1.369  -4.117  -1.557  0.00  0.00    +0.093 A 
ATOM      8  N   UNL     1       1.254  -2.872  -2.113  0.00  0.00    -0.305 N 
ATOM      9  C   UNL     1       1.425  -2.563  -3.466  0.00  0.00    +0.138 A 
ATOM     10  C   UNL     1       1.735  -3.573  -4.368  0.00  0.00    +0.048 A 
ATOM     11  C   UNL     1       1.902  -3.255  -5.705  0.00  0.00    +0.025 A 
ATOM     12  C   UNL     1       1.752  -1.930  -6.093  0.00  0.00    +0.059 A 
ATOM     13  C   UNL     1       1.443  -0.977  -5.141  0.00  0.00    +0.133 A 
ATOM     14  N   UNL     1       1.285  -1.313  -3.875  0.00  0.00    -0.236 NA
ATOM     15 CL   UNL     1       1.950  -1.475  -7.757  0.00  0.00    -0.082 Cl
ATOM     16  C   UNL     1       0.548  -2.027   1.370  0.00  0.00    +0.147 C 
ATOM     17  C   UNL     1       0.743  -0.511   1.242  0.00  0.00    +0.043 C 
ATOM     18  C   UNL     1      -1.433  -0.533   0.013  0.00  0.00    +0.011 C 
ENDROOT
BRANCH  16  19
ATOM     19  O   UNL     1       1.426  -2.544   2.372  0.00  0.00    -0.387 OA
ATOM     20  H   UNL     1       1.365  -3.501   2.493  0.00  0.00    +0.210 HD
ENDBRANCH  16  19
TORSDOF 1
