REMARK  Name = ZINC41909141
REMARK  1 active torsions:
REMARK  status: ('A' for Active; 'I' for Inactive)
REMARK    1  A    between atoms: C_7  and  C_9
REMARK                            x       y       z     vdW  Elec       q    Type
REMARK                         _______ _______ _______ _____ _____    ______ ____
ROOT
ATOM      1  C   UNL     1       4.598  -2.550  -0.056  0.00  0.00    +0.082 C 
ATOM      2  C   UNL     1       4.281  -3.378   1.191  0.00  0.00    +0.002 C 
ATOM      3  C   UNL     1       5.112  -4.662   1.176  0.00  0.00    +0.008 C 
ATOM      4  C   UNL     1       6.601  -4.307   1.164  0.00  0.00    -0.010 C 
ATOM      5  C   UNL     1       6.941  -3.494   2.415  0.00  0.00    +0.007 C 
ATOM      6  C   UNL     1       6.110  -2.209   2.430  0.00  0.00    -0.010 C 
ATOM      7  C   UNL     1       4.622  -2.565   2.442  0.00  0.00    +0.008 C 
ATOM      8  C   UNL     1       6.426  -1.382   1.182  0.00  0.00    +0.008 C 
ATOM      9  C   UNL     1       6.086  -2.195  -0.069  0.00  0.00    +0.002 C 
ATOM     10  C   UNL     1       6.917  -3.480  -0.084  0.00  0.00    +0.008 C 
ENDROOT
BRANCH   1  17
ATOM     11  C   UNL     1      -0.022   1.783   0.012  0.00  0.00    +0.183 A 
ATOM     12  N   UNL     1       1.272   2.034   0.001  0.00  0.00    -0.148 NA
ATOM     13  N   UNL     1       2.086   1.068  -0.012  0.00  0.00    -0.126 NA
ATOM     14  C   UNL     1       1.678  -0.186  -0.015  0.00  0.00    +0.187 A 
ATOM     15  S   UNL     1       0.002  -0.004   0.002  0.00  0.00    -0.039 S 
ATOM     16  N   UNL     1       2.433  -1.354  -0.029  0.00  0.00    -0.263 N 
ATOM     17  C   UNL     1       3.779  -1.285  -0.041  0.00  0.00    +0.222 C 
ATOM     18  O   UNL     1       4.332  -0.206  -0.040  0.00  0.00    -0.275 OA
ATOM     19  H   UNL     1       1.992  -2.217  -0.030  0.00  0.00    +0.157 HD
ENDBRANCH   1  17
TORSDOF 1
