REMARK  Name = ZINC59579337
REMARK  5 active torsions:
REMARK  status: ('A' for Active; 'I' for Inactive)
REMARK    1  A    between atoms: C_6  and  C_7
REMARK    2  A    between atoms: N_9  and  C_13
REMARK    3  A    between atoms: C_13  and  N_14
REMARK    4  A    between atoms: C_17  and  C_20
REMARK    5  A    between atoms: C_20  and  C_21
REMARK                            x       y       z     vdW  Elec       q    Type
REMARK                         _______ _______ _______ _____ _____    ______ ____
ROOT
ATOM      1  N   UNL     1      -3.172  -4.320   1.358  0.00  0.00    +0.393 N 
ATOM      2  C   UNL     1      -3.961  -3.546   2.324  0.00  0.00    -0.076 C 
ATOM      3  C   UNL     1      -3.750  -4.111   3.730  0.00  0.00    -0.015 C 
ATOM      4  C   UNL     1      -4.199  -5.575   3.759  0.00  0.00    -0.006 C 
ATOM      5  C   UNL     1      -3.422  -6.357   2.696  0.00  0.00    -0.015 C 
ATOM      6  C   UNL     1      -3.645  -5.710   1.328  0.00  0.00    -0.076 C 
ATOM      7  H   UNL     1      -2.200  -4.303   1.629  0.00  0.00    -0.079 HD
ENDROOT
BRANCH   1   8
ATOM      8  C   UNL     1      -3.316  -3.727   0.022  0.00  0.00    +0.073 C 
BRANCH   8  11
ATOM      9  C   UNL     1      -1.267  -0.764   0.011  0.00  0.00    +0.247 A 
ATOM     10  N   UNL     1      -1.370  -2.061   0.010  0.00  0.00    -0.131 NA
ATOM     11  N   UNL     1      -2.736  -2.382   0.019  0.00  0.00    -0.240 N 
ATOM     12  C   UNL     1      -3.412  -1.214   0.026  0.00  0.00    +0.265 A 
ATOM     13  S   UNL     1      -5.114  -1.029   0.039  0.00  0.00    +0.011 S 
ATOM     14  O   UNL     1      -2.504  -0.222   0.026  0.00  0.00    -0.412 OA
BRANCH   9  20
ATOM     15  C   UNL     1      -0.017   1.391   0.010  0.00  0.00    +0.014 A 
ATOM     16  C   UNL     1       1.170   2.095   0.002  0.00  0.00    +0.021 A 
ATOM     17  C   UNL     1       2.378   1.419  -0.013  0.00  0.00    +0.041 A 
ATOM     18  C   UNL     1       2.403   0.034  -0.021  0.00  0.00    +0.021 A 
ATOM     19  C   UNL     1       1.223  -0.680  -0.014  0.00  0.00    +0.014 A 
ATOM     20  C   UNL     1       0.002  -0.004   0.002  0.00  0.00    +0.039 A 
ATOM     21 CL   UNL     1       3.868   2.310  -0.022  0.00  0.00    -0.084 Cl
ENDBRANCH   9  20
ENDBRANCH   8  11
ENDBRANCH   1   8
BRANCH   4  22
ATOM     22  C   UNL     1      -3.917  -6.169   5.140  0.00  0.00    +0.099 C 
BRANCH  22  23
ATOM     23  C   UNL     1      -4.470  -7.569   5.207  0.00  0.00    +0.216 C 
ATOM     24  O   UNL     1      -5.033  -8.045   4.244  0.00  0.00    -0.276 OA
ATOM     25  N   UNL     1      -4.338  -8.293   6.336  0.00  0.00    -0.301 N 
ATOM     26  C   UNL     1      -3.686  -7.839   7.573  0.00  0.00    +0.108 C 
ATOM     27  C   UNL     1      -3.750  -9.007   8.580  0.00  0.00    +0.020 C 
ATOM     28  C   UNL     1      -3.932 -10.246   7.664  0.00  0.00    +0.020 C 
ATOM     29  C   UNL     1      -4.828  -9.668   6.538  0.00  0.00    +0.108 C 
ENDBRANCH  22  23
ENDBRANCH   4  22
TORSDOF 5
