REMARK  Name = ZINC32105006
REMARK  4 active torsions:
REMARK  status: ('A' for Active; 'I' for Inactive)
REMARK    1  A    between atoms: C_1  and  N_2
REMARK    2  A    between atoms: C_6  and  S_7
REMARK    3  A    between atoms: S_7  and  C_8
REMARK    4  A    between atoms: C_19  and  O_20
REMARK                            x       y       z     vdW  Elec       q    Type
REMARK                         _______ _______ _______ _____ _____    ______ ____
ROOT
ATOM      1  C   UNL     1       0.063  -1.917   3.688  0.00  0.00    +0.140 C 
ATOM      2  C   UNL     1       0.228  -1.628   5.160  0.00  0.00    +0.029 C 
ATOM      3  C   UNL     1       0.611  -2.836   5.958  0.00  0.00    +0.039 C 
ATOM      4  C   UNL     1      -0.494  -3.809   6.222  0.00  0.00    -0.022 A 
ATOM      5  C   UNL     1      -0.451  -4.457   7.454  0.00  0.00    +0.006 A 
ATOM      6  C   UNL     1      -1.404  -5.382   7.814  0.00  0.00    +0.000 A 
ATOM      7  C   UNL     1      -2.431  -5.681   6.936  0.00  0.00    +0.002 A 
ATOM      8  C   UNL     1      -2.492  -5.049   5.719  0.00  0.00    +0.028 A 
ATOM      9  C   UNL     1      -1.524  -4.094   5.338  0.00  0.00    +0.071 A 
ATOM     10  N   UNL     1      -1.720  -3.539   4.128  0.00  0.00    -0.216 NA
ATOM     11  C   UNL     1      -1.191  -2.663   3.403  0.00  0.00    +0.201 C 
ENDROOT
BRANCH  11  12
ATOM     12  O   UNL     1      -1.821  -2.372   2.247  0.00  0.00    -0.495 OA
ATOM     13  H   UNL     1      -2.631  -2.880   2.102  0.00  0.00    +0.293 HD
ENDBRANCH  11  12
BRANCH   1  14
ATOM     14  S   UNL     1       0.033  -0.347   2.779  0.00  0.00    -0.073 S 
BRANCH  14  20
ATOM     15  C   UNL     1      -0.018   1.461   0.010  0.00  0.00    +0.152 C 
ATOM     16  N   UNL     1       0.002  -0.004   0.002  0.00  0.00    -0.312 N 
ATOM     17  C   UNL     1       0.009  -0.824  -1.093  0.00  0.00    +0.225 A 
ATOM     18  N   UNL     1       0.028  -2.052  -0.657  0.00  0.00    -0.137 NA
ATOM     19  N   UNL     1       0.034  -2.064   0.628  0.00  0.00    -0.123 NA
ATOM     20  C   UNL     1       0.024  -0.834   1.086  0.00  0.00    +0.192 A 
ENDBRANCH  14  20
ENDBRANCH   1  14
TORSDOF 3
