REMARK  Name = ZINC39699390
REMARK  8 active torsions:
REMARK  status: ('A' for Active; 'I' for Inactive)
REMARK    1  A    between atoms: C_1  and  C_2
REMARK    2  A    between atoms: C_8  and  C_14
REMARK    3  A    between atoms: C_14  and  N_15
REMARK    4  A    between atoms: N_15  and  C_16
REMARK    5  A    between atoms: C_16  and  C_17
REMARK    6  A    between atoms: C_23  and  C_25
REMARK    7  A    between atoms: C_30  and  O_31
REMARK    8  A    between atoms: O_31  and  C_32
REMARK                            x       y       z     vdW  Elec       q    Type
REMARK                         _______ _______ _______ _____ _____    ______ ____
ROOT
ATOM      1  N   UNL     1       1.342  -1.919   5.785  0.00  0.00    -0.294 N 
ATOM      2  C   UNL     1       1.844  -0.674   5.903  0.00  0.00    +0.250 C 
ATOM      3  O   UNL     1       2.225  -0.076   4.915  0.00  0.00    -0.270 OA
ENDROOT
BRANCH   2   4
ATOM      4  C   UNL     1       1.933  -0.037   7.231  0.00  0.00    +0.078 A 
ATOM      5  C   UNL     1       0.782   0.137   8.005  0.00  0.00    +0.017 A 
ATOM      6  C   UNL     1       0.872   0.732   9.244  0.00  0.00    +0.001 A 
ATOM      7  C   UNL     1       2.097   1.160   9.728  0.00  0.00    +0.004 A 
ATOM      8  C   UNL     1       3.242   0.995   8.973  0.00  0.00    +0.046 A 
ATOM      9  C   UNL     1       3.171   0.393   7.726  0.00  0.00    +0.132 A 
BRANCH   9  10
ATOM     10  O   UNL     1       4.296   0.225   6.986  0.00  0.00    -0.494 OA
ATOM     11  C   UNL     1       5.522   0.687   7.555  0.00  0.00    +0.277 C 
ENDBRANCH   9  10
ENDBRANCH   2   4
BRANCH   1  12
ATOM     12  C   UNL     1       1.317  -2.578   4.477  0.00  0.00    +0.125 C 
BRANCH  12  20
ATOM     13  C   UNL     1      -0.519   1.289   0.079  0.00  0.00    +0.045 C 
ATOM     14  C   UNL     1      -0.414  -0.214   0.105  0.00  0.00    -0.029 A 
ATOM     15  C   UNL     1      -0.453  -0.913  -1.059  0.00  0.00    +0.005 A 
ATOM     16  C   UNL     1      -0.360  -2.304  -1.105  0.00  0.00    +0.001 A 
ATOM     17  C   UNL     1      -0.225  -3.042   0.027  0.00  0.00    +0.009 A 
ATOM     18  C   UNL     1      -0.176  -2.353   1.317  0.00  0.00    -0.007 A 
ATOM     19  C   UNL     1      -0.041  -3.052   2.479  0.00  0.00    -0.003 C 
ATOM     20  C   UNL     1       0.000  -2.256   3.768  0.00  0.00    +0.116 C 
ATOM     21  C   UNL     1      -0.111  -0.752   3.660  0.00  0.00    +0.226 C 
ATOM     22  O   UNL     1      -0.084  -0.064   4.663  0.00  0.00    -0.275 OA
ATOM     23  N   UNL     1      -0.239  -0.187   2.471  0.00  0.00    -0.284 N 
ATOM     24  C   UNL     1      -0.271  -0.883   1.335  0.00  0.00    +0.043 A 
ATOM     25  H   UNL     1      -0.309   0.779   2.424  0.00  0.00    +0.155 HD
ENDBRANCH  12  20
ENDBRANCH   1  12
BRANCH   1  26
ATOM     26  C   UNL     1       0.821  -2.614   6.965  0.00  0.00    +0.139 C 
BRANCH  26  27
ATOM     27  C   UNL     1       1.909  -3.517   7.547  0.00  0.00    +0.136 C 
ATOM     28  C   UNL     1       1.334  -4.344   8.717  0.00  0.00    +0.035 C 
ATOM     29  C   UNL     1       2.508  -4.339   9.734  0.00  0.00    +0.031 C 
ATOM     30  C   UNL     1       3.110  -2.933   9.481  0.00  0.00    +0.160 C 
ATOM     31  O   UNL     1       2.979  -2.718   8.065  0.00  0.00    -0.375 OA
ENDBRANCH  26  27
ENDBRANCH   1  26
TORSDOF 6
