REMARK  Name = ZINC62791604
REMARK  5 active torsions:
REMARK  status: ('A' for Active; 'I' for Inactive)
REMARK    1  A    between atoms: C_1  and  O_2
REMARK    2  A    between atoms: O_2  and  C_3
REMARK    3  A    between atoms: C_3  and  C_5
REMARK    4  A    between atoms: N_10  and  C_11
REMARK    5  A    between atoms: C_14  and  C_18
REMARK                            x       y       z     vdW  Elec       q    Type
REMARK                         _______ _______ _______ _____ _____    ______ ____
ROOT
ATOM      1  C   UNL     1      -1.244  -2.135   0.003  0.00  0.00    +0.182 C 
ATOM      2  C   UNL     1      -0.589  -2.680  -1.285  0.00  0.00    +0.035 C 
ATOM      3  C   UNL     1      -1.503  -3.876  -1.660  0.00  0.00    +0.021 C 
ATOM      4  C   UNL     1      -2.896  -3.351  -1.230  0.00  0.00    +0.106 C 
ATOM      5  N   UNL     1      -2.645  -2.582   0.006  0.00  0.00    -0.316 N 
ENDROOT
BRANCH   5   6
ATOM      6  C   UNL     1      -3.577  -2.321   1.007  0.00  0.00    +0.049 A 
ATOM      7  C   UNL     1      -4.370  -1.180   0.938  0.00  0.00    +0.026 A 
ATOM      8  C   UNL     1      -5.293  -0.920   1.926  0.00  0.00    +0.021 A 
ATOM      9  C   UNL     1      -5.433  -1.804   3.000  0.00  0.00    +0.053 A 
ATOM     10  C   UNL     1      -4.635  -2.950   3.067  0.00  0.00    +0.040 A 
ATOM     11  C   UNL     1      -3.717  -3.207   2.073  0.00  0.00    +0.063 A 
ATOM     12 CL   UNL     1      -2.731  -4.633   2.151  0.00  0.00    -0.082 Cl
BRANCH   9  13
ATOM     13  C   UNL     1      -6.392  -1.536   4.029  0.00  0.00    +0.099 C 
ATOM     14  N   UNL     1      -7.153  -1.323   4.846  0.00  0.00    -0.191 NA
ENDBRANCH   9  13
ENDBRANCH   5   6
BRANCH   1  15
ATOM     15  C   UNL     1      -1.185  -0.630   0.010  0.00  0.00    +0.328 C 
ATOM     16  O   UNL     1      -2.208   0.015   0.023  0.00  0.00    -0.249 OA
BRANCH  15  18
ATOM     17  C   UNL     1      -0.017   1.425   0.010  0.00  0.00    +0.280 C 
ATOM     18  O   UNL     1       0.002  -0.004   0.002  0.00  0.00    -0.467 OA
ENDBRANCH  15  18
ENDBRANCH   1  15
TORSDOF 4
