REMARK  Name = ZINC23256763
REMARK  9 active torsions:
REMARK  status: ('A' for Active; 'I' for Inactive)
REMARK    1  A    between atoms: C_1  and  C_2
REMARK    2  A    between atoms: C_5  and  C_32
REMARK    3  A    between atoms: C_10  and  C_12
REMARK    4  A    between atoms: C_12  and  N_13
REMARK    5  A    between atoms: N_16  and  C_19
REMARK    6  A    between atoms: C_19  and  C_20
REMARK    7  A    between atoms: N_22  and  C_23
REMARK    8  A    between atoms: N_22  and  C_24
REMARK    9  A    between atoms: C_24  and  C_25
REMARK                            x       y       z     vdW  Elec       q    Type
REMARK                         _______ _______ _______ _____ _____    ______ ____
ROOT
ATOM      1  N   UNL     1       4.137  -3.128   1.581  0.00  0.00    -0.292 NA
ATOM      2  C   UNL     1       4.026  -3.847   2.857  0.00  0.00    +0.100 C 
ATOM      3  C   UNL     1       5.067  -4.969   2.900  0.00  0.00    +0.100 C 
ATOM      4  N   UNL     1       6.410  -4.394   2.737  0.00  0.00    -0.292 NA
ATOM      5  C   UNL     1       6.520  -3.675   1.460  0.00  0.00    +0.100 C 
ATOM      6  C   UNL     1       5.480  -2.554   1.418  0.00  0.00    +0.100 C 
ENDROOT
BRANCH   1   7
ATOM      7  C   UNL     1       3.103  -2.090   1.470  0.00  0.00    +0.180 C 
BRANCH   7  15
ATOM      8  C   UNL     1      -0.019   1.526   0.010  0.00  0.00    +0.009 C 
ATOM      9  C   UNL     1       0.002  -0.004   0.002  0.00  0.00    +0.004 C 
ATOM     10  C   UNL     1      -1.433  -0.534   0.015  0.00  0.00    +0.009 C 
ATOM     11  C   UNL     1      -1.414  -2.064  -0.027  0.00  0.00    +0.004 C 
ATOM     12  C   UNL     1      -0.692  -2.596   1.215  0.00  0.00    +0.111 C 
ATOM     13  N   UNL     1       0.639  -1.977   1.288  0.00  0.00    -0.300 N 
ATOM     14  C   UNL     1       0.742  -0.512   1.244  0.00  0.00    +0.111 C 
ATOM     15  C   UNL     1       1.746  -2.740   1.395  0.00  0.00    +0.230 C 
ATOM     16  O   UNL     1       1.648  -3.948   1.431  0.00  0.00    -0.274 OA
ATOM     17  C   UNL     1      -2.850  -2.592  -0.049  0.00  0.00    +0.009 C 
ENDBRANCH   7  15
ENDBRANCH   1   7
BRANCH   4  18
ATOM     18  C   UNL     1       7.443  -5.432   2.849  0.00  0.00    +0.180 C 
BRANCH  18  19
ATOM     19  C   UNL     1       8.801  -4.783   2.923  0.00  0.00    +0.230 C 
ATOM     20  O   UNL     1       8.898  -3.575   2.887  0.00  0.00    -0.274 OA
ATOM     21  N   UNL     1       9.908  -5.545   3.030  0.00  0.00    -0.299 N 
ATOM     22  C   UNL     1       9.790  -7.005   3.073  0.00  0.00    +0.132 C 
BRANCH  21  23
ATOM     23  C   UNL     1      11.228  -4.914   3.102  0.00  0.00    +0.142 C 
BRANCH  23  24
ATOM     24  C   UNL     1      11.578  -4.647   4.543  0.00  0.00    -0.030 A 
ATOM     25  C   UNL     1      11.222  -3.448   5.130  0.00  0.00    +0.006 A 
ATOM     26  C   UNL     1      11.543  -3.203   6.452  0.00  0.00    +0.015 A 
ATOM     27  C   UNL     1      12.221  -4.158   7.188  0.00  0.00    +0.018 A 
ATOM     28  C   UNL     1      12.578  -5.359   6.599  0.00  0.00    +0.015 A 
ATOM     29  C   UNL     1      12.251  -5.605   5.279  0.00  0.00    +0.006 A 
ATOM     30 BR   UNL     1      12.662  -3.824   8.996  0.00  0.00    -0.050 Br
ENDBRANCH  23  24
ENDBRANCH  21  23
ENDBRANCH  18  19
ENDBRANCH   4  18
TORSDOF 6
