REMARK  Name = ZINC62942748
REMARK  2 active torsions:
REMARK  status: ('A' for Active; 'I' for Inactive)
REMARK    1  A    between atoms: C_4  and  C_21
REMARK    2  A    between atoms: C_6  and  N_10
REMARK                            x       y       z     vdW  Elec       q    Type
REMARK                         _______ _______ _______ _____ _____    ______ ____
ROOT
ATOM      1  N   UNL     1      -0.380  -1.418  -3.340  0.00  0.00    +0.383 N 
ATOM      2  C   UNL     1      -1.742  -1.465  -2.804  0.00  0.00    -0.077 C 
ATOM      3  C   UNL     1      -2.823  -1.850  -3.799  0.00  0.00    -0.003 C 
ATOM      4  C   UNL     1      -2.590  -1.130  -5.143  0.00  0.00    +0.083 C 
ATOM      5  N   UNL     1      -1.793  -2.004  -5.964  0.00  0.00    -0.301 NA
ATOM      6  C   UNL     1      -1.926  -1.973  -7.416  0.00  0.00    +0.084 C 
ATOM      7  C   UNL     1      -0.714  -2.777  -7.955  0.00  0.00    +0.017 C 
ATOM      8  C   UNL     1       0.085  -3.201  -6.690  0.00  0.00    +0.018 C 
ATOM      9  C   UNL     1      -0.409  -2.185  -5.642  0.00  0.00    +0.040 C 
ATOM     10  C   UNL     1      -0.114  -2.578  -4.212  0.00  0.00    -0.059 C 
ATOM     11  H   UNL     1      -0.264  -0.569  -3.872  0.00  0.00    -0.081 HD
ENDROOT
BRANCH   1  16
ATOM     12  C   UNL     1      -0.064  -2.281   0.937  0.00  0.00    -0.000 C 
ATOM     13  C   UNL     1      -0.329  -0.850   0.936  0.00  0.00    +0.001 C 
ATOM     14  C   UNL     1      -0.846  -0.349  -0.428  0.00  0.00    +0.013 C 
ATOM     15  C   UNL     1       0.329  -0.179  -1.352  0.00  0.00    +0.089 C 
ATOM     16  C   UNL     1       0.577  -1.423  -2.225  0.00  0.00    -0.055 C 
ATOM     17  C   UNL     1       0.420  -2.742  -1.444  0.00  0.00    -0.014 C 
ATOM     18  C   UNL     1       1.034  -2.676  -0.072  0.00  0.00    -0.002 C 
BRANCH  15  19
ATOM     19  C   UNL     1       0.075   1.003  -2.251  0.00  0.00    +0.357 C 
ATOM     20  O   UNL     1      -1.000   1.577  -2.215  0.00  0.00    -0.246 OA
ATOM     21  O   UNL     1       0.945   1.386  -3.015  0.00  0.00    -0.246 OA
ENDBRANCH  15  19
ENDBRANCH   1  16
TORSDOF 2
