REMARK  Name = ZINC16756572
REMARK  6 active torsions:
REMARK  status: ('A' for Active; 'I' for Inactive)
REMARK    1  A    between atoms: C_1  and  C_2
REMARK    2  A    between atoms: C_2  and  C_4
REMARK    3  A    between atoms: C_2  and  O_15
REMARK    4  A    between atoms: N_6  and  C_7
REMARK    5  A    between atoms: O_15  and  C_16
REMARK    6  A    between atoms: C_16  and  C_18
REMARK                            x       y       z     vdW  Elec       q    Type
REMARK                         _______ _______ _______ _____ _____    ______ ____
ROOT
ATOM      1  O   UNL     1       4.850   0.059  -0.038  0.00  0.00    -0.449 OA
ENDROOT
BRANCH   1   3
ATOM      2  C   UNL     1       6.494  -0.959  -1.519  0.00  0.00    +0.062 C 
ATOM      3  C   UNL     1       6.088  -0.699  -0.067  0.00  0.00    +0.259 C 
BRANCH   3   4
ATOM      4  C   UNL     1       7.173   0.086   0.625  0.00  0.00    +0.258 C 
ATOM      5  O   UNL     1       6.926   1.177   1.095  0.00  0.00    -0.271 OA
ATOM      6  N   UNL     1       8.417  -0.423   0.721  0.00  0.00    -0.280 N 
ATOM      7  H   UNL     1       8.599  -1.321   0.402  0.00  0.00    +0.155 HD
BRANCH   6   8
ATOM      8  C   UNL     1       9.447   0.344   1.280  0.00  0.00    +0.072 A 
ATOM      9  C   UNL     1       9.175   1.219   2.321  0.00  0.00    +0.064 A 
ATOM     10  C   UNL     1      10.194   1.976   2.872  0.00  0.00    +0.125 A 
ATOM     11  C   UNL     1      11.485   1.859   2.384  0.00  0.00    +0.041 A 
ATOM     12  C   UNL     1      11.759   0.988   1.346  0.00  0.00    +0.043 A 
ATOM     13  C   UNL     1      10.745   0.225   0.796  0.00  0.00    +0.145 A 
ATOM     14  F   UNL     1      11.014  -0.630  -0.215  0.00  0.00    -0.204 F 
ATOM     15  F   UNL     1       9.930   2.828   3.886  0.00  0.00    -0.205 F 
ENDBRANCH   6   8
ENDBRANCH   3   4
ENDBRANCH   1   3
BRANCH   1  16
ATOM     16  C   UNL     1       3.701  -0.647  -0.018  0.00  0.00    +0.340 C 
ATOM     17  O   UNL     1       3.735  -1.862  -0.023  0.00  0.00    -0.245 OA
BRANCH  16  18
ATOM     18  C   UNL     1       2.406   0.055   0.012  0.00  0.00    +0.061 A 
ATOM     19  C   UNL     1       2.369   1.453   0.018  0.00  0.00    +0.016 A 
ATOM     20  C   UNL     1       1.157   2.105   0.043  0.00  0.00    +0.017 A 
ATOM     21  C   UNL     1      -0.025   1.377   0.062  0.00  0.00    +0.030 A 
ATOM     22  C   UNL     1      -0.004  -0.022   0.060  0.00  0.00    +0.048 A 
ATOM     23  C   UNL     1       1.217  -0.678   0.033  0.00  0.00    +0.039 A 
ATOM     24  N   UNL     1      -1.179  -0.768   0.090  0.00  0.00    -0.284 N 
ATOM     25  C   UNL     1      -2.387  -0.349  -0.279  0.00  0.00    +0.227 C 
ATOM     26  O   UNL     1      -3.312  -1.130  -0.203  0.00  0.00    -0.275 OA
ATOM     27  C   UNL     1      -2.668   1.039  -0.784  0.00  0.00    +0.170 C 
ATOM     28  S   UNL     1      -1.581   2.210   0.082  0.00  0.00    -0.114 S 
ATOM     29  H   UNL     1      -1.111  -1.682   0.410  0.00  0.00    +0.155 HD
ENDBRANCH  16  18
ENDBRANCH   1  16
TORSDOF 5
