REMARK  Name = ZINC34731213
REMARK  8 active torsions:
REMARK  status: ('A' for Active; 'I' for Inactive)
REMARK    1  A    between atoms: C_1  and  C_2
REMARK    2  A    between atoms: C_2  and  C_3
REMARK    3  A    between atoms: C_4  and  C_27
REMARK    4  A    between atoms: N_11  and  C_26
REMARK    5  A    between atoms: N_14  and  C_17
REMARK    6  A    between atoms: C_17  and  C_18
REMARK    7  A    between atoms: C_21  and  C_25
REMARK    8  A    between atoms: C_23  and  C_24
REMARK                            x       y       z     vdW  Elec       q    Type
REMARK                         _______ _______ _______ _____ _____    ______ ____
ROOT
ATOM      1  C   UNL     1       0.742  -0.402   1.033  0.00  0.00    -0.040 C 
ATOM      2  C   UNL     1       0.117  -0.734   2.147  0.00  0.00    -0.064 C 
ATOM      3  C   UNL     1       1.168  -1.170   3.143  0.00  0.00    +0.073 C 
ATOM      4  C   UNL     1       2.470  -1.030   2.414  0.00  0.00    +0.004 A 
ATOM      5  C   UNL     1       2.216  -0.580   1.157  0.00  0.00    +0.003 A 
ATOM      6  C   UNL     1       3.395  -0.387   0.284  0.00  0.00    +0.078 A 
ATOM      7  C   UNL     1       3.426   0.091  -1.113  0.00  0.00    +0.265 A 
ATOM      8  O   UNL     1       2.394   0.383  -1.689  0.00  0.00    -0.267 OA
ATOM      9  N   UNL     1       4.611   0.200  -1.742  0.00  0.00    -0.263 N 
ATOM     10  C   UNL     1       5.767  -0.115  -1.135  0.00  0.00    +0.333 A 
ATOM     11  O   UNL     1       6.811   0.001  -1.747  0.00  0.00    -0.246 OA
ATOM     12  N   UNL     1       5.793  -0.555   0.138  0.00  0.00    -0.283 N 
ATOM     13  C   UNL     1       4.631  -0.692   0.846  0.00  0.00    +0.098 A 
ATOM     14  S   UNL     1       4.231  -1.209   2.494  0.00  0.00    -0.074 S 
ATOM     15  C   UNL     1       4.640   0.674  -3.128  0.00  0.00    +0.157 C 
ATOM     16  C   UNL     1      -1.371  -0.686   2.384  0.00  0.00    +0.039 C 
ENDROOT
BRANCH   1  18
ATOM     17  C   UNL     1       0.051   1.619  -0.227  0.00  0.00    +0.009 C 
ATOM     18  C   UNL     1       0.050   0.089  -0.212  0.00  0.00    +0.032 C 
ENDBRANCH   1  18
BRANCH  12  19
ATOM     19  C   UNL     1       7.072  -0.888   0.768  0.00  0.00    +0.162 C 
BRANCH  19  20
ATOM     20  C   UNL     1       7.682   0.358   1.357  0.00  0.00    -0.025 A 
ATOM     21  C   UNL     1       6.969   1.542   1.359  0.00  0.00    +0.006 A 
ATOM     22  C   UNL     1       7.528   2.685   1.900  0.00  0.00    +0.004 A 
ATOM     23  C   UNL     1       8.800   2.643   2.439  0.00  0.00    -0.050 A 
ATOM     24  C   UNL     1       9.513   1.459   2.438  0.00  0.00    +0.007 A 
ATOM     25  C   UNL     1       8.952   0.315   1.901  0.00  0.00    -0.045 A 
ATOM     26  C   UNL     1       9.727  -0.977   1.905  0.00  0.00    +0.044 C 
ATOM     27  C   UNL     1       9.410   3.889   3.027  0.00  0.00    +0.044 C 
ENDBRANCH  19  20
ENDBRANCH  12  19
TORSDOF 3
