REMARK  Name = ZINC00329395
REMARK  5 active torsions:
REMARK  status: ('A' for Active; 'I' for Inactive)
REMARK    1  A    between atoms: C_1  and  C_2
REMARK    2  A    between atoms: C_5  and  N_9
REMARK    3  A    between atoms: C_6  and  C_8
REMARK    4  A    between atoms: C_16  and  C_18
REMARK    5  A    between atoms: N_22  and  C_23
REMARK                            x       y       z     vdW  Elec       q    Type
REMARK                         _______ _______ _______ _____ _____    ______ ____
ROOT
ATOM      1  N   UNL     1       0.610   7.190  -0.680  0.00  0.00    -0.269 N 
ATOM      2  C   UNL     1       0.056   6.127  -0.064  0.00  0.00    +0.308 C 
ATOM      3  O   UNL     1       0.530   5.712   0.977  0.00  0.00    -0.252 OA
ATOM      4  N   UNL     1      -1.023   5.523  -0.600  0.00  0.00    -0.267 N 
ATOM      5  C   UNL     1      -1.627   5.986  -1.846  0.00  0.00    +0.121 C 
ATOM      6  C   UNL     1      -3.163   5.726  -1.847  0.00  0.00    +0.090 C 
ATOM      7  S   UNL     1      -3.161   4.078  -0.999  0.00  0.00    -0.131 S 
ATOM      8  C   UNL     1      -1.663   4.357   0.037  0.00  0.00    +0.182 C 
ATOM      9  H   UNL     1       0.198   7.556  -1.478  0.00  0.00    +0.156 HD
ENDROOT
BRANCH   1  14
ATOM     10  C   UNL     1       5.347   9.522   1.395  0.00  0.00    +0.044 C 
ATOM     11  C   UNL     1       4.089   8.902   0.844  0.00  0.00    -0.050 A 
ATOM     12  C   UNL     1       3.240   8.203   1.682  0.00  0.00    +0.005 A 
ATOM     13  C   UNL     1       2.083   7.639   1.181  0.00  0.00    +0.024 A 
ATOM     14  C   UNL     1       1.778   7.765  -0.168  0.00  0.00    +0.038 A 
ATOM     15  C   UNL     1       2.633   8.468  -1.007  0.00  0.00    -0.029 A 
ATOM     16  C   UNL     1       3.785   9.035  -0.498  0.00  0.00    +0.008 A 
ATOM     17  C   UNL     1       2.303   8.612  -2.470  0.00  0.00    +0.045 C 
ENDBRANCH   1  14
BRANCH   8  18
ATOM     18  C   UNL     1      -0.752   3.157  -0.010  0.00  0.00    +0.049 A 
ATOM     19  C   UNL     1      -0.343   2.519  -1.125  0.00  0.00    +0.025 A 
ATOM     20  C   UNL     1       0.492   1.459  -0.721  0.00  0.00    +0.019 A 
ATOM     21  C   UNL     1       0.562   1.490   0.625  0.00  0.00    +0.085 A 
ATOM     22  N   UNL     1      -0.205   2.527   1.068  0.00  0.00    -0.351 N 
ATOM     23  C   UNL     1      -0.404   2.904   2.469  0.00  0.00    +0.148 C 
ENDBRANCH   8  18
TORSDOF 2
