REMARK  Name = ZINC64126791
REMARK  4 active torsions:
REMARK  status: ('A' for Active; 'I' for Inactive)
REMARK    1  A    between atoms: C_1  and  C_2
REMARK    2  A    between atoms: C_3  and  C_14
REMARK    3  A    between atoms: N_19  and  C_22
REMARK    4  A    between atoms: C_22  and  C_23
REMARK                            x       y       z     vdW  Elec       q    Type
REMARK                         _______ _______ _______ _____ _____    ______ ____
ROOT
ATOM      1  C   UNL     1       0.299  -0.570  -2.231  0.00  0.00    +0.250 C 
ATOM      2  O   UNL     1       0.448  -1.018  -1.111  0.00  0.00    -0.270 OA
ATOM      3  N   UNL     1       0.127  -1.405  -3.274  0.00  0.00    -0.301 N 
ATOM      4  C   UNL     1      -0.021  -2.854  -3.067  0.00  0.00    +0.089 C 
ATOM      5  C   UNL     1       0.958  -3.580  -3.995  0.00  0.00    -0.060 C 
ATOM      6  N   UNL     1       0.737  -3.140  -5.379  0.00  0.00    +0.382 N 
ATOM      7  C   UNL     1       1.056  -1.713  -5.507  0.00  0.00    -0.060 C 
ATOM      8  C   UNL     1       0.076  -0.894  -4.653  0.00  0.00    +0.089 C 
ATOM      9  H   UNL     1      -0.229  -3.292  -5.628  0.00  0.00    -0.082 HD
ENDROOT
BRANCH   1  12
ATOM     10  C   UNL     1       2.210   1.497  -0.822  0.00  0.00    +0.066 C 
ATOM     11  C   UNL     1       1.139   1.804  -1.836  0.00  0.00    +0.056 A 
ATOM     12  C   UNL     1       0.306   0.888  -2.448  0.00  0.00    +0.078 A 
ATOM     13  C   UNL     1      -0.538   1.611  -3.321  0.00  0.00    +0.148 A 
ATOM     14  N   UNL     1      -0.226   2.874  -3.233  0.00  0.00    -0.172 NA
ATOM     15  N   UNL     1       0.814   3.021  -2.308  0.00  0.00    -0.216 N 
ATOM     16  C   UNL     1       1.416   4.230  -1.940  0.00  0.00    +0.176 A 
ATOM     17  C   UNL     1       1.387   5.319  -2.810  0.00  0.00    +0.055 A 
ATOM     18  C   UNL     1       1.997   6.493  -2.400  0.00  0.00    +0.077 A 
ATOM     19  C   UNL     1       2.601   6.513  -1.145  0.00  0.00    +0.289 A 
ATOM     20  O   UNL     1       3.210   7.641  -0.701  0.00  0.00    -0.264 OA
ATOM     21  N   UNL     1       2.578   5.429  -0.386  0.00  0.00    -0.105 NA
ATOM     22  N   UNL     1       2.009   4.343  -0.763  0.00  0.00    -0.126 NA
ENDBRANCH   1  12
BRANCH   6  23
ATOM     23  C   UNL     1       1.598  -3.916  -6.281  0.00  0.00    -0.075 C 
BRANCH  23  24
ATOM     24  C   UNL     1       1.162  -5.382  -6.268  0.00  0.00    -0.028 C 
ATOM     25  C   UNL     1      -0.250  -5.500  -6.845  0.00  0.00    +0.002 C 
ATOM     26  C   UNL     1      -0.686  -6.966  -6.832  0.00  0.00    +0.000 C 
ATOM     27  C   UNL     1       0.282  -7.794  -7.679  0.00  0.00    +0.000 C 
ATOM     28  C   UNL     1       1.694  -7.677  -7.102  0.00  0.00    +0.000 C 
ATOM     29  C   UNL     1       2.131  -6.210  -7.115  0.00  0.00    +0.002 C 
ENDBRANCH  23  24
ENDBRANCH   6  23
TORSDOF 3
