REMARK  Name = ZINC31863278
REMARK  4 active torsions:
REMARK  status: ('A' for Active; 'I' for Inactive)
REMARK    1  A    between atoms: C_1  and  C_2
REMARK    2  A    between atoms: C_5  and  C_8
REMARK    3  A    between atoms: C_9  and  C_10
REMARK    4  A    between atoms: C_18  and  N_19
REMARK                            x       y       z     vdW  Elec       q    Type
REMARK                         _______ _______ _______ _____ _____    ______ ____
ROOT
ATOM      1  C   UNL     1       2.423   1.051  -0.015  0.00  0.00    +0.161 A 
ATOM      2  N   UNL     1       2.589  -0.261  -0.018  0.00  0.00    -0.129 NA
ATOM      3  N   UNL     1       3.844  -0.547  -0.037  0.00  0.00    -0.127 NA
ATOM      4  C   UNL     1       4.559   0.569  -0.038  0.00  0.00    +0.182 A 
ATOM      5  N   UNL     1       3.673   1.617  -0.024  0.00  0.00    -0.280 N 
ATOM      6  C   UNL     1       4.121   2.905  -0.022  0.00  0.00    +0.110 A 
ATOM      7  C   UNL     1       5.446   3.173  -0.033  0.00  0.00    +0.036 A 
ATOM      8  C   UNL     1       6.382   2.126  -0.047  0.00  0.00    +0.043 A 
ATOM      9  C   UNL     1       5.947   0.829  -0.050  0.00  0.00    +0.071 A 
ATOM     10 BR   UNL     1       6.043   4.967  -0.030  0.00  0.00    -0.049 Br
ENDROOT
BRANCH   9  11
ATOM     11  N   UNL     1       6.862  -0.224  -0.063  0.00  0.00    -0.355 N 
ATOM     12  H   UNL     1       7.942  -0.013  -0.072  0.00  0.00    +0.142 HD
ATOM     13  H   UNL     1       6.505  -1.264  -0.065  0.00  0.00    +0.142 HD
ENDBRANCH   9  11
BRANCH   1  15
ATOM     14  C   UNL     1      -0.013   1.076   0.008  0.00  0.00    +0.011 C 
ATOM     15  C   UNL     1       1.146   1.766   0.001  0.00  0.00    +0.049 C 
BRANCH  14  20
ATOM     16  C   UNL     1      -5.030   3.882   0.049  0.00  0.00    +0.044 C 
ATOM     17  C   UNL     1      -3.715   3.147   0.038  0.00  0.00    -0.050 A 
ATOM     18  C   UNL     1      -3.700   1.763   0.030  0.00  0.00    +0.004 A 
ATOM     19  C   UNL     1      -2.501   1.082   0.020  0.00  0.00    +0.008 A 
ATOM     20  C   UNL     1      -1.297   1.794   0.018  0.00  0.00    -0.025 A 
ATOM     21  C   UNL     1      -1.320   3.193   0.032  0.00  0.00    +0.008 A 
ATOM     22  C   UNL     1      -2.528   3.858   0.036  0.00  0.00    +0.004 A 
ENDBRANCH  14  20
ENDBRANCH   1  15
TORSDOF 3
