REMARK  Name = ZINC20756304
REMARK  3 active torsions:
REMARK  status: ('A' for Active; 'I' for Inactive)
REMARK    1  A    between atoms: C_5  and  C_7
REMARK    2  A    between atoms: C_11  and  C_20
REMARK    3  A    between atoms: C_23  and  N_26
REMARK                            x       y       z     vdW  Elec       q    Type
REMARK                         _______ _______ _______ _____ _____    ______ ____
ROOT
ATOM      1  C   UNL     1       1.695   6.833   0.309  0.00  0.00    +0.001 A 
ATOM      2  C   UNL     1       1.850   5.786   1.202  0.00  0.00    +0.006 A 
ATOM      3  C   UNL     1       2.448   4.608   0.812  0.00  0.00    -0.019 A 
ATOM      4  C   UNL     1       2.924   4.450  -0.493  0.00  0.00    +0.044 A 
ATOM      5  C   UNL     1       2.756   5.519  -1.397  0.00  0.00    +0.058 A 
ATOM      6  C   UNL     1       2.143   6.702  -0.987  0.00  0.00    +0.015 A 
ATOM      7  N   UNL     1       3.574   3.317  -0.954  0.00  0.00    -0.336 N 
ATOM      8  C   UNL     1       3.672   2.182  -0.023  0.00  0.00    +0.105 C 
ATOM      9  C   UNL     1       3.940   2.756   1.353  0.00  0.00    +0.029 C 
ATOM     10  C   UNL     1       2.610   3.471   1.746  0.00  0.00    +0.049 C 
ATOM     11  C   UNL     1       2.746   3.652   3.212  0.00  0.00    -0.023 C 
ATOM     12  C   UNL     1       3.520   2.682   3.686  0.00  0.00    -0.030 C 
ATOM     13  C   UNL     1       3.997   1.787   2.539  0.00  0.00    +0.033 C 
ATOM     14  H   UNL     1       4.005   3.241  -1.962  0.00  0.00    +0.147 HD
ENDROOT
BRANCH   8  15
ATOM     15  C   UNL     1       2.377   1.411  -0.015  0.00  0.00    -0.027 A 
ATOM     16  C   UNL     1       1.201   2.031  -0.391  0.00  0.00    +0.008 A 
ATOM     17  C   UNL     1       0.013   1.324  -0.384  0.00  0.00    +0.033 A 
ATOM     18  C   UNL     1       0.002  -0.004   0.002  0.00  0.00    +0.126 A 
ATOM     19  C   UNL     1       1.178  -0.624   0.380  0.00  0.00    +0.033 A 
ATOM     20  C   UNL     1       2.366   0.083   0.371  0.00  0.00    +0.008 A 
BRANCH  18  21
ATOM     21  N   UNL     1      -1.270  -0.761   0.011  0.00  0.00    +0.056 N 
ATOM     22  O   UNL     1      -2.306  -0.214  -0.322  0.00  0.00    -0.126 OA
ATOM     23  O   UNL     1      -1.280  -1.931   0.350  0.00  0.00    -0.126 OA
ENDBRANCH  18  21
ENDBRANCH   8  15
BRANCH   5  24
ATOM     24  C   UNL     1       3.232   5.385  -2.786  0.00  0.00    +0.243 C 
ATOM     25  O   UNL     1       3.768   4.355  -3.148  0.00  0.00    -0.270 OA
ATOM     26  N   UNL     1       3.074   6.404  -3.654  0.00  0.00    -0.325 N 
ATOM     27  H   UNL     1       3.429   6.303  -4.691  0.00  0.00    +0.145 HD
ATOM     28  H   UNL     1       2.589   7.335  -3.327  0.00  0.00    +0.145 HD
ENDBRANCH   5  24
TORSDOF 3
