REMARK  Name = ZINC36006198
REMARK  5 active torsions:
REMARK  status: ('A' for Active; 'I' for Inactive)
REMARK    1  A    between atoms: C_1  and  C_2
REMARK    2  A    between atoms: N_8  and  C_11
REMARK    3  A    between atoms: N_18  and  C_19
REMARK    4  A    between atoms: C_22  and  N_25
REMARK    5  A    between atoms: C_26  and  C_28
REMARK                            x       y       z     vdW  Elec       q    Type
REMARK                         _______ _______ _______ _____ _____    ______ ____
ROOT
ATOM      1  C   UNL     1      -0.018   1.503   0.010  0.00  0.00    +0.088 C 
ATOM      2  C   UNL     1       0.002  -0.004   0.002  0.00  0.00    +0.130 A 
ATOM      3  N   UNL     1       0.005  -0.632  -1.161  0.00  0.00    -0.217 NA
ATOM      4  C   UNL     1       0.023  -1.959  -1.226  0.00  0.00    +0.133 A 
ATOM      5  C   UNL     1       0.039  -2.688  -0.022  0.00  0.00    +0.079 A 
ATOM      6  C   UNL     1       0.060  -4.061   0.308  0.00  0.00    +0.148 A 
ATOM      7  N   UNL     1       0.068  -4.175   1.606  0.00  0.00    -0.172 NA
ATOM      8  N   UNL     1       0.053  -2.902   2.192  0.00  0.00    -0.214 N 
ATOM      9  C   UNL     1       0.035  -1.972   1.192  0.00  0.00    +0.168 A 
ATOM     10  N   UNL     1       0.022  -0.641   1.152  0.00  0.00    -0.213 NA
ATOM     11  N   UNL     1       0.026  -2.607  -2.446  0.00  0.00    -0.326 N 
ATOM     12  H   UNL     1       0.039  -3.576  -2.480  0.00  0.00    +0.148 HD
ENDROOT
BRANCH   8  13
ATOM     13  C   UNL     1       0.055  -2.631   3.566  0.00  0.00    +0.068 A 
ATOM     14  C   UNL     1       0.727  -1.518   4.054  0.00  0.00    +0.030 A 
ATOM     15  C   UNL     1       0.728  -1.252   5.409  0.00  0.00    +0.040 A 
ATOM     16  C   UNL     1       0.059  -2.095   6.282  0.00  0.00    +0.124 A 
ATOM     17  C   UNL     1      -0.611  -3.205   5.797  0.00  0.00    +0.040 A 
ATOM     18  C   UNL     1      -0.619  -3.471   4.442  0.00  0.00    +0.030 A 
ATOM     19  F   UNL     1       0.062  -1.833   7.607  0.00  0.00    -0.205 F 
ENDBRANCH   8  13
BRANCH  11  20
ATOM     20  C   UNL     1       0.008  -1.830  -3.688  0.00  0.00    +0.072 C 
ATOM     21  C   UNL     1      -1.436  -1.473  -4.046  0.00  0.00    +0.024 C 
ATOM     22  C   UNL     1      -2.246  -2.757  -4.236  0.00  0.00    +0.024 C 
ATOM     23  C   UNL     1      -1.631  -3.587  -5.364  0.00  0.00    +0.073 C 
ATOM     24  C   UNL     1      -0.187  -3.944  -5.006  0.00  0.00    +0.024 C 
ATOM     25  C   UNL     1       0.624  -2.660  -4.817  0.00  0.00    +0.024 C 
BRANCH  23  26
ATOM     26  N   UNL     1      -2.407  -4.816  -5.546  0.00  0.00    -0.312 N 
ATOM     27  C   UNL     1      -2.404  -5.446  -6.738  0.00  0.00    +0.216 C 
ATOM     28  O   UNL     1      -1.758  -4.994  -7.660  0.00  0.00    -0.276 OA
ATOM     29  H   UNL     1      -2.924  -5.177  -4.808  0.00  0.00    +0.149 HD
BRANCH  27  30
ATOM     30  C   UNL     1      -3.202  -6.710  -6.924  0.00  0.00    +0.075 C 
ATOM     31  C   UNL     1      -2.482  -7.973  -6.423  0.00  0.00    +0.013 C 
ATOM     32  C   UNL     1      -3.035  -8.687  -7.668  0.00  0.00    +0.001 C 
ATOM     33  C   UNL     1      -3.093  -7.304  -8.338  0.00  0.00    +0.013 C 
ENDBRANCH  27  30
ENDBRANCH  23  26
ENDBRANCH  11  20
TORSDOF 4
