REMARK  Name = ZINC62953444
REMARK  1 active torsions:
REMARK  status: ('A' for Active; 'I' for Inactive)
REMARK    1  A    between atoms: C_2  and  N_17
REMARK                            x       y       z     vdW  Elec       q    Type
REMARK                         _______ _______ _______ _____ _____    ______ ____
ROOT
ATOM      1  C   UNL     1      -0.016   1.319   0.009  0.00  0.00    +0.138 A 
ATOM      2  C   UNL     1       1.191   2.012   0.002  0.00  0.00    +0.061 A 
ATOM      3  C   UNL     1       2.375   1.281  -0.014  0.00  0.00    +0.138 A 
ATOM      4  N   UNL     1       2.315  -0.041  -0.020  0.00  0.00    -0.221 NA
ATOM      5  C   UNL     1       1.148  -0.667  -0.013  0.00  0.00    +0.218 A 
ATOM      6  N   UNL     1       0.002  -0.004   0.002  0.00  0.00    -0.221 NA
ATOM      7  N   UNL     1       1.126  -2.054  -0.020  0.00  0.00    -0.300 N 
ATOM      8  C   UNL     1       2.379  -2.821  -0.031  0.00  0.00    +0.108 C 
ATOM      9  C   UNL     1       2.349  -3.796  -1.213  0.00  0.00    +0.026 C 
ATOM     10  C   UNL     1       1.080  -4.637  -1.146  0.00  0.00    -0.026 C 
ATOM     11  C   UNL     1       1.058  -5.656  -2.305  0.00  0.00    +0.007 C 
ATOM     12  C   UNL     1       0.125  -6.769  -1.763  0.00  0.00    +0.001 C 
ATOM     13  C   UNL     1       0.469  -6.856  -0.262  0.00  0.00    +0.001 C 
ATOM     14  C   UNL     1       1.073  -5.494   0.131  0.00  0.00    +0.007 C 
ATOM     15  C   UNL     1      -0.163  -3.756  -1.201  0.00  0.00    +0.026 C 
ATOM     16  C   UNL     1      -0.150  -2.781  -0.012  0.00  0.00    +0.108 C 
ENDROOT
BRANCH   2  17
ATOM     17  N   UNL     1       1.213   3.413   0.008  0.00  0.00    -0.356 N 
ATOM     18  H   UNL     1       0.381   3.911   0.019  0.00  0.00    +0.142 HD
ATOM     19  H   UNL     1       2.060   3.885   0.003  0.00  0.00    +0.142 HD
ENDBRANCH   2  17
TORSDOF 1
