REMARK  Name = ZINC57569405
REMARK  9 active torsions:
REMARK  status: ('A' for Active; 'I' for Inactive)
REMARK    1  A    between atoms: C_1  and  C_2
REMARK    2  A    between atoms: C_2  and  C_3
REMARK    3  A    between atoms: C_2  and  N_4
REMARK    4  A    between atoms: N_4  and  C_5
REMARK    5  A    between atoms: N_4  and  C_18
REMARK    6  A    between atoms: C_5  and  C_6
REMARK    7  A    between atoms: C_18  and  C_19
REMARK    8  A    between atoms: N_21  and  C_22
REMARK    9  A    between atoms: C_23  and  C_27
REMARK                            x       y       z     vdW  Elec       q    Type
REMARK                         _______ _______ _______ _____ _____    ______ ____
ROOT
ATOM      1  N   UNL     1      -1.261  -0.511  -0.164  0.00  0.00    -0.284 NA
ENDROOT
BRANCH   1   3
ATOM      2  C   UNL     1       1.177  -0.657  -0.339  0.00  0.00    +0.024 C 
ATOM      3  C   UNL     1      -0.119  -0.279  -1.058  0.00  0.00    +0.051 C 
ATOM      4  C   UNL     1      -0.274  -1.136  -2.316  0.00  0.00    +0.024 C 
ENDBRANCH   1   3
BRANCH   1   5
ATOM      5  C   UNL     1      -1.330  -1.919   0.247  0.00  0.00    +0.159 C 
BRANCH   5   6
ATOM      6  C   UNL     1      -0.464  -2.132   1.462  0.00  0.00    +0.126 A 
ATOM      7  N   UNL     1       0.072  -1.087   2.029  0.00  0.00    -0.194 NA
ATOM      8  H   UNL     1      -0.716  -4.127   1.445  0.00  0.00    +0.167 HD
ATOM      9  C   UNL     1       0.857  -1.196   3.117  0.00  0.00    +0.281 A 
ATOM     10  O   UNL     1       1.350  -0.210   3.636  0.00  0.00    -0.265 OA
ATOM     11  C   UNL     1       1.103  -2.543   3.663  0.00  0.00    +0.065 A 
ATOM     12  C   UNL     1       1.901  -2.753   4.785  0.00  0.00    +0.015 A 
ATOM     13  C   UNL     1       2.094  -4.036   5.249  0.00  0.00    +0.001 A 
ATOM     14  C   UNL     1       1.500  -5.114   4.607  0.00  0.00    +0.002 A 
ATOM     15  C   UNL     1       0.708  -4.921   3.494  0.00  0.00    +0.026 A 
ATOM     16  C   UNL     1       0.501  -3.636   3.012  0.00  0.00    +0.053 A 
ATOM     17  N   UNL     1      -0.288  -3.388   1.907  0.00  0.00    -0.342 N 
ENDBRANCH   5   6
ENDBRANCH   1   5
BRANCH   1  18
ATOM     18  C   UNL     1      -2.518  -0.083  -0.792  0.00  0.00    +0.181 C 
BRANCH  18  19
ATOM     19  C   UNL     1      -2.629   1.418  -0.723  0.00  0.00    +0.232 C 
ATOM     20  O   UNL     1      -1.740   2.069  -0.216  0.00  0.00    -0.274 OA
ATOM     21  N   UNL     1      -3.716   2.038  -1.224  0.00  0.00    -0.278 N 
ATOM     22  H   UNL     1      -4.427   1.517  -1.629  0.00  0.00    +0.155 HD
BRANCH  21  23
ATOM     23  C   UNL     1      -3.818   3.419  -1.160  0.00  0.00    +0.084 A 
ATOM     24  C   UNL     1      -4.856   4.219  -1.615  0.00  0.00    +0.065 A 
ATOM     25  C   UNL     1      -4.707   5.643  -1.420  0.00  0.00    +0.022 A 
ATOM     26  C   UNL     1      -3.570   6.037  -0.816  0.00  0.00    +0.048 A 
ATOM     27  S   UNL     1      -2.719   4.505  -0.508  0.00  0.00    -0.081 S 
BRANCH  24  28
ATOM     28  C   UNL     1      -6.043   3.649  -2.259  0.00  0.00    +0.244 C 
ATOM     29  O   UNL     1      -6.137   2.445  -2.407  0.00  0.00    -0.270 OA
ATOM     30  N   UNL     1      -7.032   4.460  -2.688  0.00  0.00    -0.325 N 
ATOM     31  H   UNL     1      -6.957   5.419  -2.570  0.00  0.00    +0.145 HD
ATOM     32  H   UNL     1      -7.817   4.083  -3.115  0.00  0.00    +0.145 HD
ENDBRANCH  24  28
ENDBRANCH  21  23
ENDBRANCH  18  19
ENDBRANCH   1  18
TORSDOF 7
