REMARK  Name = ZINC66512737
REMARK  6 active torsions:
REMARK  status: ('A' for Active; 'I' for Inactive)
REMARK    1  A    between atoms: C_1  and  C_2
REMARK    2  A    between atoms: C_2  and  C_30
REMARK    3  A    between atoms: C_5  and  C_24
REMARK    4  A    between atoms: C_9  and  C_11
REMARK    5  A    between atoms: C_11  and  C_12
REMARK    6  A    between atoms: N_21  and  C_23
REMARK                            x       y       z     vdW  Elec       q    Type
REMARK                         _______ _______ _______ _____ _____    ______ ____
ROOT
ATOM      1  C   UNL     1      -0.027   1.526   0.018  0.00  0.00    +0.034 C 
ATOM      2  C   UNL     1      -0.002  -0.003   0.006  0.00  0.00    +0.055 C 
ATOM      3  C   UNL     1      -1.427  -0.544   0.172  0.00  0.00    +0.186 C 
ATOM      4  O   UNL     1      -1.375  -1.962   0.345  0.00  0.00    -0.368 OA
ATOM      5  C   UNL     1      -0.676  -2.383   1.519  0.00  0.00    +0.166 C 
ATOM      6  C   UNL     1       0.787  -1.936   1.422  0.00  0.00    +0.144 C 
ATOM      7  N   UNL     1       0.814  -0.495   1.127  0.00  0.00    -0.291 N 
ATOM      8  C   UNL     1       1.565   0.350   1.861  0.00  0.00    +0.222 C 
ATOM      9  O   UNL     1       1.508   1.544   1.658  0.00  0.00    -0.275 OA
ATOM     10  C   UNL     1       0.587  -0.498  -1.317  0.00  0.00    +0.034 C 
ENDROOT
BRANCH   5  11
ATOM     11  C   UNL     1      -0.739  -3.884   1.631  0.00  0.00    -0.017 A 
ATOM     12  C   UNL     1      -0.602  -4.668   0.501  0.00  0.00    +0.006 A 
ATOM     13  C   UNL     1      -0.659  -6.045   0.604  0.00  0.00    +0.000 A 
ATOM     14  C   UNL     1      -0.854  -6.639   1.838  0.00  0.00    +0.000 A 
ATOM     15  C   UNL     1      -0.990  -5.855   2.968  0.00  0.00    +0.000 A 
ATOM     16  C   UNL     1      -0.928  -4.478   2.866  0.00  0.00    +0.006 A 
ENDBRANCH   5  11
BRANCH   8  17
ATOM     17  C   UNL     1       2.474  -0.189   2.935  0.00  0.00    +0.153 C 
BRANCH  17  18
ATOM     18  C   UNL     1       3.196   0.953   3.603  0.00  0.00    +0.078 A 
ATOM     19  C   UNL     1       4.147   0.686   4.682  0.00  0.00    +0.011 A 
ATOM     20  C   UNL     1       4.416  -0.611   5.123  0.00  0.00    +0.010 A 
ATOM     21  C   UNL     1       5.314  -0.809   6.135  0.00  0.00    +0.001 A 
ATOM     22  C   UNL     1       5.964   0.264   6.732  0.00  0.00    +0.001 A 
ATOM     23  C   UNL     1       5.718   1.554   6.317  0.00  0.00    +0.014 A 
ATOM     24  C   UNL     1       4.807   1.780   5.287  0.00  0.00    +0.050 A 
ATOM     25  C   UNL     1       4.502   3.131   4.799  0.00  0.00    +0.275 A 
ATOM     26  O   UNL     1       5.046   4.105   5.289  0.00  0.00    -0.266 OA
ATOM     27  N   UNL     1       3.609   3.273   3.798  0.00  0.00    -0.232 N 
ATOM     28  N   UNL     1       2.977   2.174   3.216  0.00  0.00    -0.172 NA
ATOM     29  C   UNL     1       3.299   4.618   3.305  0.00  0.00    +0.176 C 
ENDBRANCH  17  18
ENDBRANCH   8  17
TORSDOF 3
