REMARK  Name = ZINC32819551
REMARK  6 active torsions:
REMARK  status: ('A' for Active; 'I' for Inactive)
REMARK    1  A    between atoms: C_1  and  C_2
REMARK    2  A    between atoms: C_5  and  C_8
REMARK    3  A    between atoms: N_15  and  N_18
REMARK    4  A    between atoms: C_19  and  C_21
REMARK    5  A    between atoms: C_22  and  C_23
REMARK    6  A    between atoms: C_22  and  C_24
REMARK                            x       y       z     vdW  Elec       q    Type
REMARK                         _______ _______ _______ _____ _____    ______ ____
ROOT
ATOM      1  C   UNL     1       3.062   1.528   0.343  0.00  0.00    +0.004 A 
ATOM      2  C   UNL     1       4.416   1.522   0.412  0.00  0.00    +0.056 A 
ATOM      3  S   UNL     1       4.821  -0.214   0.439  0.00  0.00    -0.076 S 
ATOM      4  C   UNL     1       3.180  -0.885   0.357  0.00  0.00    +0.116 A 
ATOM      5  C   UNL     1       2.357   0.252   0.311  0.00  0.00    +0.081 A 
ATOM      6  C   UNL     1       0.950  -0.004   0.240  0.00  0.00    +0.280 A 
ATOM      7  O   UNL     1       0.155   0.919   0.191  0.00  0.00    -0.265 OA
ATOM      8  N   UNL     1       0.519  -1.279   0.223  0.00  0.00    -0.212 N 
ATOM      9  C   UNL     1       1.391  -2.319   0.271  0.00  0.00    +0.223 A 
ATOM     10  N   UNL     1       2.679  -2.117   0.336  0.00  0.00    -0.228 NA
ENDROOT
BRANCH   1  15
ATOM     11  C   UNL     1       0.154   6.494   0.174  0.00  0.00    +0.044 C 
ATOM     12  C   UNL     1       0.915   5.194   0.218  0.00  0.00    -0.050 A 
ATOM     13  C   UNL     1       1.880   4.994   1.189  0.00  0.00    +0.004 A 
ATOM     14  C   UNL     1       2.580   3.805   1.234  0.00  0.00    +0.009 A 
ATOM     15  C   UNL     1       2.314   2.806   0.299  0.00  0.00    -0.017 A 
ATOM     16  C   UNL     1       1.344   3.016  -0.680  0.00  0.00    +0.009 A 
ATOM     17  C   UNL     1       0.647   4.207  -0.713  0.00  0.00    +0.004 A 
ENDBRANCH   1  15
BRANCH   8  18
ATOM     18  N   UNL     1      -0.856  -1.538   0.154  0.00  0.00    -0.215 N 
ATOM     19  C   UNL     1      -1.404  -1.963  -1.002  0.00  0.00    +0.255 C 
ATOM     20  O   UNL     1      -0.705  -2.123  -1.984  0.00  0.00    -0.269 OA
ATOM     21  H   UNL     1      -1.488  -1.393   1.042  0.00  0.00    +0.176 HD
BRANCH  19  22
ATOM     22  C   UNL     1      -2.848  -2.235  -1.074  0.00  0.00    +0.067 C 
ATOM     23  C   UNL     1      -3.409  -2.540  -2.241  0.00  0.00    -0.071 C 
ATOM     24  C   UNL     1      -2.604  -2.450  -3.511  0.00  0.00    +0.039 C 
ATOM     25  C   UNL     1      -4.851  -2.975  -2.292  0.00  0.00    +0.039 C 
ENDBRANCH  19  22
ENDBRANCH   8  18
TORSDOF 3
