REMARK  Name = ZINC59333206
REMARK  6 active torsions:
REMARK  status: ('A' for Active; 'I' for Inactive)
REMARK    1  A    between atoms: C_4  and  N_7
REMARK    2  A    between atoms: C_13  and  C_15
REMARK    3  A    between atoms: C_15  and  C_29
REMARK    4  A    between atoms: C_16  and  C_17
REMARK    5  A    between atoms: N_19  and  C_26
REMARK    6  A    between atoms: C_26  and  C_27
REMARK                            x       y       z     vdW  Elec       q    Type
REMARK                         _______ _______ _______ _____ _____    ______ ____
ROOT
ATOM      1  C   UNL     1       7.166  -3.909   1.145  0.00  0.00    +0.114 C 
ATOM      2  C   UNL     1       6.634  -4.600   2.220  0.00  0.00    +0.034 C 
ENDROOT
BRANCH   2   3
ATOM      3  C   UNL     1       6.316  -3.913   3.413  0.00  0.00    +0.002 A 
ATOM      4  C   UNL     1       6.770  -2.667   3.801  0.00  0.00    +0.096 A 
ATOM      5  N   UNL     1       6.246  -2.349   5.001  0.00  0.00    -0.333 N 
ATOM      6  C   UNL     1       5.428  -3.361   5.460  0.00  0.00    +0.050 A 
ATOM      7  C   UNL     1       5.425  -4.380   4.495  0.00  0.00    +0.007 A 
ATOM      8  C   UNL     1       4.671  -5.531   4.696  0.00  0.00    +0.010 A 
ATOM      9  C   UNL     1       3.924  -5.666   5.846  0.00  0.00    +0.001 A 
ATOM     10  C   UNL     1       3.922  -4.660   6.800  0.00  0.00    +0.002 A 
ATOM     11  C   UNL     1       4.671  -3.517   6.617  0.00  0.00    +0.026 A 
BRANCH   5  12
ATOM     12  C   UNL     1       6.510  -1.100   5.720  0.00  0.00    +0.240 C 
BRANCH  12  13
ATOM     13  C   UNL     1       7.608  -1.308   6.678  0.00  0.00    +0.084 C 
ATOM     14  N   UNL     1       8.455  -1.469   7.418  0.00  0.00    -0.195 NA
ENDBRANCH  12  13
ENDBRANCH   5  12
ENDBRANCH   2   3
BRANCH   1  21
ATOM     15  N   UNL     1       4.306  -0.453  -0.685  0.00  0.00    -0.327 N 
ATOM     16  C   UNL     1       5.599   0.213  -0.469  0.00  0.00    +0.124 C 
ATOM     17  C   UNL     1       6.171  -0.252   0.876  0.00  0.00    +0.127 C 
ATOM     18  N   UNL     1       6.112  -1.719   0.929  0.00  0.00    -0.294 N 
ATOM     19  C   UNL     1       4.820  -2.385   0.713  0.00  0.00    +0.127 C 
ATOM     20  C   UNL     1       4.247  -1.920  -0.626  0.00  0.00    +0.124 C 
ATOM     21  C   UNL     1       7.224  -2.442   1.171  0.00  0.00    +0.257 C 
ATOM     22  O   UNL     1       8.275  -1.879   1.411  0.00  0.00    -0.269 OA
BRANCH  15  26
ATOM     23  C   UNL     1       0.872   1.780  -1.433  0.00  0.00    +0.000 A 
ATOM     24  C   UNL     1       0.828   0.400  -1.510  0.00  0.00    +0.002 A 
ATOM     25  C   UNL     1       1.966  -0.344  -1.263  0.00  0.00    +0.023 A 
ATOM     26  C   UNL     1       3.154   0.296  -0.936  0.00  0.00    +0.030 A 
ATOM     27  C   UNL     1       3.195   1.683  -0.859  0.00  0.00    +0.023 A 
ATOM     28  C   UNL     1       2.054   2.420  -1.107  0.00  0.00    +0.002 A 
ENDBRANCH  15  26
ENDBRANCH   1  21
BRANCH   1  29
ATOM     29  C   UNL     1       7.660  -4.625   0.008  0.00  0.00    +0.104 C 
ATOM     30  N   UNL     1       8.052  -5.193  -0.895  0.00  0.00    -0.191 NA
ENDBRANCH   1  29
TORSDOF 6
