REMARK  Name = ZINC49337536
REMARK  3 active torsions:
REMARK  status: ('A' for Active; 'I' for Inactive)
REMARK    1  A    between atoms: N_8  and  C_13
REMARK    2  A    between atoms: C_13  and  C_14
REMARK    3  A    between atoms: C_16  and  C_19
REMARK                            x       y       z     vdW  Elec       q    Type
REMARK                         _______ _______ _______ _____ _____    ______ ____
ROOT
ATOM      1  C   UNL     1      -0.017   1.382   0.010  0.00  0.00    +0.016 A 
ATOM      2  C   UNL     1       1.168   2.089   0.002  0.00  0.00    +0.015 A 
ATOM      3  C   UNL     1       2.382   1.403  -0.013  0.00  0.00    +0.048 A 
ATOM      4  C   UNL     1       2.405  -0.002  -0.021  0.00  0.00    +0.049 A 
ATOM      5  C   UNL     1       1.202  -0.694  -0.013  0.00  0.00    +0.039 A 
ATOM      6  C   UNL     1       0.002  -0.004   0.002  0.00  0.00    +0.020 A 
ATOM      7 BR   UNL     1      -1.628  -0.962   0.012  0.00  0.00    -0.050 Br
ATOM      8  N   UNL     1       3.724  -0.448  -0.036  0.00  0.00    -0.257 N 
ATOM      9  C   UNL     1       4.591   0.580  -0.038  0.00  0.00    +0.292 C 
ATOM     10  O   UNL     1       5.801   0.497  -0.051  0.00  0.00    -0.266 OA
ATOM     11  C   UNL     1       3.788   1.847  -0.024  0.00  0.00    +0.250 C 
ATOM     12  O   UNL     1       4.205   2.987  -0.022  0.00  0.00    -0.282 OA
ENDROOT
BRANCH   8  13
ATOM     13  C   UNL     1       4.118  -1.859  -0.047  0.00  0.00    +0.193 C 
BRANCH  13  14
ATOM     14  C   UNL     1       4.239  -2.336  -1.471  0.00  0.00    +0.189 A 
ATOM     15  N   UNL     1       3.252  -2.870  -2.199  0.00  0.00    -0.194 NA
ATOM     16  C   UNL     1       3.689  -3.175  -3.389  0.00  0.00    +0.231 A 
ATOM     17  O   UNL     1       4.984  -2.842  -3.459  0.00  0.00    -0.338 OA
ATOM     18  N   UNL     1       5.320  -2.290  -2.195  0.00  0.00    -0.060 NA
BRANCH  16  19
ATOM     19  C   UNL     1       2.876  -3.796  -4.496  0.00  0.00    +0.078 C 
ATOM     20  C   UNL     1       3.624  -4.261  -5.747  0.00  0.00    +0.014 C 
ATOM     21  C   UNL     1       2.744  -3.011  -5.802  0.00  0.00    +0.014 C 
ENDBRANCH  16  19
ENDBRANCH  13  14
ENDBRANCH   8  13
TORSDOF 3
