REMARK  Name = ZINC06648136
REMARK  2 active torsions:
REMARK  status: ('A' for Active; 'I' for Inactive)
REMARK    1  A    between atoms: C_1  and  N_2
REMARK    2  A    between atoms: C_14  and  C_16
REMARK                            x       y       z     vdW  Elec       q    Type
REMARK                         _______ _______ _______ _____ _____    ______ ____
ROOT
ATOM      1  C   UNL     1       2.417   1.161  -0.011  0.00  0.00    +0.157 C 
ATOM      2  N   UNL     1       1.147   1.892   0.001  0.00  0.00    -0.264 N 
ATOM      3  C   UNL     1       1.150   3.238   0.006  0.00  0.00    +0.262 A 
ATOM      4  O   UNL     1       2.206   3.847  -0.003  0.00  0.00    -0.267 OA
ATOM      5  C   UNL     1      -0.071   3.941   0.020  0.00  0.00    +0.067 A 
ATOM      6  C   UNL     1      -1.235   3.235   0.033  0.00  0.00    +0.113 A 
ATOM      7  N   UNL     1      -1.193   1.859   0.018  0.00  0.00    -0.295 N 
ATOM      8  H   UNL     1      -2.020   1.353   0.018  0.00  0.00    +0.172 HD
ATOM      9  C   UNL     1      -0.014   1.212   0.009  0.00  0.00    +0.330 A 
ATOM     10  O   UNL     1       0.002  -0.004   0.002  0.00  0.00    -0.246 OA
ATOM     11  N   UNL     1      -2.468   3.857   0.057  0.00  0.00    -0.301 N 
ATOM     12  C   UNL     1      -2.511   5.191   0.346  0.00  0.00    +0.058 C 
ATOM     13  C   UNL     1      -1.408   5.981   0.346  0.00  0.00    +0.069 C 
ATOM     14  C   UNL     1      -0.036   5.449   0.018  0.00  0.00    +0.096 C 
ATOM     15  C   UNL     1      -1.778   7.291   0.688  0.00  0.00    +0.338 C 
ATOM     16  O   UNL     1      -1.004   8.226   0.775  0.00  0.00    -0.245 OA
ATOM     17  O   UNL     1      -3.106   7.376   0.906  0.00  0.00    -0.455 OA
ATOM     18  C   UNL     1      -3.672   6.070   0.710  0.00  0.00    +0.283 C 
ATOM     19  H   UNL     1      -3.280   3.360  -0.127  0.00  0.00    +0.153 HD
ENDROOT
BRANCH  14  20
ATOM     20  C   UNL     1       0.380   5.939  -1.345  0.00  0.00    -0.035 A 
ATOM     21  C   UNL     1      -0.376   5.616  -2.457  0.00  0.00    +0.007 A 
ATOM     22  C   UNL     1       0.002   6.070  -3.706  0.00  0.00    +0.038 A 
ATOM     23  C   UNL     1       1.145   6.839  -3.846  0.00  0.00    +0.123 A 
ATOM     24  C   UNL     1       1.905   7.158  -2.733  0.00  0.00    +0.038 A 
ATOM     25  C   UNL     1       1.521   6.708  -1.484  0.00  0.00    +0.007 A 
ATOM     26  F   UNL     1       1.519   7.278  -5.067  0.00  0.00    -0.205 F 
ENDBRANCH  14  20
TORSDOF 1
