REMARK  Name = ZINC23737946
REMARK  9 active torsions:
REMARK  status: ('A' for Active; 'I' for Inactive)
REMARK    1  A    between atoms: C_1  and  C_2
REMARK    2  A    between atoms: C_5  and  C_8
REMARK    3  A    between atoms: C_8  and  C_33
REMARK    4  A    between atoms: N_11  and  C_15
REMARK    5  A    between atoms: C_15  and  C_16
REMARK    6  A    between atoms: N_18  and  C_19
REMARK    7  A    between atoms: C_19  and  C_20
REMARK    8  A    between atoms: C_20  and  C_22
REMARK    9  A    between atoms: C_20  and  N_28
REMARK                            x       y       z     vdW  Elec       q    Type
REMARK                         _______ _______ _______ _____ _____    ______ ____
ROOT
ATOM      1  C   UNL     1      -1.681  -3.165  -2.900  0.00  0.00    +0.231 C 
ATOM      2  O   UNL     1      -0.855  -3.521  -2.086  0.00  0.00    -0.274 OA
ATOM      3  N   UNL     1      -2.576  -4.049  -3.383  0.00  0.00    -0.315 N 
ATOM      4  H   UNL     1      -3.325  -3.726  -4.121  0.00  0.00    +0.149 HD
ENDROOT
BRANCH   1   5
ATOM      5  C   UNL     1      -1.706  -1.733  -3.370  0.00  0.00    +0.213 C 
BRANCH   5   9
ATOM      6  C   UNL     1       0.552   0.295  -1.231  0.00  0.00    +0.135 C 
ATOM      7  C   UNL     1      -0.795  -0.332  -1.530  0.00  0.00    +0.251 C 
ATOM      8  O   UNL     1      -1.800  -0.266  -0.855  0.00  0.00    -0.272 OA
ATOM      9  N   UNL     1      -0.642  -0.981  -2.702  0.00  0.00    -0.215 N 
ATOM     10  C   UNL     1       0.601  -0.851  -3.179  0.00  0.00    +0.310 C 
ATOM     11  O   UNL     1       0.979  -1.347  -4.222  0.00  0.00    -0.252 OA
ATOM     12  N   UNL     1       1.385  -0.110  -2.376  0.00  0.00    -0.281 N 
ATOM     13  C   UNL     1       1.128  -0.255   0.076  0.00  0.00    +0.047 C 
ATOM     14  H   UNL     1       2.437   0.208  -2.431  0.00  0.00    +0.152 HD
BRANCH   6  19
ATOM     15  C   UNL     1       0.102   6.051  -0.982  0.00  0.00    +0.044 C 
ATOM     16  C   UNL     1       0.220   4.550  -1.047  0.00  0.00    -0.050 A 
ATOM     17  C   UNL     1       1.370   3.968  -1.546  0.00  0.00    +0.004 A 
ATOM     18  C   UNL     1       1.477   2.591  -1.605  0.00  0.00    +0.006 A 
ATOM     19  C   UNL     1       0.435   1.796  -1.165  0.00  0.00    -0.015 A 
ATOM     20  C   UNL     1      -0.717   2.379  -0.671  0.00  0.00    +0.006 A 
ATOM     21  C   UNL     1      -0.823   3.756  -0.607  0.00  0.00    +0.004 A 
ENDBRANCH   6  19
ENDBRANCH   5   9
ENDBRANCH   1   5
BRANCH   3  22
ATOM     22  C   UNL     1      -2.551  -5.441  -2.926  0.00  0.00    +0.093 C 
BRANCH  22  23
ATOM     23  C   UNL     1      -3.549  -6.264  -3.743  0.00  0.00    -0.020 C 
BRANCH  23  24
ATOM     24  C   UNL     1      -3.582  -7.677  -3.220  0.00  0.00    -0.059 A 
ATOM     25  C   UNL     1      -2.535  -8.538  -3.486  0.00  0.00    +0.002 A 
ATOM     26  C   UNL     1      -2.563  -9.832  -3.002  0.00  0.00    +0.000 A 
ATOM     27  C   UNL     1      -3.644 -10.268  -2.259  0.00  0.00    +0.000 A 
ATOM     28  C   UNL     1      -4.694  -9.409  -1.996  0.00  0.00    +0.000 A 
ATOM     29  C   UNL     1      -4.664  -8.113  -2.477  0.00  0.00    +0.002 A 
ENDBRANCH  23  24
BRANCH  23  30
ATOM     30  N   UNL     1      -3.137  -6.274  -5.153  0.00  0.00    +0.385 N 
ATOM     31  C   UNL     1      -3.904  -7.285  -5.925  0.00  0.00    -0.078 C 
ATOM     32  C   UNL     1      -3.745  -6.808  -7.390  0.00  0.00    -0.020 C 
ATOM     33  C   UNL     1      -3.801  -5.268  -7.261  0.00  0.00    -0.020 C 
ATOM     34  C   UNL     1      -3.421  -4.974  -5.798  0.00  0.00    -0.078 C 
ATOM     35  H   UNL     1      -2.059  -6.495  -5.149  0.00  0.00    -0.081 HD
ENDBRANCH  23  30
ENDBRANCH  22  23
ENDBRANCH   3  22
TORSDOF 7
