REMARK  Name = ZINC04614207
REMARK  6 active torsions:
REMARK  status: ('A' for Active; 'I' for Inactive)
REMARK    1  A    between atoms: C_1  and  O_2
REMARK    2  A    between atoms: O_2  and  C_3
REMARK    3  A    between atoms: C_3  and  C_5
REMARK    4  A    between atoms: C_9  and  N_10
REMARK    5  A    between atoms: C_11  and  C_13
REMARK    6  A    between atoms: C_19  and  C_21
REMARK                            x       y       z     vdW  Elec       q    Type
REMARK                         _______ _______ _______ _____ _____    ______ ____
ROOT
ATOM      1  C   UNL     1      -5.440   1.078  -7.511  0.00  0.00    +0.091 A 
ATOM      2  C   UNL     1      -6.106   2.147  -6.778  0.00  0.00    -0.021 A 
ATOM      3  C   UNL     1      -5.727   2.244  -5.487  0.00  0.00    -0.004 A 
ATOM      4  S   UNL     1      -4.537   0.950  -5.267  0.00  0.00    -0.077 S 
ATOM      5  C   UNL     1      -4.529   0.301  -6.815  0.00  0.00    +0.086 A 
ATOM      6  C   UNL     1      -6.196   3.234  -4.468  0.00  0.00    +0.043 C 
ATOM      7  C   UNL     1      -7.730   3.291  -4.490  0.00  0.00    +0.005 C 
ATOM      8  C   UNL     1      -8.164   4.344  -5.504  0.00  0.00    +0.001 C 
ATOM      9  C   UNL     1      -7.174   4.397  -6.666  0.00  0.00    +0.005 C 
ATOM     10  C   UNL     1      -7.147   3.062  -7.405  0.00  0.00    +0.037 C 
ENDROOT
BRANCH   5  11
ATOM     11  N   UNL     1      -3.780  -0.765  -7.288  0.00  0.00    -0.279 N 
ATOM     12  C   UNL     1      -2.934  -1.414  -6.463  0.00  0.00    +0.222 C 
ATOM     13  O   UNL     1      -2.828  -1.064  -5.307  0.00  0.00    -0.275 OA
ATOM     14  H   UNL     1      -3.866  -1.045  -8.213  0.00  0.00    +0.155 HD
BRANCH  12  15
ATOM     15  C   UNL     1      -2.121  -2.573  -6.978  0.00  0.00    +0.093 C 
ATOM     16  C   UNL     1      -0.725  -2.087  -7.372  0.00  0.00    +0.040 C 
ATOM     17  C   UNL     1       0.176  -3.259  -7.633  0.00  0.00    -0.030 C 
ATOM     18  C   UNL     1      -0.072  -4.466  -7.239  0.00  0.00    -0.030 C 
ATOM     19  C   UNL     1      -1.301  -4.865  -6.475  0.00  0.00    +0.042 C 
ATOM     20  C   UNL     1      -1.978  -3.632  -5.877  0.00  0.00    +0.118 C 
BRANCH  20  21
ATOM     21  C   UNL     1      -3.341  -4.002  -5.350  0.00  0.00    +0.360 C 
ATOM     22  O   UNL     1      -4.201  -4.404  -6.115  0.00  0.00    -0.246 OA
ATOM     23  O   UNL     1      -3.583  -3.900  -4.160  0.00  0.00    -0.246 OA
ENDBRANCH  20  21
ENDBRANCH  12  15
ENDBRANCH   5  11
BRANCH   1  24
ATOM     24  C   UNL     1      -5.726   0.832  -8.925  0.00  0.00    +0.342 C 
ATOM     25  O   UNL     1      -6.618   0.067  -9.241  0.00  0.00    -0.245 OA
BRANCH  24  27
ATOM     26  C   UNL     1      -5.336   1.166 -11.238  0.00  0.00    +0.280 C 
ATOM     27  O   UNL     1      -5.002   1.454  -9.878  0.00  0.00    -0.464 OA
ENDBRANCH  24  27
ENDBRANCH   1  24
TORSDOF 5
