REMARK  Name = ZINC66058004
REMARK  5 active torsions:
REMARK  status: ('A' for Active; 'I' for Inactive)
REMARK    1  A    between atoms: C_1  and  C_2
REMARK    2  A    between atoms: C_8  and  N_10
REMARK    3  A    between atoms: C_11  and  C_13
REMARK    4  A    between atoms: C_13  and  C_15
REMARK    5  A    between atoms: C_13  and  N_16
REMARK                            x       y       z     vdW  Elec       q    Type
REMARK                         _______ _______ _______ _____ _____    ______ ____
ROOT
ATOM      1  C   UNL     1       0.033   0.579   4.842  0.00  0.00    +0.176 C 
ATOM      2  C   UNL     1      -1.105  -0.382   5.191  0.00  0.00    +0.041 C 
ENDROOT
BRANCH   1   3
ATOM      3  N   UNL     1       0.984   0.635   5.955  0.00  0.00    -0.263 N 
ATOM      4  C   UNL     1       1.327   1.770   6.690  0.00  0.00    +0.091 A 
ATOM      5  C   UNL     1       0.933   3.097   6.631  0.00  0.00    +0.030 A 
ATOM      6  C   UNL     1       1.466   4.012   7.518  0.00  0.00    +0.002 A 
ATOM      7  C   UNL     1       2.392   3.607   8.463  0.00  0.00    +0.004 A 
ATOM      8  C   UNL     1       2.790   2.285   8.528  0.00  0.00    +0.048 A 
ATOM      9  C   UNL     1       2.260   1.360   7.642  0.00  0.00    +0.157 A 
ATOM     10  O   UNL     1       2.455   0.030   7.469  0.00  0.00    -0.407 OA
ATOM     11  C   UNL     1       1.683  -0.401   6.459  0.00  0.00    +0.422 A 
ATOM     12  O   UNL     1       1.625  -1.548   6.059  0.00  0.00    -0.223 OA
ENDBRANCH   1   3
BRANCH   1  14
ATOM     13  N   UNL     1       0.056  -0.038   2.447  0.00  0.00    -0.311 N 
ATOM     14  C   UNL     1       0.738   0.093   3.602  0.00  0.00    +0.236 C 
ATOM     15  O   UNL     1       1.919  -0.179   3.644  0.00  0.00    -0.274 OA
ATOM     16  H   UNL     1      -0.888   0.180   2.413  0.00  0.00    +0.149 HD
BRANCH  13  23
ATOM     17  C   UNL     1      -0.019   1.526   0.010  0.00  0.00    +0.009 C 
ATOM     18  C   UNL     1       0.002  -0.004   0.002  0.00  0.00    +0.006 C 
ATOM     19  C   UNL     1       0.718  -0.497  -1.257  0.00  0.00    +0.005 C 
ATOM     20  C   UNL     1       0.739  -2.027  -1.265  0.00  0.00    +0.000 C 
ATOM     21  C   UNL     1       1.479  -2.534  -0.026  0.00  0.00    +0.002 C 
ATOM     22  C   UNL     1       0.763  -2.041   1.233  0.00  0.00    +0.022 C 
ATOM     23  C   UNL     1       0.742  -0.511   1.242  0.00  0.00    +0.076 C 
ENDBRANCH  13  23
ENDBRANCH   1  14
TORSDOF 3
