REMARK  Name = ZINC09069523
REMARK  7 active torsions:
REMARK  status: ('A' for Active; 'I' for Inactive)
REMARK    1  A    between atoms: C_1  and  C_2
REMARK    2  A    between atoms: C_5  and  N_8
REMARK    3  A    between atoms: C_10  and  C_15
REMARK    4  A    between atoms: C_15  and  N_16
REMARK    5  A    between atoms: C_17  and  C_19
REMARK    6  A    between atoms: C_19  and  C_21
REMARK    7  A    between atoms: C_22  and  C_31
REMARK                            x       y       z     vdW  Elec       q    Type
REMARK                         _______ _______ _______ _____ _____    ______ ____
ROOT
ATOM      1  N   UNL     1       3.218   3.018  -1.256  0.00  0.00    -0.305 N 
ATOM      2  C   UNL     1       3.745   3.739  -2.266  0.00  0.00    +0.285 C 
ATOM      3  O   UNL     1       3.041   4.098  -3.187  0.00  0.00    -0.267 OA
ATOM      4  H   UNL     1       3.781   2.731  -0.520  0.00  0.00    +0.149 HD
ENDROOT
BRANCH   2   5
ATOM      5  C   UNL     1       5.194   4.094  -2.252  0.00  0.00    +0.249 C 
ATOM      6  O   UNL     1       5.878   3.818  -1.287  0.00  0.00    -0.282 OA
BRANCH   5   7
ATOM      7  C   UNL     1       5.790   4.774  -3.401  0.00  0.00    +0.055 A 
ATOM      8  C   UNL     1       6.292   4.186  -4.546  0.00  0.00    +0.025 A 
ATOM      9  N   UNL     1       6.757   5.137  -5.376  0.00  0.00    -0.358 N 
ATOM     10  H   UNL     1       7.157   4.965  -6.243  0.00  0.00    +0.166 HD
ATOM     11  C   UNL     1       6.586   6.392  -4.825  0.00  0.00    +0.047 A 
ATOM     12  C   UNL     1       5.972   6.229  -3.574  0.00  0.00    +0.011 A 
ATOM     13  C   UNL     1       5.685   7.339  -2.785  0.00  0.00    +0.011 A 
ATOM     14  C   UNL     1       5.996   8.601  -3.245  0.00  0.00    +0.001 A 
ATOM     15  C   UNL     1       6.597   8.765  -4.484  0.00  0.00    +0.002 A 
ATOM     16  C   UNL     1       6.892   7.673  -5.272  0.00  0.00    +0.026 A 
ATOM     17  C   UNL     1       6.315   2.704  -4.823  0.00  0.00    +0.064 C 
ENDBRANCH   5   7
ENDBRANCH   2   5
BRANCH   1  18
ATOM     18  C   UNL     1       1.796   2.669  -1.269  0.00  0.00    +0.150 C 
BRANCH  18  21
ATOM     19  N   UNL     1      -0.021   0.005  -0.025  0.00  0.00    -0.234 N 
ATOM     20  C   UNL     1      -0.035   1.476  -0.007  0.00  0.00    +0.163 C 
ATOM     21  C   UNL     1       1.458   1.856  -0.018  0.00  0.00    +0.213 C 
ATOM     22  O   UNL     1       2.149   0.574  -0.041  0.00  0.00    -0.444 OA
ATOM     23  C   UNL     1       1.250  -0.417  -0.043  0.00  0.00    +0.408 C 
ATOM     24  O   UNL     1       1.559  -1.592  -0.060  0.00  0.00    -0.226 OA
BRANCH  19  29
ATOM     25  C   UNL     1      -4.607  -3.336  -0.019  0.00  0.00    +0.044 C 
ATOM     26  C   UNL     1      -3.389  -2.449  -0.021  0.00  0.00    -0.050 A 
ATOM     27  C   UNL     1      -2.126  -3.011  -0.041  0.00  0.00    +0.005 A 
ATOM     28  C   UNL     1      -1.007  -2.200  -0.042  0.00  0.00    +0.024 A 
ATOM     29  C   UNL     1      -1.153  -0.819  -0.024  0.00  0.00    +0.040 A 
ATOM     30  C   UNL     1      -2.422  -0.258   0.002  0.00  0.00    +0.024 A 
ATOM     31  C   UNL     1      -3.537  -1.074  -0.003  0.00  0.00    +0.005 A 
ENDBRANCH  19  29
ENDBRANCH  18  21
ENDBRANCH   1  18
TORSDOF 5
