REMARK  Name = ZINC59354102
REMARK  7 active torsions:
REMARK  status: ('A' for Active; 'I' for Inactive)
REMARK    1  A    between atoms: C_1  and  C_2
REMARK    2  A    between atoms: C_2  and  C_3
REMARK    3  A    between atoms: C_2  and  C_4
REMARK    4  A    between atoms: N_9  and  S_10
REMARK    5  A    between atoms: S_10  and  C_13
REMARK    6  A    between atoms: N_22  and  C_23
REMARK    7  A    between atoms: N_22  and  C_24
REMARK                            x       y       z     vdW  Elec       q    Type
REMARK                         _______ _______ _______ _____ _____    ______ ____
ROOT
ATOM      1  C   UNL     1      -3.926  -0.615   0.660  0.00  0.00    +0.172 C 
ATOM      2  N   UNL     1      -4.189  -0.202  -0.725  0.00  0.00    -0.267 N 
ATOM      3  C   UNL     1      -4.883  -1.333  -1.370  0.00  0.00    +0.128 C 
ATOM      4  C   UNL     1      -5.618  -2.034  -0.210  0.00  0.00    +0.130 C 
ATOM      5  N   UNL     1      -4.807  -1.745   0.983  0.00  0.00    -0.154 NA
ATOM      6  C   UNL     1      -3.861   0.976  -1.293  0.00  0.00    +0.306 C 
ATOM      7  O   UNL     1      -3.529   1.915  -0.597  0.00  0.00    -0.252 OA
ATOM      8  N   UNL     1      -3.901   1.111  -2.633  0.00  0.00    -0.292 N 
ATOM      9  C   UNL     1      -3.712   2.430  -3.242  0.00  0.00    +0.133 C 
ATOM     10  C   UNL     1      -4.133  -0.060  -3.482  0.00  0.00    +0.133 C 
ENDROOT
BRANCH   1  12
ATOM     11  C   UNL     1      -2.204  -2.264  -0.085  0.00  0.00    +0.010 C 
ATOM     12  C   UNL     1      -2.465  -1.045   0.802  0.00  0.00    +0.020 C 
ATOM     13  C   UNL     1      -1.551   0.104   0.371  0.00  0.00    +0.010 C 
ENDBRANCH   1  12
BRANCH   5  14
ATOM     14  S   UNL     1      -4.877  -2.550   2.428  0.00  0.00    +0.063 S 
ATOM     15  O   UNL     1      -5.486  -3.806   2.164  0.00  0.00    -0.153 OA
ATOM     16  O   UNL     1      -3.590  -2.437   3.019  0.00  0.00    -0.153 OA
BRANCH  14  17
ATOM     17  C   UNL     1      -5.988  -1.660   3.467  0.00  0.00    +0.106 A 
ATOM     18  C   UNL     1      -5.512  -0.648   4.280  0.00  0.00    +0.031 A 
ATOM     19  C   UNL     1      -6.382   0.051   5.095  0.00  0.00    +0.040 A 
ATOM     20  C   UNL     1      -7.731  -0.262   5.096  0.00  0.00    +0.124 A 
ATOM     21  C   UNL     1      -8.207  -1.275   4.281  0.00  0.00    +0.040 A 
ATOM     22  C   UNL     1      -7.335  -1.969   3.463  0.00  0.00    +0.031 A 
ATOM     23  F   UNL     1      -8.583   0.420   5.893  0.00  0.00    -0.205 F 
ENDBRANCH  14  17
ENDBRANCH   5  14
TORSDOF 3
