REMARK  Name = ZINC36375167
REMARK  10 active torsions:
REMARK  status: ('A' for Active; 'I' for Inactive)
REMARK    1  A    between atoms: C_1  and  C_2
REMARK    2  A    between atoms: C_4  and  O_27
REMARK    3  A    between atoms: C_6  and  O_26
REMARK    4  A    between atoms: C_8  and  O_25
REMARK    5  A    between atoms: C_10  and  O_13
REMARK    6  A    between atoms: O_13  and  C_14
REMARK    7  A    between atoms: C_14  and  C_15
REMARK    8  A    between atoms: C_14  and  C_16
REMARK    9  A    between atoms: C_14  and  C_17
REMARK   10  A    between atoms: C_21  and  C_24
REMARK                            x       y       z     vdW  Elec       q    Type
REMARK                         _______ _______ _______ _____ _____    ______ ____
ROOT
ATOM      1  C   UNL     1      -0.507   1.596   0.811  0.00  0.00    +0.041 C 
ATOM      2  C   UNL     1      -0.433   0.072   0.695  0.00  0.00    +0.149 C 
ATOM      3  C   UNL     1      -1.826  -0.524   0.908  0.00  0.00    +0.174 C 
ATOM      4  C   UNL     1      -1.733  -2.052   0.850  0.00  0.00    +0.179 C 
ATOM      5  C   UNL     1      -0.728  -2.532   1.902  0.00  0.00    +0.201 C 
ATOM      6  C   UNL     1       0.623  -1.858   1.650  0.00  0.00    +0.282 C 
ATOM      7  O   UNL     1       0.460  -0.439   1.687  0.00  0.00    -0.343 OA
ENDROOT
BRANCH   5   8
ATOM      8  O   UNL     1      -0.580  -3.950   1.810  0.00  0.00    -0.384 OA
ATOM      9  H   UNL     1      -1.401  -4.442   1.954  0.00  0.00    +0.210 HD
ENDBRANCH   5   8
BRANCH   4  10
ATOM     10  O   UNL     1      -3.017  -2.620   1.119  0.00  0.00    -0.386 OA
ATOM     11  H   UNL     1      -3.032  -3.587   1.099  0.00  0.00    +0.210 HD
ENDBRANCH   4  10
BRANCH   3  12
ATOM     12  O   UNL     1      -2.707  -0.059  -0.117  0.00  0.00    -0.387 OA
ATOM     13  H   UNL     1      -2.809   0.902  -0.141  0.00  0.00    +0.210 HD
ENDBRANCH   3  12
BRANCH   6  14
ATOM     14  O   UNL     1       1.551  -2.257   2.661  0.00  0.00    -0.342 OA
BRANCH  14  15
ATOM     15  C   UNL     1       2.911  -1.942   2.359  0.00  0.00    +0.070 C 
ATOM     16  C   UNL     1       3.288  -2.552   1.007  0.00  0.00    +0.041 C 
ATOM     17  C   UNL     1       3.081  -0.423   2.298  0.00  0.00    +0.041 C 
BRANCH  15  18
ATOM     18  C   UNL     1       3.821  -2.514   3.447  0.00  0.00    +0.025 C 
ATOM     19  C   UNL     1       5.270  -2.081   3.188  0.00  0.00    +0.011 C 
ATOM     20  C   UNL     1       6.125  -2.514   4.381  0.00  0.00    +0.030 C 
ATOM     21  C   UNL     1       5.867  -3.956   4.707  0.00  0.00    -0.077 C 
ATOM     22  C   UNL     1       4.836  -4.620   4.291  0.00  0.00    -0.028 C 
ATOM     23  C   UNL     1       3.756  -4.043   3.422  0.00  0.00    +0.033 C 
ATOM     24  C   UNL     1       6.870  -4.676   5.570  0.00  0.00    +0.039 C 
ENDBRANCH  15  18
ENDBRANCH  14  15
ENDBRANCH   6  14
TORSDOF 6
