REMARK  Name = ZINC00496191
REMARK  6 active torsions:
REMARK  status: ('A' for Active; 'I' for Inactive)
REMARK    1  A    between atoms: C_1  and  C_2
REMARK    2  A    between atoms: C_12  and  C_17
REMARK    3  A    between atoms: N_13  and  N_16
REMARK    4  A    between atoms: C_17  and  C_18
REMARK    5  A    between atoms: C_17  and  C_19
REMARK    6  A    between atoms: C_17  and  C_20
REMARK                            x       y       z     vdW  Elec       q    Type
REMARK                         _______ _______ _______ _____ _____    ______ ____
ROOT
ATOM      1  C   UNL     1      -3.399  -2.378  -6.296  0.00  0.00    +0.008 C 
ATOM      2  C   UNL     1      -3.834  -1.127  -5.530  0.00  0.00    -0.009 C 
ATOM      3  C   UNL     1      -4.428  -0.111  -6.509  0.00  0.00    +0.009 C 
ATOM      4  C   UNL     1      -5.091   1.018  -5.706  0.00  0.00    +0.043 C 
ATOM      5  C   UNL     1      -4.136   1.464  -4.642  0.00  0.00    -0.004 A 
ATOM      6  C   UNL     1      -3.030   0.820  -4.214  0.00  0.00    -0.022 A 
ATOM      7  C   UNL     1      -2.256   1.465  -3.154  0.00  0.00    +0.077 A 
ATOM      8  C   UNL     1      -2.751   2.695  -2.692  0.00  0.00    +0.116 A 
ATOM      9  S   UNL     1      -4.210   2.945  -3.671  0.00  0.00    -0.073 S 
ATOM     10  N   UNL     1      -2.143   3.384  -1.731  0.00  0.00    -0.224 NA
ATOM     11  C   UNL     1      -1.048   2.938  -1.175  0.00  0.00    +0.136 A 
ATOM     12  N   UNL     1      -0.496   1.758  -1.558  0.00  0.00    -0.218 N 
ATOM     13  C   UNL     1      -1.050   1.007  -2.527  0.00  0.00    +0.279 A 
ATOM     14  O   UNL     1      -0.539  -0.047  -2.863  0.00  0.00    -0.265 OA
ATOM     15  C   UNL     1      -2.623  -0.519  -4.822  0.00  0.00    +0.040 C 
ENDROOT
BRANCH  11  16
ATOM     16  C   UNL     1      -0.387   3.747  -0.089  0.00  0.00    +0.022 C 
ATOM     17  C   UNL     1      -1.296   4.913   0.304  0.00  0.00    +0.019 C 
ATOM     18  C   UNL     1      -0.141   2.858   1.131  0.00  0.00    +0.019 C 
ATOM     19  C   UNL     1       0.949   4.292  -0.601  0.00  0.00    +0.019 C 
ENDBRANCH  11  16
BRANCH  12  20
ATOM     20  N   UNL     1       0.650   1.328  -0.951  0.00  0.00    -0.294 N 
ATOM     21  H   UNL     1       0.928   0.424  -1.303  0.00  0.00    +0.163 HD
ATOM     22  H   UNL     1       1.392   2.002  -1.060  0.00  0.00    +0.163 HD
ENDBRANCH  12  20
TORSDOF 2
