REMARK  Name = ZINC04615194
REMARK  3 active torsions:
REMARK  status: ('A' for Active; 'I' for Inactive)
REMARK    1  A    between atoms: C_4  and  S_7
REMARK    2  A    between atoms: S_7  and  O_10
REMARK    3  A    between atoms: O_10  and  C_11
REMARK                            x       y       z     vdW  Elec       q    Type
REMARK                         _______ _______ _______ _____ _____    ______ ____
ROOT
ATOM      1  C   UNL     1       4.766   0.077  -2.123  0.00  0.00    +0.174 A 
ATOM      2  C   UNL     1       6.116   0.364  -2.102  0.00  0.00    +0.097 A 
ATOM      3  C   UNL     1       6.614   1.512  -2.734  0.00  0.00    +0.150 A 
ATOM      4  C   UNL     1       5.678   2.335  -3.375  0.00  0.00    +0.062 A 
ATOM      5  C   UNL     1       4.335   2.053  -3.399  0.00  0.00    +0.038 A 
ATOM      6  C   UNL     1       3.865   0.910  -2.772  0.00  0.00    +0.064 A 
ATOM      7 BR   UNL     1       2.020   0.495  -2.795  0.00  0.00    -0.046 Br
ATOM      8  S   UNL     1       6.688   3.641  -4.029  0.00  0.00    -0.004 S 
ATOM      9  C   UNL     1       8.220   3.065  -3.451  0.00  0.00    +0.379 A 
ATOM     10  O   UNL     1       9.320   3.563  -3.596  0.00  0.00    -0.237 OA
ATOM     11  O   UNL     1       7.892   1.933  -2.805  0.00  0.00    -0.416 OA
ENDROOT
BRANCH   1  12
ATOM     12  O   UNL     1       4.312  -1.044  -1.501  0.00  0.00    -0.341 OA
BRANCH  12  13
ATOM     13  S   UNL     1       3.934  -0.832  -0.042  0.00  0.00    +0.151 S 
ATOM     14  O   UNL     1       4.902   0.054   0.504  0.00  0.00    -0.131 OA
ATOM     15  O   UNL     1       3.686  -2.120   0.505  0.00  0.00    -0.131 OA
BRANCH  13  19
ATOM     16  C   UNL     1      -0.017   1.378   0.010  0.00  0.00    +0.000 A 
ATOM     17  C   UNL     1       1.171   2.086   0.002  0.00  0.00    +0.002 A 
ATOM     18  C   UNL     1       2.377   1.411  -0.014  0.00  0.00    +0.030 A 
ATOM     19  C   UNL     1       2.396   0.029  -0.022  0.00  0.00    +0.128 A 
ATOM     20  C   UNL     1       1.208  -0.679  -0.014  0.00  0.00    +0.030 A 
ATOM     21  C   UNL     1       0.002  -0.004   0.002  0.00  0.00    +0.002 A 
ENDBRANCH  13  19
ENDBRANCH  12  13
ENDBRANCH   1  12
TORSDOF 3
