REMARK  Name = ZINC39593292
REMARK  5 active torsions:
REMARK  status: ('A' for Active; 'I' for Inactive)
REMARK    1  A    between atoms: C_1  and  C_2
REMARK    2  A    between atoms: C_2  and  C_10
REMARK    3  A    between atoms: C_3  and  C_4
REMARK    4  A    between atoms: N_11  and  N_12
REMARK    5  A    between atoms: C_13  and  C_19
REMARK                            x       y       z     vdW  Elec       q    Type
REMARK                         _______ _______ _______ _____ _____    ______ ____
ROOT
ATOM      1  N   UNL     1       0.250   0.013  -3.918  0.00  0.00    -0.175 N 
ATOM      2  C   UNL     1       0.467   0.882  -5.087  0.00  0.00    +0.230 C 
ATOM      3  N   UNL     1       0.419  -0.044  -6.231  0.00  0.00    -0.242 N 
ATOM      4  N   UNL     1       0.192  -1.316  -5.692  0.00  0.00    -0.160 NA
ATOM      5  C   UNL     1       0.105  -1.275  -4.405  0.00  0.00    +0.206 C 
ATOM      6  S   UNL     1      -0.171  -2.688  -3.389  0.00  0.00    -0.011 SA
ATOM      7  H   UNL     1       0.523   0.181  -7.169  0.00  0.00    +0.170 HD
ENDROOT
BRANCH   2   8
ATOM      8  C   UNL     1       1.833   1.565  -5.002  0.00  0.00    +0.197 C 
ATOM      9  C   UNL     1       2.035   2.508  -6.171  0.00  0.00    -0.017 C 
ATOM     10  C   UNL     1       2.173   3.711  -5.616  0.00  0.00    +0.065 C 
ATOM     11  C   UNL     1       2.383   4.756  -6.698  0.00  0.00    +0.057 C 
ATOM     12  C   UNL     1       2.781   3.956  -7.958  0.00  0.00    +0.011 C 
ATOM     13  C   UNL     1       2.135   2.581  -7.673  0.00  0.00    +0.035 C 
ATOM     14  N   UNL     1       2.080   3.610  -4.262  0.00  0.00    -0.158 NA
ATOM     15  N   UNL     1       1.895   2.465  -3.838  0.00  0.00    -0.176 NA
ENDBRANCH   2   8
BRANCH   1  17
ATOM     16  C   UNL     1      -0.765   1.171  -2.153  0.00  0.00    +0.134 C 
ATOM     17  N   UNL     1       0.206   0.411  -2.576  0.00  0.00    -0.184 NA
BRANCH  16  19
ATOM     18  C   UNL     1       0.137   0.934   0.202  0.00  0.00    +0.045 C 
ATOM     19  C   UNL     1      -0.869   1.486  -0.775  0.00  0.00    -0.030 C 
ATOM     20  C   UNL     1      -1.868   2.282  -0.339  0.00  0.00    +0.012 C 
BRANCH  20  21
ATOM     21  C   UNL     1      -2.950   2.673  -1.255  0.00  0.00    -0.025 A 
ATOM     22  C   UNL     1      -3.491   1.739  -2.145  0.00  0.00    +0.008 A 
ATOM     23  C   UNL     1      -4.505   2.113  -3.000  0.00  0.00    +0.001 A 
ATOM     24  C   UNL     1      -4.989   3.410  -2.980  0.00  0.00    +0.000 A 
ATOM     25  C   UNL     1      -4.459   4.341  -2.104  0.00  0.00    +0.001 A 
ATOM     26  C   UNL     1      -3.448   3.980  -1.238  0.00  0.00    +0.008 A 
ENDBRANCH  20  21
ENDBRANCH  16  19
ENDBRANCH   1  17
TORSDOF 4
