REMARK  Name = ZINC67141148
REMARK  4 active torsions:
REMARK  status: ('A' for Active; 'I' for Inactive)
REMARK    1  A    between atoms: C_1  and  C_2
REMARK    2  A    between atoms: C_9  and  N_14
REMARK    3  A    between atoms: C_15  and  C_17
REMARK    4  A    between atoms: C_18  and  C_22
REMARK                            x       y       z     vdW  Elec       q    Type
REMARK                         _______ _______ _______ _____ _____    ______ ____
ROOT
ATOM      1  C   UNL     1      -0.009   1.558  -0.003  0.00  0.00    +0.062 C 
ATOM      2  C   UNL     1       0.006   0.029  -0.019  0.00  0.00    +0.256 C 
ATOM      3  C   UNL     1       0.712  -0.453  -1.261  0.00  0.00    +0.258 C 
ATOM      4  O   UNL     1       0.082  -0.673  -2.274  0.00  0.00    -0.271 OA
ATOM      5  N   UNL     1       2.050  -0.638  -1.241  0.00  0.00    -0.279 N 
ATOM      6  C   UNL     1       2.750  -0.411  -0.048  0.00  0.00    +0.077 A 
ATOM      7  C   UNL     1       4.128  -0.274  -0.052  0.00  0.00    +0.050 A 
ATOM      8  C   UNL     1       4.803  -0.050   1.140  0.00  0.00    +0.036 A 
ATOM      9  C   UNL     1       4.096   0.036   2.333  0.00  0.00    +0.027 A 
ATOM     10  C   UNL     1       2.720  -0.099   2.337  0.00  0.00    +0.049 A 
ATOM     11  C   UNL     1       2.044  -0.322   1.151  0.00  0.00    +0.143 A 
ATOM     12  O   UNL     1       0.690  -0.454   1.140  0.00  0.00    -0.478 OA
ATOM     13  H   UNL     1       2.519  -0.925  -2.040  0.00  0.00    +0.155 HD
ENDROOT
BRANCH   8  14
ATOM     14  N   UNL     1       6.196   0.088   1.141  0.00  0.00    -0.281 N 
ATOM     15  C   UNL     1       6.945  -0.631   0.281  0.00  0.00    +0.255 C 
ATOM     16  O   UNL     1       6.407  -1.337  -0.551  0.00  0.00    -0.269 OA
ATOM     17  H   UNL     1       6.622   0.702   1.760  0.00  0.00    +0.155 HD
BRANCH  15  18
ATOM     18  C   UNL     1       8.407  -0.562   0.349  0.00  0.00    +0.078 A 
ATOM     19  C   UNL     1       9.350  -1.209  -0.435  0.00  0.00    -0.025 A 
ATOM     20  C   UNL     1      10.664  -0.944  -0.131  0.00  0.00    +0.012 A 
ATOM     21  C   UNL     1      10.945  -0.093   0.887  0.00  0.00    +0.046 A 
ATOM     22  S   UNL     1       9.438   0.380   1.457  0.00  0.00    -0.092 S 
BRANCH  19  23
ATOM     23  C   UNL     1       8.959  -2.144  -1.551  0.00  0.00    +0.020 C 
ATOM     24  C   UNL     1      10.073  -2.955  -2.216  0.00  0.00    +0.009 C 
ATOM     25  C   UNL     1       9.423  -1.790  -2.965  0.00  0.00    +0.009 C 
ENDBRANCH  19  23
ENDBRANCH  15  18
ENDBRANCH   8  14
TORSDOF 3
