REMARK  Name = ZINC39030068
REMARK  5 active torsions:
REMARK  status: ('A' for Active; 'I' for Inactive)
REMARK    1  A    between atoms: C_1  and  C_2
REMARK    2  A    between atoms: C_2  and  C_3
REMARK    3  A    between atoms: C_2  and  C_4
REMARK    4  A    between atoms: N_9  and  C_10
REMARK    5  A    between atoms: N_12  and  C_13
REMARK                            x       y       z     vdW  Elec       q    Type
REMARK                         _______ _______ _______ _____ _____    ______ ____
ROOT
ATOM      1  C   UNL     1      -3.635  -1.593  -4.042  0.00  0.00    +0.330 C 
ATOM      2  O   UNL     1      -3.555  -0.386  -3.902  0.00  0.00    -0.250 OA
ATOM      3  N   UNL     1      -4.229  -2.107  -5.136  0.00  0.00    -0.268 N 
ATOM      4  H   UNL     1      -4.234  -3.066  -5.281  0.00  0.00    +0.156 HD
ENDROOT
BRANCH   3   5
ATOM      5  C   UNL     1      -4.840  -1.257  -6.065  0.00  0.00    +0.036 A 
ATOM      6  C   UNL     1      -5.997  -1.660  -6.721  0.00  0.00    +0.025 A 
ATOM      7  C   UNL     1      -6.598  -0.820  -7.637  0.00  0.00    +0.023 A 
ATOM      8  C   UNL     1      -6.050   0.423  -7.902  0.00  0.00    +0.059 A 
ATOM      9  C   UNL     1      -4.897   0.827  -7.250  0.00  0.00    +0.061 A 
ATOM     10  C   UNL     1      -4.295  -0.007  -6.327  0.00  0.00    +0.044 A 
ATOM     11 CL   UNL     1      -4.212   2.387  -7.586  0.00  0.00    -0.082 Cl
ATOM     12 CL   UNL     1      -6.809   1.476  -9.055  0.00  0.00    -0.082 Cl
ENDBRANCH   3   5
BRANCH   1  17
ATOM     13  C   UNL     1      -1.436  -0.534   0.015  0.00  0.00    +0.195 C 
ATOM     14  N   UNL     1      -1.457  -2.016  -0.017  0.00  0.00    -0.170 NA
ATOM     15  N   UNL     1      -1.972  -2.565  -0.965  0.00  0.00    -0.129 NA
ATOM     16  C   UNL     1      -2.547  -1.909  -2.031  0.00  0.00    +0.205 C 
ATOM     17  N   UNL     1      -3.130  -2.412  -3.104  0.00  0.00    -0.136 NA
ATOM     18  S   UNL     1      -2.298  -0.191  -1.579  0.00  0.00    -0.058 S 
BRANCH  13  20
ATOM     19  C   UNL     1      -0.035   1.534   0.018  0.00  0.00    +0.010 C 
ATOM     20  C   UNL     1      -0.004   0.005   0.004  0.00  0.00    +0.020 C 
ATOM     21  C   UNL     1       0.741  -0.502   1.240  0.00  0.00    +0.010 C 
ENDBRANCH  13  20
ENDBRANCH   1  17
TORSDOF 3
