REMARK  Name = ZINC60373825
REMARK  10 active torsions:
REMARK  status: ('A' for Active; 'I' for Inactive)
REMARK    1  A    between atoms: C_1  and  C_2
REMARK    2  A    between atoms: C_2  and  C_3
REMARK    3  A    between atoms: C_2  and  C_4
REMARK    4  A    between atoms: N_6  and  C_7
REMARK    5  A    between atoms: C_7  and  C_9
REMARK    6  A    between atoms: C_7  and  C_20
REMARK    7  A    between atoms: C_9  and  C_10
REMARK    8  A    between atoms: C_26  and  C_29
REMARK    9  A    between atoms: C_29  and  C_30
REMARK   10  A    between atoms: C_30  and  C_31
REMARK                            x       y       z     vdW  Elec       q    Type
REMARK                         _______ _______ _______ _____ _____    ______ ____
ROOT
ATOM      1  C   UNL     1      -3.014  -2.361   0.018  0.00  0.00    +0.163 C 
ENDROOT
BRANCH   1   2
ATOM      2  C   UNL     1      -3.720  -1.875   1.258  0.00  0.00    +0.236 C 
ATOM      3  O   UNL     1      -3.294  -0.912   1.860  0.00  0.00    -0.274 OA
ATOM      4  N   UNL     1      -4.824  -2.511   1.698  0.00  0.00    -0.300 N 
ATOM      5  C   UNL     1      -5.348  -3.683   0.984  0.00  0.00    +0.108 C 
ATOM      6  C   UNL     1      -5.496  -4.840   1.977  0.00  0.00    +0.019 C 
ATOM      7  C   UNL     1      -6.357  -4.387   3.157  0.00  0.00    +0.006 C 
ATOM      8  C   UNL     1      -5.672  -3.221   3.873  0.00  0.00    +0.007 C 
ATOM      9  C   UNL     1      -5.522  -2.049   2.906  0.00  0.00    +0.111 C 
BRANCH   8  10
ATOM     10  C   UNL     1      -6.518  -2.790   5.074  0.00  0.00    +0.014 C 
BRANCH  10  11
ATOM     11  C   UNL     1      -6.562  -3.925   6.099  0.00  0.00    +0.096 C 
BRANCH  11  12
ATOM     12  C   UNL     1      -7.395  -3.501   7.281  0.00  0.00    +0.210 C 
ATOM     13  O   UNL     1      -7.903  -2.400   7.301  0.00  0.00    -0.276 OA
ATOM     14  N   UNL     1      -7.576  -4.345   8.316  0.00  0.00    -0.329 N 
ATOM     15  H   UNL     1      -7.170  -5.226   8.300  0.00  0.00    +0.145 HD
ATOM     16  H   UNL     1      -8.112  -4.072   9.077  0.00  0.00    +0.145 HD
ENDBRANCH  11  12
ENDBRANCH  10  11
ENDBRANCH   8  10
ENDBRANCH   1   2
BRANCH   1  19
ATOM     17  C   UNL     1      -1.412  -0.526   0.013  0.00  0.00    +0.216 C 
ATOM     18  O   UNL     1      -2.344   0.250   0.026  0.00  0.00    -0.276 OA
ATOM     19  N   UNL     1      -1.640  -1.854   0.008  0.00  0.00    -0.303 N 
ATOM     20  H   UNL     1      -0.894  -2.474  -0.003  0.00  0.00    +0.149 HD
BRANCH  17  22
ATOM     21  C   UNL     1      -0.019   1.526   0.010  0.00  0.00    +0.017 C 
ATOM     22  C   UNL     1       0.002  -0.004   0.002  0.00  0.00    +0.069 C 
ATOM     23  C   UNL     1       0.742  -0.511   1.242  0.00  0.00    +0.017 C 
ENDBRANCH  17  22
ENDBRANCH   1  19
BRANCH   1  24
ATOM     24  C   UNL     1      -3.754  -1.854  -1.221  0.00  0.00    +0.069 C 
BRANCH  24  25
ATOM     25  C   UNL     1      -3.123  -2.440  -2.458  0.00  0.00    -0.020 A 
ATOM     26  C   UNL     1      -2.177  -1.867  -3.219  0.00  0.00    +0.087 A 
ATOM     27  N   UNL     1      -1.848  -2.696  -4.257  0.00  0.00    -0.360 N 
ATOM     28  H   UNL     1      -1.189  -2.498  -4.940  0.00  0.00    +0.165 HD
ATOM     29  C   UNL     1      -2.593  -3.852  -4.187  0.00  0.00    +0.047 A 
ATOM     30  C   UNL     1      -3.420  -3.745  -3.054  0.00  0.00    +0.003 A 
ATOM     31  C   UNL     1      -4.290  -4.786  -2.726  0.00  0.00    +0.010 A 
ATOM     32  C   UNL     1      -4.333  -5.906  -3.507  0.00  0.00    +0.001 A 
ATOM     33  C   UNL     1      -3.517  -6.018  -4.624  0.00  0.00    +0.002 A 
ATOM     34  C   UNL     1      -2.657  -4.999  -4.971  0.00  0.00    +0.026 A 
ENDBRANCH  24  25
ENDBRANCH   1  24
TORSDOF 8
