REMARK  Name = ZINC16398924
REMARK  3 active torsions:
REMARK  status: ('A' for Active; 'I' for Inactive)
REMARK    1  A    between atoms: C_3  and  N_8
REMARK    2  A    between atoms: N_11  and  C_14
REMARK    3  A    between atoms: N_20  and  O_21
REMARK                            x       y       z     vdW  Elec       q    Type
REMARK                         _______ _______ _______ _____ _____    ______ ____
ROOT
ATOM      1  N   UNL     1       3.582   2.124  -0.021  0.00  0.00    -0.327 N 
ATOM      2  C   UNL     1       3.587   3.591  -0.118  0.00  0.00    +0.120 C 
ATOM      3  C   UNL     1       4.535   4.002  -1.249  0.00  0.00    +0.104 C 
ATOM      4  N   UNL     1       5.852   3.390  -1.026  0.00  0.00    -0.291 NA
ATOM      5  C   UNL     1       5.772   1.924  -1.072  0.00  0.00    +0.104 C 
ATOM      6  C   UNL     1       4.875   1.429   0.073  0.00  0.00    +0.120 C 
ENDROOT
BRANCH   1   9
ATOM      7  C   UNL     1       1.209  -0.683  -0.026  0.00  0.00    +0.003 A 
ATOM      8  C   UNL     1       2.398   0.021  -0.035  0.00  0.00    +0.023 A 
ATOM      9  C   UNL     1       2.382   1.410  -0.013  0.00  0.00    +0.031 A 
ATOM     10  C   UNL     1       1.169   2.087   0.018  0.00  0.00    +0.043 A 
ATOM     11  C   UNL     1      -0.017   1.377   0.026  0.00  0.00    +0.043 A 
ATOM     12  C   UNL     1       0.004  -0.007   0.004  0.00  0.00    +0.020 A 
ATOM     13 CL   UNL     1      -1.533   2.221   0.065  0.00  0.00    -0.083 Cl
ENDBRANCH   1   9
BRANCH   4  14
ATOM     14  C   UNL     1       6.837   3.894  -1.992  0.00  0.00    +0.105 C 
ATOM     15  C   UNL     1       8.213   3.248  -1.728  0.00  0.00    +0.025 C 
ATOM     16  C   UNL     1       9.218   4.396  -2.002  0.00  0.00    +0.008 C 
ATOM     17  C   UNL     1       8.466   5.632  -1.449  0.00  0.00    +0.056 C 
ATOM     18  C   UNL     1       7.013   5.389  -1.820  0.00  0.00    +0.074 C 
ATOM     19  N   UNL     1       6.106   6.280  -1.960  0.00  0.00    -0.095 NA
BRANCH  19  20
ATOM     20  O   UNL     1       6.420   7.647  -1.766  0.00  0.00    -0.409 OA
ATOM     21  H   UNL     1       5.671   8.245  -1.894  0.00  0.00    +0.328 HD
ENDBRANCH  19  20
ENDBRANCH   4  14
TORSDOF 3
