REMARK  Name = ZINC12475455
REMARK  4 active torsions:
REMARK  status: ('A' for Active; 'I' for Inactive)
REMARK    1  A    between atoms: C_1  and  C_2
REMARK    2  A    between atoms: C_7  and  C_8
REMARK    3  A    between atoms: N_9  and  C_19
REMARK    4  A    between atoms: C_10  and  C_12
REMARK                            x       y       z     vdW  Elec       q    Type
REMARK                         _______ _______ _______ _____ _____    ______ ____
ROOT
ATOM      1  C   UNL     1       0.944   1.407   0.046  0.00  0.00    +0.044 C 
ATOM      2  C   UNL     1       0.650  -0.070   0.026  0.00  0.00    -0.045 A 
ATOM      3  C   UNL     1       0.537  -0.728  -1.178  0.00  0.00    +0.033 A 
ATOM      4  C   UNL     1       0.265  -2.099  -1.197  0.00  0.00    +0.090 A 
ATOM      5  C   UNL     1       0.109  -2.791   0.018  0.00  0.00    +0.069 A 
ATOM      6  C   UNL     1       0.227  -2.110   1.221  0.00  0.00    +0.031 A 
ATOM      7  C   UNL     1       0.501  -0.759   1.222  0.00  0.00    -0.045 A 
ATOM      8  C   UNL     1       0.635  -0.023   2.530  0.00  0.00    +0.044 C 
ATOM      9  N   UNL     1      -0.147  -4.107  -0.318  0.00  0.00    -0.327 N 
ATOM     10  C   UNL     1      -0.143  -4.185  -1.684  0.00  0.00    +0.143 A 
ATOM     11  N   UNL     1       0.100  -3.002  -2.195  0.00  0.00    -0.227 NA
ATOM     12  C   UNL     1      -0.381  -5.212   0.616  0.00  0.00    +0.151 C 
ENDROOT
BRANCH  10  13
ATOM     13  C   UNL     1      -0.377  -5.417  -2.466  0.00  0.00    +0.034 A 
ATOM     14  C   UNL     1      -1.550  -6.179  -2.260  0.00  0.00    +0.018 A 
ATOM     15  C   UNL     1      -1.741  -7.309  -2.994  0.00  0.00    +0.071 A 
ATOM     16  C   UNL     1      -0.772  -7.694  -3.938  0.00  0.00    +0.249 A 
ATOM     17  N   UNL     1       0.337  -6.954  -4.118  0.00  0.00    -0.328 N 
ATOM     18  C   UNL     1       0.544  -5.828  -3.405  0.00  0.00    +0.097 A 
ATOM     19  O   UNL     1      -0.938  -8.707  -4.598  0.00  0.00    -0.268 OA
ATOM     20  H   UNL     1       0.996  -7.233  -4.773  0.00  0.00    +0.168 HD
ENDBRANCH  10  13
TORSDOF 1
