REMARK  Name = ZINC34788696
REMARK  8 active torsions:
REMARK  status: ('A' for Active; 'I' for Inactive)
REMARK    1  A    between atoms: C_1  and  C_2
REMARK    2  A    between atoms: C_2  and  O_3
REMARK    3  A    between atoms: O_3  and  C_4
REMARK    4  A    between atoms: C_4  and  C_6
REMARK    5  A    between atoms: C_10  and  N_11
REMARK    6  A    between atoms: C_18  and  C_21
REMARK    7  A    between atoms: C_24  and  C_26
REMARK    8  A    between atoms: C_24  and  C_27
REMARK                            x       y       z     vdW  Elec       q    Type
REMARK                         _______ _______ _______ _____ _____    ______ ____
ROOT
ATOM      1  C   UNL     1      -2.844  -2.410   0.016  0.00  0.00    +0.091 A 
ATOM      2  C   UNL     1      -3.550  -2.706  -1.215  0.00  0.00    -0.016 A 
ATOM      3  C   UNL     1      -4.781  -3.236  -1.037  0.00  0.00    +0.021 A 
ATOM      4  S   UNL     1      -4.978  -3.333   0.716  0.00  0.00    -0.075 S 
ATOM      5  C   UNL     1      -3.498  -2.704   1.205  0.00  0.00    +0.088 A 
ATOM      6  C   UNL     1      -5.731  -3.635  -2.122  0.00  0.00    +0.203 C 
ATOM      7  O   UNL     1      -5.255  -3.068  -3.353  0.00  0.00    -0.368 OA
ATOM      8  C   UNL     1      -3.864  -3.298  -3.593  0.00  0.00    +0.068 C 
ATOM      9  C   UNL     1      -3.017  -2.470  -2.622  0.00  0.00    +0.071 C 
ATOM     10  C   UNL     1      -3.525  -2.899  -5.030  0.00  0.00    +0.041 C 
ATOM     11  C   UNL     1      -3.555  -4.784  -3.396  0.00  0.00    +0.041 C 
ENDROOT
BRANCH   5  12
ATOM     12  N   UNL     1      -3.037  -2.520   2.499  0.00  0.00    -0.263 N 
ATOM     13  C   UNL     1      -3.812  -2.866   3.546  0.00  0.00    +0.310 C 
ATOM     14  O   UNL     1      -4.916  -3.339   3.356  0.00  0.00    -0.252 OA
ATOM     15  N   UNL     1      -3.364  -2.687   4.805  0.00  0.00    -0.254 N 
ATOM     16  C   UNL     1      -4.204  -2.944   5.887  0.00  0.00    +0.126 A 
ATOM     17  C   UNL     1      -3.772  -2.657   7.177  0.00  0.00    +0.044 A 
ATOM     18  C   UNL     1      -4.616  -2.917   8.242  0.00  0.00    +0.008 A 
ATOM     19  C   UNL     1      -5.867  -3.457   7.979  0.00  0.00    -0.032 A 
ATOM     20  C   UNL     1      -6.231  -3.717   6.673  0.00  0.00    +0.116 A 
ATOM     21  N   UNL     1      -5.407  -3.454   5.677  0.00  0.00    -0.240 NA
ATOM     22  C   UNL     1      -6.820  -3.756   9.108  0.00  0.00    +0.045 C 
ATOM     23  H   UNL     1      -2.157  -2.143   2.651  0.00  0.00    +0.157 HD
ATOM     24  H   UNL     1      -2.457  -2.379   4.957  0.00  0.00    +0.158 HD
ENDBRANCH   5  12
BRANCH   1  25
ATOM     25  C   UNL     1      -1.500  -1.831   0.007  0.00  0.00    +0.342 C 
ATOM     26  O   UNL     1      -0.525  -2.559  -0.008  0.00  0.00    -0.245 OA
BRANCH  25  27
ATOM     27  O   UNL     1      -1.342  -0.492   0.014  0.00  0.00    -0.461 OA
BRANCH  27  29
ATOM     28  C   UNL     1      -0.022   1.533   0.014  0.00  0.00    +0.048 C 
ATOM     29  C   UNL     1      -0.001   0.004   0.004  0.00  0.00    +0.229 C 
ENDBRANCH  27  29
ENDBRANCH  25  27
ENDBRANCH   1  25
TORSDOF 4
