REMARK  Name = ZINC62231197
REMARK  8 active torsions:
REMARK  status: ('A' for Active; 'I' for Inactive)
REMARK    1  A    between atoms: C_1  and  O_2
REMARK    2  A    between atoms: O_2  and  C_3
REMARK    3  A    between atoms: C_6  and  N_26
REMARK    4  A    between atoms: C_8  and  C_9
REMARK    5  A    between atoms: N_11  and  C_12
REMARK    6  A    between atoms: C_12  and  C_13
REMARK    7  A    between atoms: N_17  and  C_19
REMARK    8  A    between atoms: C_19  and  C_20
REMARK                            x       y       z     vdW  Elec       q    Type
REMARK                         _______ _______ _______ _____ _____    ______ ____
ROOT
ATOM      1  C   UNL     1       0.067  -2.829  -0.060  0.00  0.00    +0.248 C 
ATOM      2  O   UNL     1      -0.475  -2.296   0.889  0.00  0.00    -0.270 OA
ATOM      3  N   UNL     1       0.123  -4.174  -0.136  0.00  0.00    -0.311 N 
ATOM      4  H   UNL     1       0.555  -4.599  -0.893  0.00  0.00    +0.149 HD
ENDROOT
BRANCH   1  10
ATOM      5  C   UNL     1       0.605  -0.606  -1.054  0.00  0.00    +0.132 A 
ATOM      6  C   UNL     1       1.172   0.160  -2.061  0.00  0.00    +0.048 A 
ATOM      7  C   UNL     1       1.785  -0.454  -3.136  0.00  0.00    +0.036 A 
ATOM      8  C   UNL     1       1.838  -1.836  -3.216  0.00  0.00    +0.127 A 
ATOM      9  C   UNL     1       1.279  -2.612  -2.224  0.00  0.00    +0.049 A 
ATOM     10  C   UNL     1       0.661  -2.004  -1.129  0.00  0.00    +0.080 A 
BRANCH   8  11
ATOM     11  N   UNL     1       2.498  -2.482  -4.373  0.00  0.00    +0.056 N 
ATOM     12  O   UNL     1       2.989  -1.804  -5.245  0.00  0.00    -0.126 OA
ATOM     13  O   UNL     1       2.546  -3.688  -4.446  0.00  0.00    -0.126 OA
ENDBRANCH   8  11
BRANCH   5  15
ATOM     14  C   UNL     1      -0.017   1.425   0.010  0.00  0.00    +0.277 C 
ATOM     15  O   UNL     1       0.002  -0.004   0.002  0.00  0.00    -0.494 OA
ENDBRANCH   5  15
ENDBRANCH   1  10
BRANCH   3  16
ATOM     16  C   UNL     1      -0.467  -4.993   0.926  0.00  0.00    +0.106 C 
BRANCH  16  17
ATOM     17  C   UNL     1      -0.267  -6.474   0.598  0.00  0.00    -0.011 C 
ATOM     18  C   UNL     1       1.228  -6.805   0.623  0.00  0.00    +0.001 C 
ATOM     19  C   UNL     1       1.413  -8.304   0.371  0.00  0.00    -0.018 C 
ATOM     20  C   UNL     1       0.627  -9.093   1.421  0.00  0.00    -0.078 C 
ATOM     21  N   UNL     1      -0.798  -8.752   1.329  0.00  0.00    +0.383 N 
ATOM     22  C   UNL     1      -0.991  -7.330   1.640  0.00  0.00    -0.073 C 
ATOM     23  H   UNL     1      -1.128  -8.938   0.394  0.00  0.00    -0.081 HD
BRANCH  21  24
ATOM     24  C   UNL     1      -1.558  -9.568   2.285  0.00  0.00    -0.043 C 
BRANCH  24  25
ATOM     25  C   UNL     1      -1.468 -11.019   1.890  0.00  0.00    -0.064 A 
ATOM     26  C   UNL     1      -2.405 -11.560   1.029  0.00  0.00    +0.002 A 
ATOM     27  C   UNL     1      -2.323 -12.891   0.666  0.00  0.00    +0.000 A 
ATOM     28  C   UNL     1      -1.304 -13.681   1.163  0.00  0.00    +0.000 A 
ATOM     29  C   UNL     1      -0.367 -13.140   2.023  0.00  0.00    +0.000 A 
ATOM     30  C   UNL     1      -0.446 -11.808   2.383  0.00  0.00    +0.002 A 
ENDBRANCH  24  25
ENDBRANCH  21  24
ENDBRANCH  16  17
ENDBRANCH   3  16
TORSDOF 7
