REMARK  Name = ZINC05446399
REMARK  10 active torsions:
REMARK  status: ('A' for Active; 'I' for Inactive)
REMARK    1  A    between atoms: C_1  and  C_2
REMARK    2  A    between atoms: C_6  and  C_8
REMARK    3  A    between atoms: C_8  and  O_9
REMARK    4  A    between atoms: O_9  and  C_10
REMARK    5  A    between atoms: C_13  and  C_18
REMARK    6  A    between atoms: C_15  and  O_16
REMARK    7  A    between atoms: O_16  and  C_17
REMARK    8  A    between atoms: C_21  and  C_32
REMARK    9  A    between atoms: C_27  and  N_31
REMARK   10  A    between atoms: C_28  and  C_29
REMARK                            x       y       z     vdW  Elec       q    Type
REMARK                         _______ _______ _______ _____ _____    ______ ____
ROOT
ATOM      1  C   UNL     1      -0.110   7.179  -1.487  0.00  0.00    +0.162 A 
ATOM      2  C   UNL     1      -0.117   8.019  -0.385  0.00  0.00    +0.050 A 
ATOM      3  C   UNL     1      -0.132   9.390  -0.561  0.00  0.00    +0.008 A 
ATOM      4  C   UNL     1      -0.150   9.926  -1.835  0.00  0.00    -0.031 A 
ATOM      5  C   UNL     1      -0.150   9.093  -2.939  0.00  0.00    +0.054 A 
ATOM      6  C   UNL     1      -0.129   7.718  -2.769  0.00  0.00    +0.162 A 
ENDROOT
BRANCH   4   7
ATOM      7  C   UNL     1      -0.173  11.421  -2.022  0.00  0.00    +0.101 C 
ATOM      8  C   UNL     1       1.046  12.032  -1.379  0.00  0.00    +0.049 A 
ATOM      9  C   UNL     1       2.371  11.991  -1.792  0.00  0.00    +0.068 A 
ATOM     10  N   UNL     1       3.090  12.661  -0.923  0.00  0.00    -0.176 NA
ATOM     11  N   UNL     1       2.234  13.151   0.076  0.00  0.00    -0.246 N 
ATOM     12  H   UNL     1       2.642  13.744   0.908  0.00  0.00    +0.192 HD
ATOM     13  C   UNL     1       0.986  12.756  -0.222  0.00  0.00    +0.222 A 
ATOM     14  O   UNL     1      -0.177  12.984   0.439  0.00  0.00    -0.423 OA
ATOM     15  C   UNL     1      -1.327  12.715  -0.210  0.00  0.00    +0.200 C 
ATOM     16  C   UNL     1      -1.396  11.999  -1.356  0.00  0.00    +0.098 C 
ATOM     17  C   UNL     1       2.893  11.297  -3.024  0.00  0.00    +0.068 C 
BRANCH  15  18
ATOM     18  N   UNL     1      -2.498  13.195   0.322  0.00  0.00    -0.328 N 
ATOM     19  H   UNL     1      -3.455  12.994  -0.182  0.00  0.00    +0.145 HD
ATOM     20  H   UNL     1      -2.479  13.782   1.253  0.00  0.00    +0.145 HD
ENDBRANCH  15  18
BRANCH  16  21
ATOM     21  C   UNL     1      -2.677  11.781  -1.958  0.00  0.00    +0.101 C 
ATOM     22  N   UNL     1      -3.693  11.608  -2.436  0.00  0.00    -0.191 NA
ENDBRANCH  16  21
ENDBRANCH   4   7
BRANCH   6  23
ATOM     23  O   UNL     1      -0.128   6.898  -3.854  0.00  0.00    -0.491 OA
ATOM     24  C   UNL     1      -0.149   7.522  -5.139  0.00  0.00    +0.277 C 
ENDBRANCH   6  23
BRANCH   1  25
ATOM     25  O   UNL     1      -0.090   5.830  -1.315  0.00  0.00    -0.484 OA
BRANCH  25  26
ATOM     26  C   UNL     1      -0.070   5.347   0.030  0.00  0.00    +0.264 C 
BRANCH  26  32
ATOM     27  C   UNL     1      -2.514   0.980   0.019  0.00  0.00    +0.044 C 
ATOM     28  C   UNL     1      -1.219   1.751   0.017  0.00  0.00    -0.050 A 
ATOM     29  C   UNL     1      -0.013   1.076   0.008  0.00  0.00    +0.003 A 
ATOM     30  C   UNL     1       1.175   1.783   0.000  0.00  0.00    +0.001 A 
ATOM     31  C   UNL     1       1.156   3.166   0.008  0.00  0.00    +0.007 A 
ATOM     32  C   UNL     1      -0.050   3.840   0.022  0.00  0.00    -0.010 A 
ATOM     33  C   UNL     1      -1.238   3.133   0.030  0.00  0.00    +0.010 A 
ENDBRANCH  26  32
ENDBRANCH  25  26
ENDBRANCH   1  25
TORSDOF 7
