REMARK  Name = ZINC30548933
REMARK  6 active torsions:
REMARK  status: ('A' for Active; 'I' for Inactive)
REMARK    1  A    between atoms: C_1  and  C_2
REMARK    2  A    between atoms: C_12  and  C_14
REMARK    3  A    between atoms: C_14  and  C_16
REMARK    4  A    between atoms: C_14  and  S_17
REMARK    5  A    between atoms: S_17  and  C_18
REMARK    6  A    between atoms: C_21  and  N_24
REMARK                            x       y       z     vdW  Elec       q    Type
REMARK                         _______ _______ _______ _____ _____    ______ ____
ROOT
ATOM      1  C   UNL     1       0.419   1.733  -0.243  0.00  0.00    +0.033 C 
ATOM      2  C   UNL     1       0.305   0.207  -0.253  0.00  0.00    +0.104 C 
ATOM      3  C   UNL     1      -1.167  -0.202  -0.228  0.00  0.00    -0.017 A 
ATOM      4  C   UNL     1      -2.129   0.359  -1.065  0.00  0.00    +0.013 A 
ATOM      5  C   UNL     1      -3.415  -0.055  -0.991  0.00  0.00    +0.046 A 
ATOM      6  S   UNL     1      -3.330  -1.289   0.298  0.00  0.00    -0.101 S 
ATOM      7  C   UNL     1      -1.595  -1.158   0.641  0.00  0.00    -0.004 A 
ATOM      8  C   UNL     1      -0.787  -1.912   1.647  0.00  0.00    +0.061 C 
ATOM      9  C   UNL     1       0.702  -1.753   1.303  0.00  0.00    +0.113 C 
ATOM     10  N   UNL     1       0.947  -0.347   0.947  0.00  0.00    -0.293 N 
ATOM     11  C   UNL     1       1.748   0.422   1.711  0.00  0.00    +0.229 C 
ATOM     12  O   UNL     1       1.881   1.600   1.455  0.00  0.00    -0.274 OA
ENDROOT
BRANCH  11  13
ATOM     13  C   UNL     1       2.478  -0.182   2.883  0.00  0.00    +0.134 C 
ATOM     14  C   UNL     1       3.787  -0.810   2.400  0.00  0.00    +0.029 C 
BRANCH  13  15
ATOM     15  S   UNL     1       2.841   1.112   4.101  0.00  0.00    -0.113 S 
BRANCH  15  16
ATOM     16  C   UNL     1       1.257   1.577   4.715  0.00  0.00    +0.009 A 
ATOM     17  C   UNL     1       0.125   0.868   4.329  0.00  0.00    +0.017 A 
ATOM     18  C   UNL     1      -1.115   1.235   4.812  0.00  0.00    +0.034 A 
ATOM     19  C   UNL     1      -1.232   2.307   5.679  0.00  0.00    +0.126 A 
ATOM     20  C   UNL     1      -0.108   3.014   6.064  0.00  0.00    +0.034 A 
ATOM     21  C   UNL     1       1.136   2.649   5.590  0.00  0.00    +0.017 A 
BRANCH  19  22
ATOM     22  N   UNL     1      -2.563   2.697   6.195  0.00  0.00    +0.056 N 
ATOM     23  O   UNL     1      -3.547   2.079   5.859  0.00  0.00    -0.126 OA
ATOM     24  O   UNL     1      -2.667   3.633   6.952  0.00  0.00    -0.126 OA
ENDBRANCH  19  22
ENDBRANCH  15  16
ENDBRANCH  13  15
ENDBRANCH  11  13
TORSDOF 4
