REMARK  Name = ZINC49409681
REMARK  9 active torsions:
REMARK  status: ('A' for Active; 'I' for Inactive)
REMARK    1  A    between atoms: C_1  and  N_2
REMARK    2  A    between atoms: N_2  and  C_3
REMARK    3  A    between atoms: N_2  and  C_4
REMARK    4  A    between atoms: C_4  and  C_6
REMARK    5  A    between atoms: C_4  and  C_22
REMARK    6  A    between atoms: C_6  and  N_7
REMARK    7  A    between atoms: C_8  and  C_10
REMARK    8  A    between atoms: N_12  and  C_13
REMARK    9  A    between atoms: C_18  and  C_19
REMARK                            x       y       z     vdW  Elec       q    Type
REMARK                         _______ _______ _______ _____ _____    ______ ____
ROOT
ATOM      1  N   UNL     1      -1.289  -2.626   1.237  0.00  0.00    -0.309 N 
ATOM      2  C   UNL     1      -1.525  -3.940   1.423  0.00  0.00    +0.299 C 
ATOM      3  O   UNL     1      -2.120  -4.575   0.577  0.00  0.00    -0.265 OA
ATOM      4  H   UNL     1      -0.813  -2.118   1.913  0.00  0.00    +0.149 HD
ENDROOT
BRANCH   2   5
ATOM      5  C   UNL     1      -1.054  -4.614   2.669  0.00  0.00    +0.303 C 
ATOM      6  O   UNL     1      -0.458  -3.979   3.515  0.00  0.00    -0.265 OA
ATOM      7  N   UNL     1      -1.290  -5.928   2.855  0.00  0.00    -0.277 N 
ATOM      8  H   UNL     1      -1.704  -6.451   2.150  0.00  0.00    +0.155 HD
BRANCH   7   9
ATOM      9  C   UNL     1      -0.940  -6.535   4.058  0.00  0.00    +0.053 A 
ATOM     10  C   UNL     1      -1.014  -5.822   5.246  0.00  0.00    +0.044 A 
ATOM     11  C   UNL     1      -0.666  -6.426   6.439  0.00  0.00    +0.043 A 
ATOM     12  C   UNL     1      -0.242  -7.746   6.459  0.00  0.00    +0.021 A 
ATOM     13  C   UNL     1      -0.162  -8.469   5.289  0.00  0.00    +0.022 A 
ATOM     14  C   UNL     1      -0.516  -7.873   4.076  0.00  0.00    +0.073 A 
ATOM     15 CL   UNL     1      -0.761  -5.527   7.922  0.00  0.00    -0.083 Cl
BRANCH  14  16
ATOM     16  C   UNL     1      -0.442  -8.621   2.857  0.00  0.00    +0.101 C 
ATOM     17  N   UNL     1      -0.383  -9.214   1.890  0.00  0.00    -0.191 NA
ENDBRANCH  14  16
ENDBRANCH   7   9
ENDBRANCH   2   5
BRANCH   1  18
ATOM     18  C   UNL     1      -1.751  -1.964   0.014  0.00  0.00    +0.094 C 
BRANCH  18  19
ATOM     19  C   UNL     1      -1.469  -0.463   0.109  0.00  0.00    -0.020 C 
BRANCH  19  20
ATOM     20  C   UNL     1       0.020  -0.232   0.137  0.00  0.00    -0.041 A 
ATOM     21  C   UNL     1       0.676  -0.102   1.346  0.00  0.00    +0.003 A 
ATOM     22  C   UNL     1       2.042   0.110   1.372  0.00  0.00    +0.000 A 
ATOM     23  C   UNL     1       2.752   0.192   0.189  0.00  0.00    +0.001 A 
ATOM     24  C   UNL     1       2.097   0.061  -1.021  0.00  0.00    +0.020 A 
ATOM     25  C   UNL     1       0.731  -0.156  -1.047  0.00  0.00    +0.043 A 
ATOM     26 CL   UNL     1      -0.092  -0.326  -2.567  0.00  0.00    -0.083 Cl
ENDBRANCH  19  20
BRANCH  19  28
ATOM     27  C   UNL     1      -1.898   1.529   1.373  0.00  0.00    -0.096 C 
ATOM     28  N   UNL     1      -2.071   0.071   1.337  0.00  0.00    +0.382 N 
ATOM     29  C   UNL     1      -3.503  -0.253   1.362  0.00  0.00    -0.096 C 
ATOM     30  H   UNL     1      -1.619  -0.341   2.140  0.00  0.00    -0.082 HD
ENDBRANCH  19  28
ENDBRANCH  18  19
ENDBRANCH   1  18
TORSDOF 7
