REMARK  Name = ZINC40922680
REMARK  6 active torsions:
REMARK  status: ('A' for Active; 'I' for Inactive)
REMARK    1  A    between atoms: C_1  and  C_2
REMARK    2  A    between atoms: C_2  and  C_32
REMARK    3  A    between atoms: C_6  and  C_14
REMARK    4  A    between atoms: C_18  and  O_20
REMARK    5  A    between atoms: O_20  and  C_21
REMARK    6  A    between atoms: C_21  and  C_22
REMARK                            x       y       z     vdW  Elec       q    Type
REMARK                         _______ _______ _______ _____ _____    ______ ____
ROOT
ATOM      1  C   UNL     1      -0.019   1.526   0.010  0.00  0.00    +0.011 C 
ATOM      2  C   UNL     1       0.002  -0.004   0.002  0.00  0.00    -0.023 C 
ATOM      3  C   UNL     1      -1.431  -0.539   0.041  0.00  0.00    +0.058 C 
ATOM      4  C   UNL     1      -1.407  -2.050   0.072  0.00  0.00    +0.020 C 
ATOM      5  C   UNL     1      -0.397  -2.714   0.672  0.00  0.00    +0.041 C 
ATOM      6  C   UNL     1      -0.353  -4.226   0.736  0.00  0.00    +0.177 C 
ATOM      7  N   UNL     1      -1.321  -4.790  -0.193  0.00  0.00    -0.201 N 
ATOM      8  C   UNL     1      -2.307  -4.063  -0.782  0.00  0.00    +0.240 A 
ATOM      9  N   UNL     1      -2.986  -4.876  -1.539  0.00  0.00    -0.092 NA
ATOM     10  N   UNL     1      -2.495  -6.066  -1.471  0.00  0.00    -0.021 NA
ATOM     11  N   UNL     1      -1.478  -6.089  -0.671  0.00  0.00    -0.042 NA
ATOM     12  N   UNL     1      -2.448  -2.708  -0.538  0.00  0.00    -0.286 N 
ATOM     13  C   UNL     1       0.672  -2.019   1.267  0.00  0.00    +0.164 C 
ATOM     14  O   UNL     1       1.558  -2.646   1.813  0.00  0.00    -0.292 OA
ATOM     15  C   UNL     1       0.742  -0.517   1.242  0.00  0.00    +0.086 C 
ATOM     16  C   UNL     1       0.705  -0.503  -1.262  0.00  0.00    +0.011 C 
ATOM     17  H   UNL     1      -3.257  -2.237  -0.791  0.00  0.00    +0.155 HD
ENDROOT
BRANCH   6  18
ATOM     18  C   UNL     1      -0.682  -4.678   2.135  0.00  0.00    -0.015 A 
ATOM     19  C   UNL     1      -1.906  -4.359   2.694  0.00  0.00    +0.006 A 
ATOM     20  C   UNL     1      -2.211  -4.772   3.978  0.00  0.00    +0.004 A 
ATOM     21  C   UNL     1      -1.292  -5.505   4.705  0.00  0.00    +0.045 A 
ATOM     22  C   UNL     1      -0.064  -5.827   4.146  0.00  0.00    +0.121 A 
ATOM     23  C   UNL     1       0.237  -5.416   2.856  0.00  0.00    +0.051 A 
BRANCH  22  24
ATOM     24  O   UNL     1       0.840  -6.547   4.860  0.00  0.00    -0.487 OA
BRANCH  24  25
ATOM     25  C   UNL     1       0.460  -6.941   6.180  0.00  0.00    +0.266 C 
BRANCH  25  26
ATOM     26  C   UNL     1       1.581  -7.726   6.812  0.00  0.00    +0.008 A 
ATOM     27  C   UNL     1       2.749  -7.952   6.109  0.00  0.00    +0.008 A 
ATOM     28  C   UNL     1       3.777  -8.671   6.689  0.00  0.00    +0.000 A 
ATOM     29  C   UNL     1       3.637  -9.166   7.972  0.00  0.00    +0.001 A 
ATOM     30  C   UNL     1       2.469  -8.941   8.676  0.00  0.00    +0.020 A 
ATOM     31  C   UNL     1       1.442  -8.216   8.098  0.00  0.00    +0.047 A 
ATOM     32 CL   UNL     1      -0.023  -7.928   8.984  0.00  0.00    -0.083 Cl
ENDBRANCH  25  26
ENDBRANCH  24  25
ENDBRANCH  22  24
ENDBRANCH   6  18
TORSDOF 4
