REMARK  Name = ZINC03605939
REMARK  2 active torsions:
REMARK  status: ('A' for Active; 'I' for Inactive)
REMARK    1  A    between atoms: C_4  and  C_8
REMARK    2  A    between atoms: C_8  and  N_9
REMARK                            x       y       z     vdW  Elec       q    Type
REMARK                         _______ _______ _______ _____ _____    ______ ____
ROOT
ATOM      1  N   UNL     1       1.159   4.075   1.394  0.00  0.00    -0.220 N 
ATOM      2  C   UNL     1       0.046   4.314   2.120  0.00  0.00    +0.247 C 
ATOM      3  O   UNL     1      -1.106   4.178   1.767  0.00  0.00    -0.273 OA
ATOM      4  C   UNL     1       0.541   4.784   3.465  0.00  0.00    +0.113 C 
ATOM      5  C   UNL     1       0.026   6.196   3.773  0.00  0.00    +0.035 C 
ATOM      6  C   UNL     1      -1.193   5.956   4.701  0.00  0.00    +0.003 C 
ATOM      7  C   UNL     1      -0.736   4.755   5.567  0.00  0.00    +0.003 C 
ATOM      8  C   UNL     1       0.062   3.864   4.590  0.00  0.00    +0.035 C 
ATOM      9  N   UNL     1       2.000   4.766   3.344  0.00  0.00    -0.285 N 
ATOM     10  C   UNL     1       2.270   4.337   2.095  0.00  0.00    +0.310 C 
ATOM     11  O   UNL     1       3.395   4.203   1.654  0.00  0.00    -0.252 OA
ATOM     12  H   UNL     1       2.644   5.014   4.026  0.00  0.00    +0.151 HD
ENDROOT
BRANCH   1  13
ATOM     13  C   UNL     1       1.152   3.594   0.010  0.00  0.00    +0.156 C 
BRANCH  13  17
ATOM     14  C   UNL     1       1.208  -0.679  -0.013  0.00  0.00    +0.003 A 
ATOM     15  C   UNL     1       0.002  -0.004   0.002  0.00  0.00    +0.020 A 
ATOM     16  C   UNL     1      -0.017   1.379   0.010  0.00  0.00    +0.047 A 
ATOM     17  C   UNL     1       1.172   2.087   0.002  0.00  0.00    +0.007 A 
ATOM     18  C   UNL     1       2.379   1.411  -0.012  0.00  0.00    +0.047 A 
ATOM     19  C   UNL     1       2.396   0.027  -0.020  0.00  0.00    +0.020 A 
ATOM     20 CL   UNL     1       3.871   2.298  -0.021  0.00  0.00    -0.083 Cl
ATOM     21 CL   UNL     1      -1.532   2.227   0.021  0.00  0.00    -0.083 Cl
ENDBRANCH  13  17
ENDBRANCH   1  13
TORSDOF 2
