REMARK  Name = ZINC67517200
REMARK  5 active torsions:
REMARK  status: ('A' for Active; 'I' for Inactive)
REMARK    1  A    between atoms: C_1  and  C_2
REMARK    2  A    between atoms: C_2  and  C_3
REMARK    3  A    between atoms: C_3  and  N_4
REMARK    4  A    between atoms: C_9  and  C_11
REMARK    5  A    between atoms: C_23  and  C_26
REMARK                            x       y       z     vdW  Elec       q    Type
REMARK                         _______ _______ _______ _____ _____    ______ ____
ROOT
ATOM      1  C   UNL     1      -1.375  -4.614   2.487  0.00  0.00    +0.267 C 
ATOM      2  O   UNL     1      -1.491  -5.820   2.397  0.00  0.00    -0.268 OA
ATOM      3  N   UNL     1      -2.305  -3.894   3.146  0.00  0.00    -0.293 N 
ATOM      4  C   UNL     1      -2.276  -2.425   3.121  0.00  0.00    +0.108 C 
ATOM      5  C   UNL     1      -3.640  -1.909   2.652  0.00  0.00    +0.019 C 
ATOM      6  C   UNL     1      -4.741  -2.505   3.533  0.00  0.00    +0.007 C 
ATOM      7  C   UNL     1      -4.721  -4.029   3.411  0.00  0.00    +0.010 C 
ATOM      8  C   UNL     1      -3.377  -4.562   3.902  0.00  0.00    +0.079 C 
ATOM      9  C   UNL     1      -3.209  -4.226   5.386  0.00  0.00    +0.023 C 
ATOM     10  C   UNL     1      -4.350  -4.854   6.188  0.00  0.00    +0.005 C 
ATOM     11  C   UNL     1      -5.685  -4.290   5.696  0.00  0.00    -0.014 C 
ATOM     12  C   UNL     1      -5.847  -4.638   4.242  0.00  0.00    +0.008 C 
ATOM     13  C   UNL     1      -6.829  -4.905   6.505  0.00  0.00    +0.007 C 
ENDROOT
BRANCH   1  19
ATOM     14  N   UNL     1       0.997  -2.027   1.606  0.00  0.00    -0.229 N 
ATOM     15  C   UNL     1       1.882  -2.631   0.791  0.00  0.00    +0.267 A 
ATOM     16  O   UNL     1       2.817  -2.001   0.324  0.00  0.00    -0.266 OA
ATOM     17  C   UNL     1       1.722  -4.000   0.480  0.00  0.00    +0.074 A 
ATOM     18  C   UNL     1       0.662  -4.659   1.028  0.00  0.00    +0.040 A 
ATOM     19  C   UNL     1      -0.213  -3.935   1.873  0.00  0.00    +0.146 A 
ATOM     20  N   UNL     1       0.007  -2.663   2.118  0.00  0.00    -0.164 NA
BRANCH  14  21
ATOM     21  C   UNL     1       1.173  -0.607   1.921  0.00  0.00    +0.147 C 
BRANCH  21  23
ATOM     22  C   UNL     1       0.603   1.723   1.223  0.00  0.00    +0.005 C 
ATOM     23  C   UNL     1       0.419   0.240   0.894  0.00  0.00    +0.020 C 
ENDBRANCH  21  23
ENDBRANCH  14  21
ENDBRANCH   1  19
TORSDOF 3
