REMARK  Name = ZINC59748047
REMARK  11 active torsions:
REMARK  status: ('A' for Active; 'I' for Inactive)
REMARK    1  A    between atoms: C_1  and  C_2
REMARK    2  A    between atoms: C_2  and  C_3
REMARK    3  A    between atoms: C_3  and  N_4
REMARK    4  A    between atoms: C_7  and  N_10
REMARK    5  A    between atoms: N_10  and  C_11
REMARK    6  A    between atoms: N_10  and  S_12
REMARK    7  A    between atoms: S_12  and  C_15
REMARK    8  A    between atoms: C_17  and  O_24
REMARK    9  A    between atoms: C_18  and  O_22
REMARK   10  A    between atoms: O_22  and  C_23
REMARK   11  A    between atoms: O_24  and  C_25
REMARK                            x       y       z     vdW  Elec       q    Type
REMARK                         _______ _______ _______ _____ _____    ______ ____
ROOT
ATOM      1  S   UNL     1       3.354  -6.944   1.264  0.00  0.00    +0.062 S 
ATOM      2  O   UNL     1       3.218  -8.162   0.546  0.00  0.00    -0.153 OA
ATOM      3  O   UNL     1       4.284  -5.938   0.888  0.00  0.00    -0.153 OA
ENDROOT
BRANCH   1   4
ATOM      4  C   UNL     1       3.729  -7.380   2.930  0.00  0.00    +0.123 A 
ATOM      5  C   UNL     1       3.772  -8.711   3.301  0.00  0.00    +0.079 A 
ATOM      6  C   UNL     1       4.067  -9.056   4.610  0.00  0.00    +0.163 A 
ATOM      7  C   UNL     1       4.320  -8.060   5.549  0.00  0.00    +0.163 A 
ATOM      8  C   UNL     1       4.275  -6.729   5.171  0.00  0.00    +0.066 A 
ATOM      9  C   UNL     1       3.985  -6.391   3.861  0.00  0.00    +0.048 A 
ATOM     10 BR   UNL     1       3.932  -4.572   3.345  0.00  0.00    -0.048 Br
BRANCH   7  11
ATOM     11  O   UNL     1       4.609  -8.395   6.835  0.00  0.00    -0.491 OA
ATOM     12  C   UNL     1       4.858  -7.320   7.744  0.00  0.00    +0.277 C 
ENDBRANCH   7  11
BRANCH   6  13
ATOM     13  O   UNL     1       4.109 -10.365   4.976  0.00  0.00    -0.491 OA
ATOM     14  C   UNL     1       3.839 -11.333   3.960  0.00  0.00    +0.277 C 
ENDBRANCH   6  13
ENDBRANCH   1   4
BRANCH   1  15
ATOM     15  N   UNL     1       1.860  -6.229   1.270  0.00  0.00    -0.177 NA
ATOM     16  C   UNL     1       0.651  -7.057   1.283  0.00  0.00    +0.132 C 
BRANCH  15  20
ATOM     17  N   UNL     1       0.047  -2.427   1.113  0.00  0.00    +0.380 N 
ATOM     18  C   UNL     1       0.910  -2.794  -0.016  0.00  0.00    -0.077 C 
ATOM     19  C   UNL     1       1.097  -4.312  -0.048  0.00  0.00    +0.002 C 
ATOM     20  C   UNL     1       1.747  -4.768   1.262  0.00  0.00    +0.076 C 
ATOM     21  C   UNL     1       0.876  -4.315   2.437  0.00  0.00    +0.002 C 
ATOM     22  C   UNL     1       0.697  -2.797   2.377  0.00  0.00    -0.077 C 
ATOM     23  H   UNL     1      -0.833  -2.914   1.034  0.00  0.00    -0.082 HD
BRANCH  17  24
ATOM     24  C   UNL     1      -0.193  -0.978   1.094  0.00  0.00    -0.079 C 
BRANCH  24  26
ATOM     25  C   UNL     1      -1.231   0.901  -0.185  0.00  0.00    +0.002 C 
ATOM     26  C   UNL     1      -0.981  -0.608  -0.165  0.00  0.00    -0.022 C 
ENDBRANCH  24  26
ENDBRANCH  17  24
ENDBRANCH  15  20
ENDBRANCH   1  15
TORSDOF 7
