REMARK  Name = ZINC00806451
REMARK  11 active torsions:
REMARK  status: ('A' for Active; 'I' for Inactive)
REMARK    1  A    between atoms: C_1  and  C_2
REMARK    2  A    between atoms: C_2  and  O_3
REMARK    3  A    between atoms: O_3  and  C_4
REMARK    4  A    between atoms: C_6  and  C_14
REMARK    5  A    between atoms: C_9  and  O_10
REMARK    6  A    between atoms: O_10  and  C_11
REMARK    7  A    between atoms: C_11  and  C_13
REMARK    8  A    between atoms: C_16  and  C_29
REMARK    9  A    between atoms: C_17  and  N_28
REMARK   10  A    between atoms: C_24  and  C_26
REMARK   11  A    between atoms: C_24  and  C_27
REMARK                            x       y       z     vdW  Elec       q    Type
REMARK                         _______ _______ _______ _____ _____    ______ ____
ROOT
ATOM      1  C   UNL     1      -1.390   2.084   0.007  0.00  0.00    +0.101 C 
ATOM      2  C   UNL     1      -1.208   3.515  -0.413  0.00  0.00    +0.098 C 
ATOM      3  C   UNL     1       0.022   4.085  -0.393  0.00  0.00    +0.198 C 
ATOM      4  O   UNL     1       1.104   3.398   0.005  0.00  0.00    -0.445 OA
ATOM      5  C   UNL     1       1.091   2.052  -0.027  0.00  0.00    +0.115 C 
ATOM      6  C   UNL     1      -0.064   1.362  -0.017  0.00  0.00    +0.046 C 
ATOM      7  C   UNL     1      -0.076  -0.046  -0.034  0.00  0.00    +0.164 C 
ATOM      8  O   UNL     1      -1.139  -0.633  -0.043  0.00  0.00    -0.292 OA
ATOM      9  C   UNL     1       1.204  -0.836  -0.040  0.00  0.00    +0.086 C 
ATOM     10  C   UNL     1       2.298  -0.013   0.648  0.00  0.00    -0.021 C 
ATOM     11  C   UNL     1       2.418   1.332  -0.073  0.00  0.00    +0.081 C 
ATOM     12  C   UNL     1       1.922   0.221   2.112  0.00  0.00    +0.012 C 
ATOM     13  C   UNL     1       3.630  -0.762   0.572  0.00  0.00    +0.012 C 
ENDROOT
BRANCH   1  16
ATOM     14  C   UNL     1      -3.703   1.411   2.917  0.00  0.00    +0.163 A 
ATOM     15  C   UNL     1      -3.183   1.452   1.633  0.00  0.00    +0.054 A 
ATOM     16  C   UNL     1      -1.956   2.044   1.403  0.00  0.00    -0.031 A 
ATOM     17  C   UNL     1      -1.248   2.605   2.450  0.00  0.00    +0.008 A 
ATOM     18  C   UNL     1      -1.763   2.571   3.732  0.00  0.00    +0.050 A 
ATOM     19  C   UNL     1      -2.991   1.975   3.971  0.00  0.00    +0.173 A 
BRANCH  14  20
ATOM     20  O   UNL     1      -4.908   0.824   3.146  0.00  0.00    -0.489 OA
BRANCH  20  22
ATOM     21  C   UNL     1      -6.911  -0.345   2.466  0.00  0.00    +0.048 C 
ATOM     22  C   UNL     1      -5.582   0.266   2.016  0.00  0.00    +0.226 C 
ENDBRANCH  20  22
ENDBRANCH  14  20
BRANCH  19  23
ATOM     23  O   UNL     1      -3.498   1.940   5.232  0.00  0.00    -0.422 OA
BRANCH  23  24
ATOM     24  C   UNL     1      -3.336   0.801   5.923  0.00  0.00    +0.309 C 
ATOM     25  O   UNL     1      -2.676  -0.098   5.459  0.00  0.00    -0.251 OA
ATOM     26  C   UNL     1      -3.976   0.644   7.279  0.00  0.00    +0.136 C 
ENDBRANCH  23  24
ENDBRANCH  19  23
ENDBRANCH   1  16
BRANCH   3  27
ATOM     27  N   UNL     1       0.163   5.392  -0.788  0.00  0.00    -0.328 N 
ATOM     28  H   UNL     1       1.038   5.810  -0.778  0.00  0.00    +0.145 HD
ATOM     29  H   UNL     1      -0.613   5.898  -1.077  0.00  0.00    +0.145 HD
ENDBRANCH   3  27
BRANCH   2  30
ATOM     30  C   UNL     1      -2.340   4.280  -0.840  0.00  0.00    +0.101 C 
ATOM     31  N   UNL     1      -3.238   4.887  -1.179  0.00  0.00    -0.191 NA
ENDBRANCH   2  30
TORSDOF 7
