REMARK  Name = ZINC04807550
REMARK  11 active torsions:
REMARK  status: ('A' for Active; 'I' for Inactive)
REMARK    1  A    between atoms: C_1  and  C_2
REMARK    2  A    between atoms: C_2  and  C_4
REMARK    3  A    between atoms: C_2  and  N_7
REMARK    4  A    between atoms: C_4  and  C_5
REMARK    5  A    between atoms: C_4  and  C_6
REMARK    6  A    between atoms: C_13  and  C_20
REMARK    7  A    between atoms: N_18  and  C_19
REMARK    8  A    between atoms: C_24  and  O_28
REMARK    9  A    between atoms: C_25  and  O_26
REMARK   10  A    between atoms: O_26  and  C_27
REMARK   11  A    between atoms: O_28  and  C_29
REMARK                            x       y       z     vdW  Elec       q    Type
REMARK                         _______ _______ _______ _____ _____    ______ ____
ROOT
ATOM      1  N   UNL     1       0.564  -0.058   1.300  0.00  0.00    -0.289 N 
ATOM      2  C   UNL     1       1.736  -0.934   1.157  0.00  0.00    +0.159 C 
ATOM      3  C   UNL     1       2.104  -1.325   2.570  0.00  0.00    +0.042 C 
ATOM      4  C   UNL     1       1.214  -0.714   3.377  0.00  0.00    +0.058 C 
ATOM      5  C   UNL     1       0.301   0.044   2.615  0.00  0.00    +0.247 C 
ATOM      6  O   UNL     1      -0.608   0.703   3.086  0.00  0.00    -0.270 OA
ATOM      7  C   UNL     1       1.348  -0.935   4.870  0.00  0.00    +0.145 C 
ATOM      8  N   UNL     1       2.449  -1.804   5.319  0.00  0.00    -0.288 N 
ATOM      9  C   UNL     1       3.260  -2.346   4.389  0.00  0.00    +0.307 C 
ATOM     10  O   UNL     1       4.171  -3.065   4.749  0.00  0.00    -0.252 OA
ATOM     11  N   UNL     1       3.095  -2.116   3.079  0.00  0.00    -0.260 N 
ATOM     12  C   UNL     1       4.026  -2.749   2.143  0.00  0.00    +0.139 C 
ATOM     13  H   UNL     1       2.587  -1.984   6.262  0.00  0.00    +0.151 HD
ENDROOT
BRANCH   7  14
ATOM     14  C   UNL     1       0.056  -1.526   5.371  0.00  0.00    +0.023 A 
ATOM     15  C   UNL     1      -0.832  -2.102   4.481  0.00  0.00    +0.009 A 
ATOM     16  C   UNL     1      -2.018  -2.645   4.937  0.00  0.00    +0.004 A 
ATOM     17  C   UNL     1      -2.323  -2.614   6.285  0.00  0.00    +0.049 A 
ATOM     18  C   UNL     1      -1.438  -2.039   7.183  0.00  0.00    +0.162 A 
ATOM     19  C   UNL     1      -0.240  -1.498   6.724  0.00  0.00    +0.167 A 
BRANCH  19  20
ATOM     20  O   UNL     1       0.634  -0.937   7.602  0.00  0.00    -0.491 OA
ATOM     21  C   UNL     1       0.409   0.428   7.960  0.00  0.00    +0.277 C 
ENDBRANCH  19  20
BRANCH  18  22
ATOM     22  O   UNL     1      -1.736  -2.008   8.509  0.00  0.00    -0.491 OA
ATOM     23  C   UNL     1      -2.980  -2.588   8.908  0.00  0.00    +0.277 C 
ENDBRANCH  18  22
ENDBRANCH   7  14
BRANCH   1  25
ATOM     24  C   UNL     1      -0.119   2.108   0.392  0.00  0.00    +0.028 C 
ATOM     25  C   UNL     1      -0.175   0.590   0.213  0.00  0.00    +0.076 C 
BRANCH  25  26
ATOM     26  C   UNL     1      -1.633   0.126   0.241  0.00  0.00    +0.003 C 
ATOM     27  C   UNL     1      -2.405   0.802  -0.893  0.00  0.00    +0.009 C 
ATOM     28  C   UNL     1      -1.689  -1.392   0.063  0.00  0.00    +0.009 C 
ENDBRANCH  25  26
ENDBRANCH   1  25
TORSDOF 5
