REMARK  Name = ZINC25760356
REMARK  5 active torsions:
REMARK  status: ('A' for Active; 'I' for Inactive)
REMARK    1  A    between atoms: C_1  and  O_2
REMARK    2  A    between atoms: O_2  and  C_3
REMARK    3  A    between atoms: C_16  and  C_18
REMARK    4  A    between atoms: C_25  and  O_27
REMARK    5  A    between atoms: O_27  and  C_28
REMARK                            x       y       z     vdW  Elec       q    Type
REMARK                         _______ _______ _______ _____ _____    ______ ____
ROOT
ATOM      1  C   UNL     1       0.002  -0.004   0.002  0.00  0.00    +0.120 A 
ATOM      2  C   UNL     1       1.218  -0.675  -0.019  0.00  0.00    +0.046 A 
ATOM      3  C   UNL     1       1.237  -2.055  -0.027  0.00  0.00    +0.013 A 
ATOM      4  C   UNL     1       0.038  -2.759  -0.027  0.00  0.00    +0.001 A 
ATOM      5  C   UNL     1      -1.192  -2.090  -0.002  0.00  0.00    -0.035 A 
ATOM      6  C   UNL     1      -1.193  -0.707   0.010  0.00  0.00    +0.050 A 
ATOM      7  C   UNL     1      -2.502  -2.825   0.024  0.00  0.00    +0.036 C 
ATOM      8  C   UNL     1      -2.395  -4.275  -0.446  0.00  0.00    +0.016 C 
ATOM      9  C   UNL     1      -1.273  -4.972   0.324  0.00  0.00    +0.067 C 
ATOM     10  C   UNL     1       0.005  -4.234  -0.061  0.00  0.00    +0.072 C 
ATOM     11  N   UNL     1       0.865  -5.100  -0.492  0.00  0.00    -0.178 NA
ATOM     12  N   UNL     1       0.382  -6.410  -0.548  0.00  0.00    -0.150 N 
ATOM     13  C   UNL     1      -1.038  -6.409  -0.148  0.00  0.00    +0.143 C 
ATOM     14  C   UNL     1       1.095  -7.495  -0.909  0.00  0.00    +0.423 C 
ATOM     15  O   UNL     1       0.570  -8.590  -0.922  0.00  0.00    -0.224 OA
ENDROOT
BRANCH  13  16
ATOM     16  C   UNL     1      -1.276  -7.383   0.977  0.00  0.00    -0.024 A 
ATOM     17  C   UNL     1      -0.296  -7.593   1.928  0.00  0.00    +0.008 A 
ATOM     18  C   UNL     1      -0.515  -8.483   2.963  0.00  0.00    +0.038 A 
ATOM     19  C   UNL     1      -1.714  -9.172   3.040  0.00  0.00    +0.123 A 
ATOM     20  C   UNL     1      -2.693  -8.965   2.083  0.00  0.00    +0.038 A 
ATOM     21  C   UNL     1      -2.474  -8.071   1.053  0.00  0.00    +0.008 A 
ATOM     22  F   UNL     1      -1.928 -10.046   4.048  0.00  0.00    -0.205 F 
ENDBRANCH  13  16
BRANCH   1  24
ATOM     23  C   UNL     1       1.248   2.020   0.001  0.00  0.00    +0.277 C 
ATOM     24  O   UNL     1      -0.016   1.354   0.009  0.00  0.00    -0.495 OA
ENDBRANCH   1  24
BRANCH  14  25
ATOM     25  O   UNL     1       2.390  -7.364  -1.254  0.00  0.00    -0.452 OA
ATOM     26  C   UNL     1       3.097  -8.575  -1.632  0.00  0.00    +0.282 C 
ENDBRANCH  14  25
TORSDOF 3
