REMARK  Name = ZINC39357976
REMARK  6 active torsions:
REMARK  status: ('A' for Active; 'I' for Inactive)
REMARK    1  A    between atoms: C_4  and  C_7
REMARK    2  A    between atoms: C_11  and  N_13
REMARK    3  A    between atoms: C_17  and  C_20
REMARK    4  A    between atoms: N_22  and  C_23
REMARK    5  A    between atoms: C_23  and  C_24
REMARK    6  A    between atoms: C_24  and  C_25
REMARK                            x       y       z     vdW  Elec       q    Type
REMARK                         _______ _______ _______ _____ _____    ______ ____
ROOT
ATOM      1  N   UNL     1       4.845  -4.073  -0.079  0.00  0.00    -0.314 N 
ATOM      2  C   UNL     1       6.104  -4.820  -0.199  0.00  0.00    +0.106 C 
ATOM      3  C   UNL     1       6.195  -5.823   0.956  0.00  0.00    +0.020 C 
ATOM      4  C   UNL     1       4.942  -6.701   0.963  0.00  0.00    +0.016 C 
ATOM      5  C   UNL     1       3.705  -5.826   1.180  0.00  0.00    +0.092 C 
ATOM      6  C   UNL     1       3.587  -4.823   0.034  0.00  0.00    +0.119 C 
ENDROOT
BRANCH   1  11
ATOM      7  C   UNL     1       4.939  -0.699   1.095  0.00  0.00    +0.162 A 
ATOM      8  N   UNL     1       4.846   0.009  -0.022  0.00  0.00    -0.232 NA
ATOM      9  C   UNL     1       4.749  -0.588  -1.201  0.00  0.00    +0.050 A 
ATOM     10  C   UNL     1       4.745  -1.968  -1.258  0.00  0.00    +0.014 A 
ATOM     11  C   UNL     1       4.845  -2.688  -0.066  0.00  0.00    +0.129 A 
ATOM     12  N   UNL     1       4.945  -2.024   1.081  0.00  0.00    -0.212 NA
ATOM     13  C   UNL     1       4.627  -2.424  -2.694  0.00  0.00    +0.041 C 
ATOM     14  C   UNL     1       4.124  -1.187  -3.469  0.00  0.00    +0.011 C 
ATOM     15  C   UNL     1       4.633  -0.019  -2.598  0.00  0.00    +0.056 C 
BRANCH   7  19
ATOM     16  C   UNL     1       5.244   1.335   4.816  0.00  0.00    +0.000 A 
ATOM     17  C   UNL     1       5.141   2.059   3.642  0.00  0.00    +0.001 A 
ATOM     18  C   UNL     1       5.042   1.404   2.431  0.00  0.00    +0.011 A 
ATOM     19  C   UNL     1       5.046   0.011   2.393  0.00  0.00    +0.019 A 
ATOM     20  C   UNL     1       5.150  -0.713   3.579  0.00  0.00    +0.011 A 
ATOM     21  C   UNL     1       5.248  -0.048   4.784  0.00  0.00    +0.001 A 
ENDBRANCH   7  19
ENDBRANCH   1  11
BRANCH   5  22
ATOM     22  C   UNL     1       2.474  -6.695   1.220  0.00  0.00    +0.218 C 
ATOM     23  O   UNL     1       1.587  -6.529   0.410  0.00  0.00    -0.275 OA
ATOM     24  N   UNL     1       2.360  -7.657   2.157  0.00  0.00    -0.315 N 
ATOM     25  H   UNL     1       3.069  -7.791   2.805  0.00  0.00    +0.149 HD
BRANCH  24  26
ATOM     26  C   UNL     1       1.164  -8.502   2.196  0.00  0.00    +0.108 C 
BRANCH  26  27
ATOM     27  C   UNL     1       1.285  -9.505   3.345  0.00  0.00    +0.053 C 
BRANCH  27  28
ATOM     28  C   UNL     1       0.055 -10.375   3.385  0.00  0.00    -0.025 C 
ATOM     29  C   UNL     1      -0.119 -11.580   2.839  0.00  0.00    +0.135 C 
ATOM     30  N   UNL     1      -1.362 -12.046   3.090  0.00  0.00    -0.162 NA
ATOM     31  N   UNL     1      -2.069 -11.286   3.756  0.00  0.00    -0.183 NA
ATOM     32  C   UNL     1      -1.273 -10.086   4.063  0.00  0.00    +0.198 C 
ENDBRANCH  27  28
ENDBRANCH  26  27
ENDBRANCH  24  26
ENDBRANCH   5  22
TORSDOF 6
