REMARK  Name = ZINC64840141
REMARK  7 active torsions:
REMARK  status: ('A' for Active; 'I' for Inactive)
REMARK    1  A    between atoms: C_1  and  N_2
REMARK    2  A    between atoms: N_2  and  C_3
REMARK    3  A    between atoms: C_3  and  C_4
REMARK    4  A    between atoms: C_4  and  C_5
REMARK    5  A    between atoms: C_7  and  C_10
REMARK    6  A    between atoms: N_19  and  C_20
REMARK    7  A    between atoms: C_20  and  C_21
REMARK                            x       y       z     vdW  Elec       q    Type
REMARK                         _______ _______ _______ _____ _____    ______ ____
ROOT
ATOM      1  C   UNL     1       0.024  -0.743   1.267  0.00  0.00    +0.117 C 
ENDROOT
BRANCH   1   3
ATOM      2  C   UNL     1      -0.018   1.461   0.010  0.00  0.00    +0.133 C 
ATOM      3  N   UNL     1       0.002  -0.004   0.002  0.00  0.00    -0.288 N 
ATOM      4  C   UNL     1       0.000  -0.672  -1.169  0.00  0.00    +0.302 C 
ATOM      5  O   UNL     1       0.017  -1.887  -1.175  0.00  0.00    -0.253 OA
ATOM      6  N   UNL     1      -0.020   0.009  -2.332  0.00  0.00    -0.297 N 
ATOM      7  H   UNL     1      -0.033   0.978  -2.327  0.00  0.00    +0.150 HD
BRANCH   6   8
ATOM      8  C   UNL     1      -0.022  -0.717  -3.605  0.00  0.00    +0.137 C 
BRANCH   8   9
ATOM      9  C   UNL     1      -0.047   0.283  -4.762  0.00  0.00    +0.135 C 
ATOM     10  C   UNL     1      -0.171  -0.471  -6.104  0.00  0.00    +0.035 C 
ATOM     11  C   UNL     1       0.771   0.346  -7.029  0.00  0.00    +0.031 C 
ATOM     12  C   UNL     1       1.872   0.772  -6.026  0.00  0.00    +0.160 C 
ATOM     13  O   UNL     1       1.179   1.023  -4.792  0.00  0.00    -0.375 OA
ENDBRANCH   8   9
ENDBRANCH   6   8
ENDBRANCH   1   3
BRANCH   1  14
ATOM     14  C   UNL     1      -1.411  -1.020   1.720  0.00  0.00    +0.099 C 
BRANCH  14  15
ATOM     15  C   UNL     1      -1.388  -1.781   3.021  0.00  0.00    +0.174 A 
ATOM     16  N   UNL     1      -1.363  -3.110   3.141  0.00  0.00    -0.192 NA
ATOM     17  C   UNL     1      -1.348  -3.447   4.411  0.00  0.00    +0.258 A 
ATOM     18  O   UNL     1      -1.363  -2.317   5.140  0.00  0.00    -0.333 OA
ATOM     19  N   UNL     1      -1.383  -1.246   4.210  0.00  0.00    -0.061 NA
BRANCH  17  20
ATOM     20  C   UNL     1      -1.321  -4.825   4.944  0.00  0.00    +0.040 A 
ATOM     21  C   UNL     1      -1.302  -5.914   4.071  0.00  0.00    +0.015 A 
ATOM     22  C   UNL     1      -1.276  -7.197   4.574  0.00  0.00    +0.021 A 
ATOM     23  C   UNL     1      -1.269  -7.407   5.943  0.00  0.00    +0.041 A 
ATOM     24  C   UNL     1      -1.287  -6.331   6.814  0.00  0.00    +0.021 A 
ATOM     25  C   UNL     1      -1.307  -5.043   6.323  0.00  0.00    +0.015 A 
ATOM     26 CL   UNL     1      -1.237  -9.026   6.569  0.00  0.00    -0.084 Cl
ENDBRANCH  17  20
ENDBRANCH  14  15
ENDBRANCH   1  14
TORSDOF 6
