REMARK  Name = ZINC39593301
REMARK  3 active torsions:
REMARK  status: ('A' for Active; 'I' for Inactive)
REMARK    1  A    between atoms: C_6  and  C_7
REMARK    2  A    between atoms: N_8  and  N_9
REMARK    3  A    between atoms: C_10  and  C_16
REMARK                            x       y       z     vdW  Elec       q    Type
REMARK                         _______ _______ _______ _____ _____    ______ ____
ROOT
ATOM      1  N   UNL     1      -2.438  -2.781   0.117  0.00  0.00    -0.175 N 
ATOM      2  C   UNL     1      -2.577  -4.242   0.234  0.00  0.00    +0.230 C 
ATOM      3  N   UNL     1      -4.032  -4.453   0.323  0.00  0.00    -0.242 N 
ATOM      4  N   UNL     1      -4.615  -3.181   0.257  0.00  0.00    -0.160 NA
ATOM      5  C   UNL     1      -3.720  -2.257   0.147  0.00  0.00    +0.206 C 
ATOM      6  S   UNL     1      -4.086  -0.537   0.044  0.00  0.00    -0.011 SA
ATOM      7  H   UNL     1      -4.494  -5.302   0.410  0.00  0.00    +0.170 HD
ENDROOT
BRANCH   2   8
ATOM      8  C   UNL     1      -1.880  -4.748   1.499  0.00  0.00    +0.197 C 
ATOM      9  C   UNL     1      -1.967  -6.258   1.592  0.00  0.00    -0.017 C 
ATOM     10  C   UNL     1      -0.702  -6.673   1.564  0.00  0.00    +0.065 C 
ATOM     11  C   UNL     1      -0.656  -8.188   1.651  0.00  0.00    +0.057 C 
ATOM     12  C   UNL     1      -2.051  -8.604   2.167  0.00  0.00    +0.011 C 
ATOM     13  C   UNL     1      -2.924  -7.417   1.702  0.00  0.00    +0.035 C 
ATOM     14  N   UNL     1       0.134  -5.604   1.467  0.00  0.00    -0.158 NA
ATOM     15  N   UNL     1      -0.429  -4.505   1.427  0.00  0.00    -0.176 NA
ENDBRANCH   2   8
BRANCH   1  17
ATOM     16  C   UNL     1      -1.273  -0.779  -0.204  0.00  0.00    +0.138 C 
ATOM     17  N   UNL     1      -1.242  -2.060   0.003  0.00  0.00    -0.184 NA
BRANCH  16  23
ATOM     18  C   UNL     1      -0.050   1.377  -0.434  0.00  0.00    +0.010 A 
ATOM     19  C   UNL     1       1.126   2.097  -0.439  0.00  0.00    +0.016 A 
ATOM     20  C   UNL     1       2.335   1.456  -0.224  0.00  0.00    +0.018 A 
ATOM     21  C   UNL     1       2.372   0.090  -0.003  0.00  0.00    +0.016 A 
ATOM     22  C   UNL     1       1.204  -0.642   0.005  0.00  0.00    +0.010 A 
ATOM     23  C   UNL     1      -0.020  -0.002  -0.211  0.00  0.00    -0.005 A 
ATOM     24 BR   UNL     1       3.943   2.452  -0.234  0.00  0.00    -0.050 Br
ENDBRANCH  16  23
ENDBRANCH   1  17
TORSDOF 3
