REMARK  Name = ZINC07384897
REMARK  7 active torsions:
REMARK  status: ('A' for Active; 'I' for Inactive)
REMARK    1  A    between atoms: C_1  and  C_2
REMARK    2  A    between atoms: C_3  and  C_27
REMARK    3  A    between atoms: N_5  and  C_11
REMARK    4  A    between atoms: C_8  and  C_9
REMARK    5  A    between atoms: C_11  and  C_12
REMARK    6  A    between atoms: N_17  and  C_18
REMARK    7  A    between atoms: C_24  and  C_26
REMARK                            x       y       z     vdW  Elec       q    Type
REMARK                         _______ _______ _______ _____ _____    ______ ____
ROOT
ATOM      1  C   UNL     1      -0.229  -4.714   1.399  0.00  0.00    +0.242 C 
ATOM      2  O   UNL     1      -0.170  -3.933   2.324  0.00  0.00    -0.273 OA
ATOM      3  N   UNL     1      -0.320  -6.037   1.639  0.00  0.00    -0.239 N 
ATOM      4  C   UNL     1      -0.345  -6.492   2.908  0.00  0.00    +0.306 C 
ATOM      5  O   UNL     1      -0.286  -5.709   3.835  0.00  0.00    -0.252 OA
ATOM      6  N   UNL     1      -0.436  -7.815   3.148  0.00  0.00    -0.296 N 
ATOM      7  H   UNL     1      -0.367  -6.663   0.899  0.00  0.00    +0.159 HD
ATOM      8  H   UNL     1      -0.483  -8.440   2.408  0.00  0.00    +0.151 HD
ENDROOT
BRANCH   6   9
ATOM      9  C   UNL     1      -0.463  -8.309   4.527  0.00  0.00    +0.077 C 
ATOM     10  C   UNL     1       0.969  -8.463   5.042  0.00  0.00    +0.022 C 
ATOM     11  C   UNL     1       0.941  -8.979   6.482  0.00  0.00    +0.002 C 
ATOM     12  C   UNL     1       0.236 -10.336   6.523  0.00  0.00    +0.000 C 
ATOM     13  C   UNL     1      -1.197 -10.183   6.008  0.00  0.00    +0.005 C 
ATOM     14  C   UNL     1      -1.168  -9.666   4.568  0.00  0.00    +0.006 C 
ATOM     15  C   UNL     1      -2.601  -9.513   4.053  0.00  0.00    +0.009 C 
ENDBRANCH   6   9
BRANCH   1  16
ATOM     16  C   UNL     1      -0.201  -4.206  -0.019  0.00  0.00    +0.243 C 
BRANCH  16  21
ATOM     17  C   UNL     1      -0.018   1.503   0.010  0.00  0.00    +0.047 C 
ATOM     18  C   UNL     1       0.002  -0.004   0.002  0.00  0.00    -0.005 A 
ATOM     19  C   UNL     1      -1.187  -0.742   0.004  0.00  0.00    +0.063 A 
ATOM     20  N   UNL     1      -1.174  -2.045  -0.004  0.00  0.00    -0.173 NA
ATOM     21  N   UNL     1      -0.100  -2.745  -0.012  0.00  0.00    -0.219 N 
ATOM     22  C   UNL     1       1.121  -2.172  -0.015  0.00  0.00    +0.285 A 
ATOM     23  O   UNL     1       2.131  -2.856  -0.023  0.00  0.00    -0.265 OA
ATOM     24  C   UNL     1       1.206  -0.706  -0.013  0.00  0.00    +0.122 A 
ATOM     25  C   UNL     1      -2.508  -0.016   0.014  0.00  0.00    +0.068 C 
BRANCH  24  26
ATOM     26  C   UNL     1       2.468  -0.029  -0.022  0.00  0.00    +0.105 C 
ATOM     27  N   UNL     1       3.469   0.508  -0.028  0.00  0.00    -0.191 NA
ENDBRANCH  24  26
ENDBRANCH  16  21
ENDBRANCH   1  16
TORSDOF 4
