REMARK  Name = ZINC67049597
REMARK  7 active torsions:
REMARK  status: ('A' for Active; 'I' for Inactive)
REMARK    1  A    between atoms: C_1  and  C_2
REMARK    2  A    between atoms: C_4  and  C_30
REMARK    3  A    between atoms: C_5  and  C_9
REMARK    4  A    between atoms: C_7  and  C_8
REMARK    5  A    between atoms: C_10  and  C_11
REMARK    6  A    between atoms: N_13  and  C_14
REMARK    7  A    between atoms: N_17  and  C_20
REMARK                            x       y       z     vdW  Elec       q    Type
REMARK                         _______ _______ _______ _____ _____    ______ ____
ROOT
ATOM      1  C   UNL     1       0.112  -8.535   2.279  0.00  0.00    +0.076 C 
ATOM      2  C   UNL     1      -1.312  -9.079   2.143  0.00  0.00    +0.041 C 
ATOM      3  C   UNL     1      -1.268 -10.610   2.112  0.00  0.00    +0.108 C 
ATOM      4  N   UNL     1      -0.551 -11.088   3.302  0.00  0.00    -0.313 N 
ATOM      5  C   UNL     1       0.792 -10.559   3.576  0.00  0.00    +0.108 C 
ATOM      6  C   UNL     1       0.726  -9.029   3.592  0.00  0.00    +0.041 C 
ENDROOT
BRANCH   4   7
ATOM      7  C   UNL     1      -1.129 -12.018   4.148  0.00  0.00    +0.152 A 
ATOM      8  C   UNL     1      -0.401 -12.570   5.215  0.00  0.00    +0.147 A 
ATOM      9  N   UNL     1       0.859 -12.416   5.689  0.00  0.00    -0.231 NA
ATOM     10  C   UNL     1       1.028 -13.183   6.727  0.00  0.00    +0.198 A 
ATOM     11  N   UNL     1      -0.116 -13.878   6.984  0.00  0.00    -0.329 N 
ATOM     12  C   UNL     1      -1.042 -13.509   6.040  0.00  0.00    +0.163 A 
ATOM     13  N   UNL     1      -2.303 -13.839   5.784  0.00  0.00    -0.216 NA
ATOM     14  C   UNL     1      -2.947 -13.296   4.773  0.00  0.00    +0.225 A 
ATOM     15  N   UNL     1      -2.388 -12.405   3.973  0.00  0.00    -0.218 NA
ATOM     16  H   UNL     1      -0.251 -14.516   7.702  0.00  0.00    +0.168 HD
ENDBRANCH   4   7
BRANCH   1  19
ATOM     17  C   UNL     1       0.069  -6.399   1.108  0.00  0.00    +0.237 C 
ATOM     18  O   UNL     1       0.090  -7.009   0.055  0.00  0.00    -0.271 OA
ATOM     19  N   UNL     1       0.078  -7.071   2.277  0.00  0.00    -0.309 N 
ATOM     20  H   UNL     1       0.061  -6.585   3.116  0.00  0.00    +0.149 HD
BRANCH  17  22
ATOM     21  C   UNL     1       0.026  -4.263  -0.063  0.00  0.00    +0.013 C 
ATOM     22  C   UNL     1       0.035  -4.935   1.105  0.00  0.00    +0.068 C 
BRANCH  21  27
ATOM     23  C   UNL     1      -0.111   1.484  -0.074  0.00  0.00    +0.044 C 
ATOM     24  C   UNL     1      -0.075  -0.022  -0.071  0.00  0.00    -0.047 A 
ATOM     25  C   UNL     1      -0.051  -0.713  -1.270  0.00  0.00    +0.007 A 
ATOM     26  C   UNL     1      -0.017  -2.091  -1.276  0.00  0.00    -0.043 A 
ATOM     27  C   UNL     1      -0.009  -2.792  -0.066  0.00  0.00    -0.022 A 
ATOM     28  C   UNL     1      -0.033  -2.087   1.142  0.00  0.00    +0.011 A 
ATOM     29  C   UNL     1      -0.061  -0.708   1.131  0.00  0.00    -0.047 A 
ATOM     30  C   UNL     1      -0.081   0.053   2.431  0.00  0.00    +0.044 C 
ATOM     31  C   UNL     1       0.009  -2.841  -2.583  0.00  0.00    +0.044 C 
ENDBRANCH  21  27
ENDBRANCH  17  22
ENDBRANCH   1  19
TORSDOF 4
