REMARK  Name = ZINC66978432
REMARK  7 active torsions:
REMARK  status: ('A' for Active; 'I' for Inactive)
REMARK    1  A    between atoms: C_1  and  N_2
REMARK    2  A    between atoms: C_5  and  C_8
REMARK    3  A    between atoms: C_8  and  C_9
REMARK    4  A    between atoms: C_9  and  N_10
REMARK    5  A    between atoms: C_16  and  N_19
REMARK    6  A    between atoms: C_20  and  C_22
REMARK    7  A    between atoms: C_22  and  C_23
REMARK                            x       y       z     vdW  Elec       q    Type
REMARK                         _______ _______ _______ _____ _____    ______ ____
ROOT
ATOM      1  N   UNL     1       3.288  -6.248   3.013  0.00  0.00    -0.299 N 
ATOM      2  C   UNL     1       2.555  -6.865   2.066  0.00  0.00    +0.302 C 
ATOM      3  O   UNL     1       1.909  -6.208   1.272  0.00  0.00    -0.253 OA
ATOM      4  N   UNL     1       2.536  -8.211   1.998  0.00  0.00    -0.286 N 
ATOM      5  C   UNL     1       1.837  -8.896   0.903  0.00  0.00    +0.111 C 
ATOM      6  C   UNL     1       2.809  -9.869   0.229  0.00  0.00    +0.041 C 
ATOM      7  C   UNL     1       3.398 -10.809   1.283  0.00  0.00    +0.076 C 
ATOM      8  C   UNL     1       4.173  -9.992   2.321  0.00  0.00    +0.041 C 
ATOM      9  C   UNL     1       3.220  -9.021   3.015  0.00  0.00    +0.111 C 
ATOM     10  H   UNL     1       3.743  -6.771   3.691  0.00  0.00    +0.150 HD
ENDROOT
BRANCH   7  11
ATOM     11  N   UNL     1       4.304 -11.762   0.637  0.00  0.00    -0.312 N 
ATOM     12  C   UNL     1       4.545 -12.957   1.210  0.00  0.00    +0.214 C 
ATOM     13  O   UNL     1       4.012 -13.244   2.261  0.00  0.00    -0.276 OA
ATOM     14  H   UNL     1       4.730 -11.532  -0.203  0.00  0.00    +0.149 HD
BRANCH  12  15
ATOM     15  C   UNL     1       5.476 -13.938   0.545  0.00  0.00    +0.099 C 
BRANCH  15  16
ATOM     16  C   UNL     1       5.574 -15.206   1.396  0.00  0.00    -0.002 C 
ATOM     17  C   UNL     1       6.298 -14.897   2.724  0.00  0.00    +0.004 C 
ATOM     18  C   UNL     1       7.147 -16.162   2.997  0.00  0.00    +0.000 C 
ATOM     19  C   UNL     1       7.632 -16.561   1.581  0.00  0.00    +0.000 C 
ATOM     20  C   UNL     1       6.423 -16.264   0.670  0.00  0.00    +0.004 C 
ENDBRANCH  15  16
ENDBRANCH  12  15
ENDBRANCH   7  11
BRANCH   1  21
ATOM     21  C   UNL     1       3.397  -4.787   3.018  0.00  0.00    +0.106 C 
BRANCH  21  22
ATOM     22  C   UNL     1       4.280  -4.346   4.188  0.00  0.00    +0.022 C 
BRANCH  22  27
ATOM     23  C   UNL     1       6.332   0.975   4.186  0.00  0.00    -0.096 C 
ATOM     24  N   UNL     1       6.094  -0.475   4.183  0.00  0.00    +0.378 N 
ATOM     25  C   UNL     1       5.352  -0.851   5.392  0.00  0.00    -0.079 C 
ATOM     26  C   UNL     1       5.172  -2.370   5.433  0.00  0.00    -0.015 C 
ATOM     27  C   UNL     1       4.394  -2.820   4.194  0.00  0.00    -0.013 C 
ATOM     28  C   UNL     1       5.140  -2.358   2.939  0.00  0.00    -0.015 C 
ATOM     29  C   UNL     1       5.321  -0.839   2.990  0.00  0.00    -0.079 C 
ATOM     30  H   UNL     1       6.979  -0.959   4.170  0.00  0.00    -0.082 HD
ENDBRANCH  22  27
ENDBRANCH  21  22
ENDBRANCH   1  21
TORSDOF 6
