REMARK  Name = ZINC21716185
REMARK  12 active torsions:
REMARK  status: ('A' for Active; 'I' for Inactive)
REMARK    1  A    between atoms: C_1  and  C_2
REMARK    2  A    between atoms: C_2  and  O_3
REMARK    3  A    between atoms: O_3  and  C_4
REMARK    4  A    between atoms: C_4  and  C_6
REMARK    5  A    between atoms: C_10  and  N_11
REMARK    6  A    between atoms: C_12  and  C_14
REMARK    7  A    between atoms: C_17  and  S_20
REMARK    8  A    between atoms: S_20  and  N_23
REMARK    9  A    between atoms: N_23  and  C_24
REMARK   10  A    between atoms: N_23  and  C_25
REMARK   11  A    between atoms: N_27  and  C_30
REMARK   12  A    between atoms: C_30  and  C_31
REMARK                            x       y       z     vdW  Elec       q    Type
REMARK                         _______ _______ _______ _____ _____    ______ ____
ROOT
ATOM      1  C   UNL     1       3.767   5.680  -5.249  0.00  0.00    +0.091 A 
ATOM      2  C   UNL     1       3.535   5.293  -3.869  0.00  0.00    -0.019 A 
ATOM      3  C   UNL     1       2.241   5.092  -3.535  0.00  0.00    +0.010 A 
ATOM      4  S   UNL     1       1.335   5.411  -5.021  0.00  0.00    -0.076 S 
ATOM      5  C   UNL     1       2.655   5.804  -6.073  0.00  0.00    +0.087 A 
ATOM      6  C   UNL     1       1.723   4.687  -2.190  0.00  0.00    +0.127 C 
ATOM      7  N   UNL     1       2.859   4.194  -1.388  0.00  0.00    -0.293 NA
ATOM      8  C   UNL     1       3.982   5.141  -1.440  0.00  0.00    +0.090 C 
ATOM      9  C   UNL     1       4.632   5.111  -2.826  0.00  0.00    +0.052 C 
ENDROOT
BRANCH   5  10
ATOM     10  N   UNL     1       2.611   6.157  -7.412  0.00  0.00    -0.275 N 
ATOM     11  C   UNL     1       1.428   6.226  -8.053  0.00  0.00    +0.249 C 
ATOM     12  O   UNL     1       0.398   5.980  -7.455  0.00  0.00    -0.270 OA
ATOM     13  H   UNL     1       3.543   6.380  -7.952  0.00  0.00    +0.156 HD
BRANCH  11  14
ATOM     14  C   UNL     1       1.382   6.603  -9.481  0.00  0.00    +0.037 A 
ATOM     15  C   UNL     1       2.562   6.892 -10.168  0.00  0.00    +0.015 A 
ATOM     16  C   UNL     1       2.512   7.238 -11.503  0.00  0.00    +0.029 A 
ATOM     17  C   UNL     1       1.295   7.309 -12.157  0.00  0.00    +0.105 A 
ATOM     18  C   UNL     1       0.121   7.028 -11.481  0.00  0.00    +0.029 A 
ATOM     19  C   UNL     1       0.157   6.676 -10.148  0.00  0.00    +0.015 A 
BRANCH  17  20
ATOM     20  S   UNL     1       1.240   7.758 -13.860  0.00  0.00    +0.060 S 
ATOM     21  O   UNL     1       2.513   7.440 -14.405  0.00  0.00    -0.153 OA
ATOM     22  O   UNL     1       0.032   7.222 -14.383  0.00  0.00    -0.153 OA
BRANCH  20  23
ATOM     23  N   UNL     1       1.095   9.406 -13.927  0.00  0.00    -0.183 NA
ATOM     24  C   UNL     1       2.294  10.246 -13.969  0.00  0.00    +0.131 C 
ATOM     25  C   UNL     1      -0.233  10.024 -13.945  0.00  0.00    +0.131 C 
ENDBRANCH  20  23
ENDBRANCH  17  20
ENDBRANCH  11  14
ENDBRANCH   5  10
BRANCH   1  26
ATOM     26  C   UNL     1       5.119   5.930  -5.752  0.00  0.00    +0.342 C 
ATOM     27  O   UNL     1       5.768   5.019  -6.231  0.00  0.00    -0.245 OA
BRANCH  26  28
ATOM     28  O   UNL     1       5.645   7.170  -5.684  0.00  0.00    -0.461 OA
BRANCH  28  30
ATOM     29  C   UNL     1       7.413   8.806  -6.041  0.00  0.00    +0.048 C 
ATOM     30  C   UNL     1       6.990   7.344  -6.202  0.00  0.00    +0.229 C 
ENDBRANCH  28  30
ENDBRANCH  26  28
ENDBRANCH   1  26
BRANCH   7  31
ATOM     31  C   UNL     1       2.451   3.937  -0.001  0.00  0.00    +0.120 C 
BRANCH  31  32
ATOM     32  C   UNL     1       1.156   3.165   0.008  0.00  0.00    -0.033 A 
ATOM     33  C   UNL     1       1.175   1.783   0.000  0.00  0.00    +0.005 A 
ATOM     34  C   UNL     1      -0.013   1.076   0.008  0.00  0.00    +0.000 A 
ATOM     35  C   UNL     1      -1.219   1.751   0.017  0.00  0.00    +0.000 A 
ATOM     36  C   UNL     1      -1.238   3.133   0.030  0.00  0.00    +0.000 A 
ATOM     37  C   UNL     1      -0.050   3.840   0.023  0.00  0.00    +0.005 A 
ENDBRANCH  31  32
ENDBRANCH   7  31
TORSDOF 9
