REMARK  Name = ZINC67005924
REMARK  7 active torsions:
REMARK  status: ('A' for Active; 'I' for Inactive)
REMARK    1  A    between atoms: C_1  and  C_2
REMARK    2  A    between atoms: C_5  and  C_23
REMARK    3  A    between atoms: C_6  and  N_8
REMARK    4  A    between atoms: C_9  and  C_11
REMARK    5  A    between atoms: C_11  and  C_21
REMARK    6  A    between atoms: C_12  and  C_13
REMARK    7  A    between atoms: C_16  and  O_20
REMARK                            x       y       z     vdW  Elec       q    Type
REMARK                         _______ _______ _______ _____ _____    ______ ____
ROOT
ATOM      1  C   UNL     1       0.527  -2.879   4.847  0.00  0.00    +0.114 C 
ATOM      2  C   UNL     1       0.273  -2.210   6.025  0.00  0.00    +0.032 C 
ENDROOT
BRANCH   2   3
ATOM      3  C   UNL     1       0.255  -0.746   6.045  0.00  0.00    -0.022 A 
ATOM      4  C   UNL     1      -0.459  -0.037   5.068  0.00  0.00    +0.011 A 
ATOM      5  C   UNL     1      -0.475   1.329   5.090  0.00  0.00    +0.047 A 
ATOM      6  C   UNL     1       0.215   2.022   6.078  0.00  0.00    +0.135 A 
ATOM      7  C   UNL     1       0.927   1.330   7.054  0.00  0.00    +0.083 A 
ATOM      8  C   UNL     1       0.947  -0.047   7.045  0.00  0.00    +0.031 A 
ATOM      9 CL   UNL     1       1.787   2.203   8.284  0.00  0.00    -0.080 Cl
BRANCH   6  10
ATOM     10  O   UNL     1       0.195   3.379   6.091  0.00  0.00    -0.505 OA
ATOM     11  H   UNL     1      -0.530   3.756   6.608  0.00  0.00    +0.292 HD
ENDBRANCH   6  10
ENDBRANCH   2   3
BRANCH   1  13
ATOM     12  N   UNL     1       1.107  -2.766   2.478  0.00  0.00    -0.281 N 
ATOM     13  C   UNL     1       0.990  -2.137   3.664  0.00  0.00    +0.259 C 
ATOM     14  O   UNL     1       1.267  -0.956   3.757  0.00  0.00    -0.269 OA
ATOM     15  H   UNL     1       0.812  -3.685   2.385  0.00  0.00    +0.155 HD
BRANCH  12  21
ATOM     16  C   UNL     1       3.985   0.806   0.710  0.00  0.00    +0.044 C 
ATOM     17  C   UNL     1       3.051  -0.357   0.495  0.00  0.00    -0.049 A 
ATOM     18  C   UNL     1       2.733  -0.759  -0.790  0.00  0.00    +0.004 A 
ATOM     19  C   UNL     1       1.877  -1.826  -0.992  0.00  0.00    +0.005 A 
ATOM     20  C   UNL     1       1.336  -2.494   0.090  0.00  0.00    -0.029 A 
ATOM     21  C   UNL     1       1.653  -2.092   1.381  0.00  0.00    +0.037 A 
ATOM     22  C   UNL     1       2.518  -1.024   1.580  0.00  0.00    +0.027 A 
ATOM     23  C   UNL     1       0.402  -3.655  -0.131  0.00  0.00    +0.045 C 
ENDBRANCH  12  21
ENDBRANCH   1  13
BRANCH   1  24
ATOM     24  C   UNL     1       0.340  -4.297   4.775  0.00  0.00    +0.104 C 
ATOM     25  N   UNL     1       0.192  -5.422   4.718  0.00  0.00    -0.191 NA
ENDBRANCH   1  24
TORSDOF 5
