REMARK  Name = ZINC09209512
REMARK  8 active torsions:
REMARK  status: ('A' for Active; 'I' for Inactive)
REMARK    1  A    between atoms: C_1  and  C_2
REMARK    2  A    between atoms: C_9  and  N_22
REMARK    3  A    between atoms: C_10  and  C_11
REMARK    4  A    between atoms: N_13  and  C_14
REMARK    5  A    between atoms: C_23  and  C_25
REMARK    6  A    between atoms: C_25  and  C_27
REMARK    7  A    between atoms: C_25  and  O_28
REMARK    8  A    between atoms: O_28  and  C_29
REMARK                            x       y       z     vdW  Elec       q    Type
REMARK                         _______ _______ _______ _____ _____    ______ ____
ROOT
ATOM      1  C   UNL     1      -5.943   6.040   3.275  0.00  0.00    +0.008 C 
ATOM      2  C   UNL     1      -5.161   4.733   3.129  0.00  0.00    -0.009 C 
ATOM      3  C   UNL     1      -4.139   4.870   1.997  0.00  0.00    +0.008 C 
ATOM      4  C   UNL     1      -3.529   3.504   1.679  0.00  0.00    +0.037 C 
ATOM      5  C   UNL     1      -3.004   2.891   2.972  0.00  0.00    -0.023 A 
ATOM      6  C   UNL     1      -3.430   3.333   4.175  0.00  0.00    -0.004 A 
ATOM      7  S   UNL     1      -2.567   2.335   5.356  0.00  0.00    -0.077 S 
ATOM      8  C   UNL     1      -1.658   1.338   4.268  0.00  0.00    +0.085 A 
ATOM      9  C   UNL     1      -2.044   1.801   3.018  0.00  0.00    +0.069 A 
ATOM     10  C   UNL     1      -4.414   4.431   4.437  0.00  0.00    +0.046 C 
ENDROOT
BRANCH   9  11
ATOM     11  C   UNL     1      -1.498   1.216   1.789  0.00  0.00    +0.247 C 
ATOM     12  O   UNL     1      -2.059   0.274   1.262  0.00  0.00    -0.270 OA
ATOM     13  N   UNL     1      -0.375   1.723   1.243  0.00  0.00    -0.307 N 
ATOM     14  H   UNL     1       0.072   2.475   1.663  0.00  0.00    +0.149 HD
BRANCH  13  15
ATOM     15  C   UNL     1       0.171   1.139   0.015  0.00  0.00    +0.096 C 
ATOM     16  C   UNL     1      -0.521   1.774  -1.202  0.00  0.00    +0.046 C 
ATOM     17  C   UNL     1       0.281   1.379  -2.475  0.00  0.00    +0.168 C 
ATOM     18  S   UNL     1       2.007   1.549  -1.853  0.00  0.00    -0.029 S 
ATOM     19  O   UNL     1       2.474   2.861  -2.137  0.00  0.00    -0.174 OA
ATOM     20  O   UNL     1       2.766   0.428  -2.283  0.00  0.00    -0.174 OA
ATOM     21  C   UNL     1       1.695   1.403  -0.046  0.00  0.00    +0.188 C 
ENDBRANCH  13  15
ENDBRANCH   9  11
BRANCH   8  22
ATOM     22  N   UNL     1      -0.763   0.325   4.573  0.00  0.00    -0.276 N 
ATOM     23  C   UNL     1      -0.512   0.012   5.860  0.00  0.00    +0.258 C 
ATOM     24  O   UNL     1      -1.069   0.617   6.751  0.00  0.00    -0.271 OA
ATOM     25  H   UNL     1      -0.317  -0.159   3.861  0.00  0.00    +0.155 HD
BRANCH  23  26
ATOM     26  C   UNL     1       0.462  -1.090   6.191  0.00  0.00    +0.256 C 
ATOM     27  C   UNL     1       1.864  -0.688   5.730  0.00  0.00    +0.062 C 
BRANCH  26  28
ATOM     28  O   UNL     1       0.470  -1.309   7.603  0.00  0.00    -0.480 OA
BRANCH  28  29
ATOM     29  C   UNL     1       0.857  -2.539   8.035  0.00  0.00    +0.122 A 
ATOM     30  C   UNL     1       1.320  -3.479   7.126  0.00  0.00    +0.048 A 
ATOM     31  C   UNL     1       1.719  -4.727   7.566  0.00  0.00    +0.042 A 
ATOM     32  C   UNL     1       1.644  -5.043   8.912  0.00  0.00    +0.124 A 
ATOM     33  C   UNL     1       1.175  -4.107   9.819  0.00  0.00    +0.042 A 
ATOM     34  C   UNL     1       0.782  -2.857   9.383  0.00  0.00    +0.048 A 
ATOM     35  F   UNL     1       2.029  -6.265   9.341  0.00  0.00    -0.205 F 
ENDBRANCH  28  29
ENDBRANCH  26  28
ENDBRANCH  23  26
ENDBRANCH   8  22
TORSDOF 6
