REMARK  Name = ZINC03244326
REMARK  5 active torsions:
REMARK  status: ('A' for Active; 'I' for Inactive)
REMARK    1  A    between atoms: C_1  and  C_2
REMARK    2  A    between atoms: C_3  and  C_15
REMARK    3  A    between atoms: N_5  and  C_7
REMARK    4  A    between atoms: C_16  and  C_17
REMARK    5  A    between atoms: C_16  and  C_19
REMARK                            x       y       z     vdW  Elec       q    Type
REMARK                         _______ _______ _______ _____ _____    ______ ____
ROOT
ATOM      1  C   UNL     1      -0.018   1.503   0.010  0.00  0.00    +0.068 C 
ATOM      2  C   UNL     1       0.002  -0.004   0.002  0.00  0.00    +0.069 A 
ATOM      3  C   UNL     1       0.008  -0.831  -1.150  0.00  0.00    +0.036 A 
ATOM      4  C   UNL     1       0.029  -2.147  -0.705  0.00  0.00    +0.140 A 
ATOM      5  N   UNL     1       0.035  -2.112   0.641  0.00  0.00    -0.221 N 
ATOM      6  N   UNL     1       0.023  -0.775   1.053  0.00  0.00    -0.170 NA
ATOM      7 CL   UNL     1       0.044  -3.570  -1.698  0.00  0.00    -0.061 Cl
ENDROOT
BRANCH   5   8
ATOM      8  C   UNL     1       0.054  -3.229   1.488  0.00  0.00    +0.067 A 
ATOM      9  C   UNL     1      -0.616  -4.389   1.124  0.00  0.00    +0.029 A 
ATOM     10  C   UNL     1      -0.595  -5.488   1.960  0.00  0.00    +0.022 A 
ATOM     11  C   UNL     1       0.093  -5.433   3.159  0.00  0.00    +0.041 A 
ATOM     12  C   UNL     1       0.761  -4.278   3.524  0.00  0.00    +0.022 A 
ATOM     13  C   UNL     1       0.749  -3.179   2.689  0.00  0.00    +0.029 A 
ATOM     14 CL   UNL     1       0.117  -6.816   4.208  0.00  0.00    -0.084 Cl
ENDBRANCH   5   8
BRANCH   3  15
ATOM     15  C   UNL     1      -0.005  -0.383  -2.542  0.00  0.00    +0.036 C 
ATOM     16  C   UNL     1       0.914  -0.890  -3.438  0.00  0.00    +0.114 C 
BRANCH  16  17
ATOM     17  C   UNL     1       0.900  -0.441  -4.837  0.00  0.00    +0.252 C 
ATOM     18  O   UNL     1       0.080   0.379  -5.205  0.00  0.00    -0.270 OA
ATOM     19  N   UNL     1       1.797  -0.936  -5.713  0.00  0.00    -0.325 N 
ATOM     20  H   UNL     1       2.452  -1.589  -5.419  0.00  0.00    +0.145 HD
ATOM     21  H   UNL     1       1.789  -0.639  -6.636  0.00  0.00    +0.145 HD
ENDBRANCH  16  17
BRANCH  16  22
ATOM     22  C   UNL     1       1.879  -1.855  -3.005  0.00  0.00    +0.104 C 
ATOM     23  N   UNL     1       2.646  -2.620  -2.662  0.00  0.00    -0.191 NA
ENDBRANCH  16  22
ENDBRANCH   3  15
TORSDOF 4
