REMARK  Name = ZINC01516382
REMARK  5 active torsions:
REMARK  status: ('A' for Active; 'I' for Inactive)
REMARK    1  A    between atoms: C_1  and  C_2
REMARK    2  A    between atoms: C_3  and  C_8
REMARK    3  A    between atoms: C_5  and  C_7
REMARK    4  A    between atoms: C_14  and  O_21
REMARK    5  A    between atoms: C_16  and  C_20
REMARK                            x       y       z     vdW  Elec       q    Type
REMARK                         _______ _______ _______ _____ _____    ______ ____
ROOT
ATOM      1  C   UNL     1      -0.322  -0.409  -2.623  0.00  0.00    +0.029 C 
ATOM      2  C   UNL     1      -0.167   0.865  -3.130  0.00  0.00    +0.098 C 
ATOM      3  N   UNL     1      -0.038   0.777  -4.480  0.00  0.00    -0.273 N 
ATOM      4  N   UNL     1      -0.110  -0.571  -4.849  0.00  0.00    -0.266 N 
ATOM      5  C   UNL     1      -0.279  -1.311  -3.711  0.00  0.00    +0.068 C 
ATOM      6  C   UNL     1      -0.394  -2.720  -3.636  0.00  0.00    +0.086 C 
ATOM      7  C   UNL     1       0.167  -3.534  -4.639  0.00  0.00    +0.130 C 
ATOM      8  C   UNL     1       0.048  -4.908  -4.555  0.00  0.00    +0.049 C 
ATOM      9  C   UNL     1      -0.620  -5.495  -3.490  0.00  0.00    -0.043 C 
ATOM     10  C   UNL     1      -1.177  -4.722  -2.497  0.00  0.00    +0.055 C 
ATOM     11  C   UNL     1      -1.070  -3.327  -2.547  0.00  0.00    +0.192 C 
ATOM     12  O   UNL     1      -1.561  -2.637  -1.662  0.00  0.00    -0.287 OA
ATOM     13  C   UNL     1      -0.736  -6.995  -3.419  0.00  0.00    +0.044 C 
ATOM     14  H   UNL     1       0.084   1.525  -5.087  0.00  0.00    +0.169 HD
ATOM     15  H   UNL     1      -0.048  -0.920  -5.753  0.00  0.00    +0.170 HD
ENDROOT
BRANCH   1  18
ATOM     16  C   UNL     1      -2.640   0.461  -0.739  0.00  0.00    +0.067 C 
ATOM     17  C   UNL     1      -1.488  -0.416  -0.321  0.00  0.00    +0.053 A 
ATOM     18  C   UNL     1      -0.494  -0.766  -1.198  0.00  0.00    +0.045 A 
ATOM     19  S   UNL     1       0.535  -1.774  -0.142  0.00  0.00    -0.072 S 
ATOM     20  C   UNL     1      -0.382  -1.647   1.264  0.00  0.00    +0.076 A 
ATOM     21  N   UNL     1      -1.382  -0.881   0.906  0.00  0.00    -0.249 NA
ATOM     22  C   UNL     1      -0.113  -2.263   2.613  0.00  0.00    +0.073 C 
ENDBRANCH   1  18
BRANCH   7  23
ATOM     23  O   UNL     1       0.822  -2.971  -5.685  0.00  0.00    -0.506 OA
ATOM     24  H   UNL     1       1.171  -3.610  -6.321  0.00  0.00    +0.292 HD
ENDBRANCH   7  23
TORSDOF 2
