REMARK  Name = ZINC16024647
REMARK  8 active torsions:
REMARK  status: ('A' for Active; 'I' for Inactive)
REMARK    1  A    between atoms: C_1  and  C_2
REMARK    2  A    between atoms: C_2  and  C_3
REMARK    3  A    between atoms: C_3  and  C_5
REMARK    4  A    between atoms: C_3  and  N_6
REMARK    5  A    between atoms: C_11  and  C_29
REMARK    6  A    between atoms: C_29  and  C_30
REMARK    7  A    between atoms: C_30  and  C_31
REMARK    8  A    between atoms: C_30  and  C_32
REMARK                            x       y       z     vdW  Elec       q    Type
REMARK                         _______ _______ _______ _____ _____    ______ ____
ROOT
ATOM      1  N   UNL     1      -1.915   0.080   1.394  0.00  0.00    -0.239 N 
ATOM      2  C   UNL     1      -1.501  -0.420   2.564  0.00  0.00    +0.227 C 
ATOM      3  O   UNL     1      -0.571  -1.184   2.709  0.00  0.00    -0.275 OA
ATOM      4  C   UNL     1      -2.374   0.115   3.677  0.00  0.00    +0.107 C 
ATOM      5  C   UNL     1      -3.221  -1.039   4.254  0.00  0.00    +0.068 C 
ATOM      6  N   UNL     1      -4.597  -0.486   4.359  0.00  0.00    -0.295 NA
ATOM      7  C   UNL     1      -4.748   0.341   3.147  0.00  0.00    +0.136 C 
ATOM      8  C   UNL     1      -3.381   1.035   2.931  0.00  0.00    +0.122 C 
ATOM      9  C   UNL     1      -2.960   0.911   1.484  0.00  0.00    +0.228 C 
ATOM     10  O   UNL     1      -3.489   1.475   0.550  0.00  0.00    -0.275 OA
ATOM     11  C   UNL     1      -5.853   1.348   3.303  0.00  0.00    +0.006 A 
ATOM     12  C   UNL     1      -6.079   2.376   4.191  0.00  0.00    +0.046 A 
ATOM     13  C   UNL     1      -7.221   3.151   4.077  0.00  0.00    +0.124 A 
ATOM     14  C   UNL     1      -8.133   2.888   3.067  0.00  0.00    +0.040 A 
ATOM     15  C   UNL     1      -7.908   1.860   2.176  0.00  0.00    +0.026 A 
ATOM     16  C   UNL     1      -6.762   1.076   2.285  0.00  0.00    +0.039 A 
ATOM     17  N   UNL     1      -6.318  -0.004   1.517  0.00  0.00    -0.283 N 
ATOM     18  C   UNL     1      -5.143  -0.493   1.959  0.00  0.00    +0.243 C 
ATOM     19  O   UNL     1      -4.524  -1.424   1.490  0.00  0.00    -0.273 OA
ATOM     20  F   UNL     1      -7.446   4.159   4.947  0.00  0.00    -0.205 F 
ATOM     21  H   UNL     1      -5.284  -1.226   4.380  0.00  0.00    +0.123 HD
ATOM     22  H   UNL     1      -6.801  -0.361   0.755  0.00  0.00    +0.155 HD
ENDROOT
BRANCH   1  23
ATOM     23  C   UNL     1      -1.273  -0.251   0.119  0.00  0.00    +0.081 C 
ATOM     24  C   UNL     1      -1.363  -1.759  -0.121  0.00  0.00    +0.028 C 
BRANCH  23  26
ATOM     25  C   UNL     1       0.286   1.695   0.280  0.00  0.00    +0.006 C 
ATOM     26  C   UNL     1       0.197   0.172   0.164  0.00  0.00    +0.019 C 
ENDBRANCH  23  26
ENDBRANCH   1  23
BRANCH   5  27
ATOM     27  C   UNL     1      -2.700  -1.442   5.635  0.00  0.00    +0.022 C 
BRANCH  27  28
ATOM     28  C   UNL     1      -1.296  -2.033   5.498  0.00  0.00    -0.016 C 
ATOM     29  C   UNL     1      -0.716  -2.297   6.889  0.00  0.00    +0.007 C 
ATOM     30  C   UNL     1      -1.369  -3.347   4.718  0.00  0.00    +0.007 C 
ENDBRANCH  27  28
ENDBRANCH   5  27
TORSDOF 4
