REMARK  Name = ZINC33114681
REMARK  2 active torsions:
REMARK  status: ('A' for Active; 'I' for Inactive)
REMARK    1  A    between atoms: C_4  and  N_7
REMARK    2  A    between atoms: N_14  and  C_17
REMARK                            x       y       z     vdW  Elec       q    Type
REMARK                         _______ _______ _______ _____ _____    ______ ____
ROOT
ATOM      1  N   UNL     1       3.567  -0.685  -0.054  0.00  0.00    -0.192 N 
ATOM      2  C   UNL     1       3.800  -2.140  -0.064  0.00  0.00    +0.221 C 
ATOM      3  C   UNL     1       5.351  -2.224  -0.044  0.00  0.00    +0.247 C 
ATOM      4  C   UNL     1       5.648  -2.854   1.298  0.00  0.00    +0.255 C 
ATOM      5  O   UNL     1       6.754  -3.108   1.724  0.00  0.00    -0.272 OA
ATOM      6  N   UNL     1       4.499  -3.088   1.944  0.00  0.00    -0.207 N 
ATOM      7  C   UNL     1       3.381  -2.727   1.264  0.00  0.00    +0.251 C 
ATOM      8  O   UNL     1       2.237  -2.848   1.647  0.00  0.00    -0.273 OA
ATOM      9  N   UNL     1       5.775  -0.819  -0.051  0.00  0.00    -0.156 NA
ATOM     10  N   UNL     1       4.813  -0.058  -0.045  0.00  0.00    -0.078 NA
ENDROOT
BRANCH   6  11
ATOM     11  C   UNL     1       4.450  -3.667   3.219  0.00  0.00    +0.044 A 
ATOM     12  C   UNL     1       4.010  -2.923   4.306  0.00  0.00    +0.024 A 
ATOM     13  C   UNL     1       3.963  -3.498   5.559  0.00  0.00    +0.006 A 
ATOM     14  C   UNL     1       4.355  -4.815   5.739  0.00  0.00    -0.044 A 
ATOM     15  C   UNL     1       4.794  -5.559   4.659  0.00  0.00    -0.042 A 
ATOM     16  C   UNL     1       4.836  -4.987   3.399  0.00  0.00    +0.028 A 
ATOM     17  C   UNL     1       5.162  -6.955   5.114  0.00  0.00    +0.036 C 
ATOM     18  C   UNL     1       5.316  -6.853   6.646  0.00  0.00    +0.009 C 
ATOM     19  C   UNL     1       4.397  -5.662   6.993  0.00  0.00    +0.036 C 
ENDBRANCH   6  11
BRANCH   1  23
ATOM     20  C   UNL     1      -0.141   1.213  -0.070  0.00  0.00    +0.000 A 
ATOM     21  C   UNL     1       1.020   1.966  -0.060  0.00  0.00    +0.002 A 
ATOM     22  C   UNL     1       2.251   1.340  -0.054  0.00  0.00    +0.025 A 
ATOM     23  C   UNL     1       2.322  -0.048  -0.059  0.00  0.00    +0.054 A 
ATOM     24  C   UNL     1       1.155  -0.800  -0.070  0.00  0.00    +0.025 A 
ATOM     25  C   UNL     1      -0.073  -0.168  -0.075  0.00  0.00    +0.002 A 
ENDBRANCH   1  23
TORSDOF 2
