REMARK  Name = ZINC05284022
REMARK  6 active torsions:
REMARK  status: ('A' for Active; 'I' for Inactive)
REMARK    1  A    between atoms: C_1  and  C_2
REMARK    2  A    between atoms: C_2  and  C_3
REMARK    3  A    between atoms: C_2  and  C_4
REMARK    4  A    between atoms: C_2  and  N_5
REMARK    5  A    between atoms: C_6  and  C_15
REMARK    6  A    between atoms: N_10  and  O_11
REMARK                            x       y       z     vdW  Elec       q    Type
REMARK                         _______ _______ _______ _____ _____    ______ ____
ROOT
ATOM      1  N   UNL     1       1.488  -1.036  -0.288  0.00  0.00    -0.289 N 
ATOM      2  C   UNL     1       1.563  -2.399  -0.790  0.00  0.00    +0.114 C 
ATOM      3  C   UNL     1       2.014  -2.425  -2.251  0.00  0.00    +0.082 C 
ATOM      4  C   UNL     1       3.209  -1.502  -2.389  0.00  0.00    +0.068 C 
ATOM      5  N   UNL     1       4.343  -1.930  -2.800  0.00  0.00    -0.096 NA
ATOM      6  C   UNL     1       2.997  -0.050  -2.019  0.00  0.00    +0.150 C 
ATOM      7  C   UNL     1       2.145   0.011  -0.781  0.00  0.00    +0.222 C 
ATOM      8  O   UNL     1       2.055   1.071  -0.198  0.00  0.00    -0.275 OA
ENDROOT
BRANCH   2   9
ATOM      9  C   UNL     1       0.204  -3.041  -0.681  0.00  0.00    -0.008 A 
ATOM     10  C   UNL     1      -0.904  -2.407  -1.211  0.00  0.00    +0.008 A 
ATOM     11  C   UNL     1      -2.150  -2.996  -1.113  0.00  0.00    +0.020 A 
ATOM     12  C   UNL     1      -2.290  -4.220  -0.484  0.00  0.00    +0.042 A 
ATOM     13  C   UNL     1      -1.181  -4.855   0.046  0.00  0.00    +0.040 A 
ATOM     14  C   UNL     1       0.067  -4.268  -0.057  0.00  0.00    +0.047 A 
ATOM     15 CL   UNL     1       1.460  -5.067   0.603  0.00  0.00    -0.083 Cl
ATOM     16 CL   UNL     1      -3.856  -4.959  -0.359  0.00  0.00    -0.083 Cl
ENDBRANCH   2   9
BRANCH   1  18
ATOM     17  C   UNL     1      -0.517   0.158   0.444  0.00  0.00    +0.031 C 
ATOM     18  C   UNL     1       0.607  -0.794   0.857  0.00  0.00    +0.030 C 
ATOM     19  C   UNL     1       1.413  -0.167   1.997  0.00  0.00    +0.031 C 
ATOM     20  C   UNL     1       0.005  -2.120   1.327  0.00  0.00    +0.031 C 
ENDBRANCH   1  18
BRANCH   5  21
ATOM     21  O   UNL     1       4.504  -3.296  -3.138  0.00  0.00    -0.409 OA
ATOM     22  H   UNL     1       5.394  -3.525  -3.437  0.00  0.00    +0.328 HD
ENDBRANCH   5  21
TORSDOF 3
