REMARK  Name = ZINC60368199
REMARK  8 active torsions:
REMARK  status: ('A' for Active; 'I' for Inactive)
REMARK    1  A    between atoms: C_1  and  C_2
REMARK    2  A    between atoms: C_2  and  S_3
REMARK    3  A    between atoms: S_3  and  C_6
REMARK    4  A    between atoms: C_9  and  O_28
REMARK    5  A    between atoms: C_10  and  N_12
REMARK    6  A    between atoms: C_13  and  C_15
REMARK    7  A    between atoms: C_15  and  N_16
REMARK    8  A    between atoms: C_17  and  C_19
REMARK                            x       y       z     vdW  Elec       q    Type
REMARK                         _______ _______ _______ _____ _____    ______ ____
ROOT
ATOM      1  N   UNL     1       2.840  -5.096  -0.081  0.00  0.00    -0.281 N 
ATOM      2  C   UNL     1       3.813  -4.405  -0.706  0.00  0.00    +0.234 C 
ATOM      3  O   UNL     1       3.849  -3.195  -0.619  0.00  0.00    -0.274 OA
ATOM      4  H   UNL     1       2.848  -6.066  -0.097  0.00  0.00    +0.155 HD
ENDROOT
BRANCH   1   9
ATOM      5  C   UNL     1       1.081  -2.552   1.911  0.00  0.00    +0.090 A 
ATOM      6  C   UNL     1      -0.203  -3.066   1.923  0.00  0.00    +0.030 A 
ATOM      7  C   UNL     1      -0.482  -4.254   1.273  0.00  0.00    +0.049 A 
ATOM      8  C   UNL     1       0.525  -4.932   0.606  0.00  0.00    +0.138 A 
ATOM      9  C   UNL     1       1.818  -4.415   0.592  0.00  0.00    +0.077 A 
ATOM     10  C   UNL     1       2.089  -3.220   1.242  0.00  0.00    +0.054 A 
BRANCH   5  11
ATOM     11  S   UNL     1       1.429  -1.039   2.743  0.00  0.00    -0.003 S 
ATOM     12  O   UNL     1       2.812  -1.111   3.063  0.00  0.00    -0.169 OA
ATOM     13  O   UNL     1       0.451  -0.956   3.770  0.00  0.00    -0.169 OA
BRANCH  11  15
ATOM     14  C   UNL     1       1.418   1.625   2.119  0.00  0.00    +0.028 C 
ATOM     15  C   UNL     1       1.143   0.253   1.501  0.00  0.00    +0.168 C 
ENDBRANCH  11  15
ENDBRANCH   5  11
BRANCH   8  16
ATOM     16  O   UNL     1       0.252  -6.101  -0.034  0.00  0.00    -0.505 OA
ATOM     17  H   UNL     1      -0.015  -5.991  -0.957  0.00  0.00    +0.292 HD
ENDBRANCH   8  16
ENDBRANCH   1   9
BRANCH   2  18
ATOM     18  C   UNL     1       4.856  -5.134  -1.514  0.00  0.00    +0.200 C 
BRANCH  18  19
ATOM     19  N   UNL     1       5.793  -4.165  -2.089  0.00  0.00    -0.302 N 
ATOM     20  C   UNL     1       6.817  -4.592  -2.855  0.00  0.00    +0.251 C 
ATOM     21  O   UNL     1       6.963  -5.781  -3.069  0.00  0.00    -0.270 OA
ATOM     22  H   UNL     1       5.677  -3.218  -1.918  0.00  0.00    +0.150 HD
BRANCH  20  23
ATOM     23  C   UNL     1       7.755  -3.623  -3.430  0.00  0.00    +0.074 A 
ATOM     24  C   UNL     1       8.855  -3.848  -4.237  0.00  0.00    +0.024 A 
ATOM     25  C   UNL     1       9.573  -2.732  -4.641  0.00  0.00    -0.036 A 
ATOM     26  C   UNL     1       9.124  -1.522  -4.202  0.00  0.00    -0.006 A 
ATOM     27  S   UNL     1       7.772  -1.847  -3.276  0.00  0.00    -0.088 S 
ATOM     28  C   UNL     1       9.725  -0.179  -4.498  0.00  0.00    +0.043 C 
ATOM     29  C   UNL     1      11.137  -0.393  -5.059  0.00  0.00    +0.005 C 
ATOM     30  C   UNL     1      11.076  -1.459  -6.156  0.00  0.00    +0.005 C 
ATOM     31  C   UNL     1      10.807  -2.829  -5.535  0.00  0.00    +0.036 C 
ENDBRANCH  20  23
ENDBRANCH  18  19
ENDBRANCH   2  18
TORSDOF 7
