REMARK  Name = ZINC12635473
REMARK  10 active torsions:
REMARK  status: ('A' for Active; 'I' for Inactive)
REMARK    1  A    between atoms: C_1  and  C_2
REMARK    2  A    between atoms: C_2  and  N_3
REMARK    3  A    between atoms: C_8  and  C_27
REMARK    4  A    between atoms: C_10  and  C_15
REMARK    5  A    between atoms: C_10  and  C_22
REMARK    6  A    between atoms: C_15  and  C_16
REMARK    7  A    between atoms: C_22  and  O_24
REMARK    8  A    between atoms: O_24  and  C_25
REMARK    9  A    between atoms: C_25  and  C_26
REMARK   10  A    between atoms: C_32  and  C_33
REMARK                            x       y       z     vdW  Elec       q    Type
REMARK                         _______ _______ _______ _____ _____    ______ ____
ROOT
ATOM      1  N   UNL     1      -0.020   1.094   2.454  0.00  0.00    -0.242 N 
ATOM      2  C   UNL     1      -0.302  -0.097   3.075  0.00  0.00    +0.224 C 
ATOM      3  O   UNL     1      -1.282  -0.794   2.927  0.00  0.00    -0.275 OA
ATOM      4  C   UNL     1       0.842  -0.339   3.953  0.00  0.00    +0.077 C 
ATOM      5  C   UNL     1       1.008  -1.061   5.241  0.00  0.00    -0.026 C 
ATOM      6  C   UNL     1       2.442   0.885   5.124  0.00  0.00    +0.048 C 
ATOM      7  C   UNL     1       1.145   1.147   4.397  0.00  0.00    +0.086 C 
ATOM      8  C   UNL     1       0.993   1.782   3.069  0.00  0.00    +0.225 C 
ATOM      9  O   UNL     1       1.629   2.711   2.620  0.00  0.00    -0.275 OA
ATOM     10  N   UNL     1       2.108  -0.327   5.931  0.00  0.00    +0.396 N 
ATOM     11  H   UNL     1       2.934  -0.932   6.007  0.00  0.00    -0.083 HD
ATOM     12  H   UNL     1       1.802  -0.045   6.870  0.00  0.00    -0.083 HD
ENDROOT
BRANCH   5  13
ATOM     13  C   UNL     1      -0.263  -0.993   6.049  0.00  0.00    -0.058 A 
ATOM     14  C   UNL     1      -0.446   0.027   6.965  0.00  0.00    +0.002 A 
ATOM     15  C   UNL     1      -1.612   0.092   7.703  0.00  0.00    +0.000 A 
ATOM     16  C   UNL     1      -2.592  -0.868   7.532  0.00  0.00    +0.000 A 
ATOM     17  C   UNL     1      -2.407  -1.890   6.620  0.00  0.00    +0.003 A 
ATOM     18  C   UNL     1      -1.242  -1.953   5.879  0.00  0.00    -0.049 A 
ATOM     19  C   UNL     1      -1.040  -3.067   4.885  0.00  0.00    +0.044 C 
ENDBRANCH   5  13
BRANCH   1  21
ATOM     20  C   UNL     1      -0.013   1.086   0.008  0.00  0.00    +0.025 C 
ATOM     21  C   UNL     1      -0.729   1.579   1.267  0.00  0.00    +0.113 C 
ENDBRANCH   1  21
BRANCH   6  22
ATOM     22  C   UNL     1       3.553   0.591   4.149  0.00  0.00    +0.297 C 
ATOM     23  O   UNL     1       3.490   1.008   3.017  0.00  0.00    -0.252 OA
BRANCH  22  24
ATOM     24  O   UNL     1       4.612  -0.136   4.538  0.00  0.00    -0.466 OA
BRANCH  24  25
ATOM     25  C   UNL     1       5.644  -0.381   3.546  0.00  0.00    +0.228 C 
ATOM     26  C   UNL     1       6.761  -1.220   4.168  0.00  0.00    +0.048 C 
ENDBRANCH  24  25
ENDBRANCH  22  24
ENDBRANCH   6  22
BRANCH   6  27
ATOM     27  C   UNL     1       2.810   2.068   6.022  0.00  0.00    +0.034 C 
BRANCH  27  28
ATOM     28  C   UNL     1       4.107   1.775   6.732  0.00  0.00    -0.048 A 
ATOM     29  C   UNL     1       4.095   1.148   7.964  0.00  0.00    +0.003 A 
ATOM     30  C   UNL     1       5.285   0.875   8.613  0.00  0.00    +0.000 A 
ATOM     31  C   UNL     1       6.486   1.238   8.034  0.00  0.00    +0.000 A 
ATOM     32  C   UNL     1       6.498   1.870   6.805  0.00  0.00    +0.000 A 
ATOM     33  C   UNL     1       5.309   2.139   6.154  0.00  0.00    +0.003 A 
ENDBRANCH  27  28
ENDBRANCH   6  27
TORSDOF 7
