REMARK  Name = ZINC13794886
REMARK  6 active torsions:
REMARK  status: ('A' for Active; 'I' for Inactive)
REMARK    1  A    between atoms: C_1  and  S_2
REMARK    2  A    between atoms: S_2  and  N_5
REMARK    3  A    between atoms: C_10  and  C_12
REMARK    4  A    between atoms: C_12  and  N_14
REMARK    5  A    between atoms: N_16  and  C_25
REMARK    6  A    between atoms: C_25  and  C_26
REMARK                            x       y       z     vdW  Elec       q    Type
REMARK                         _______ _______ _______ _____ _____    ______ ____
ROOT
ATOM      1  N   UNL     1      -1.929  -2.136   3.184  0.00  0.00    -0.155 NA
ATOM      2  C   UNL     1      -2.893  -2.775   2.525  0.00  0.00    +0.167 A 
ATOM      3  N   UNL     1      -3.534  -3.922   2.871  0.00  0.00    -0.315 N 
ATOM      4  C   UNL     1      -4.523  -4.438   2.053  0.00  0.00    +0.093 A 
ATOM      5  C   UNL     1      -5.294  -5.598   2.242  0.00  0.00    +0.148 A 
ATOM      6  C   UNL     1      -6.240  -5.973   1.315  0.00  0.00    +0.040 A 
ATOM      7  C   UNL     1      -6.460  -5.222   0.172  0.00  0.00    +0.004 A 
ATOM      8  C   UNL     1      -5.715  -4.075  -0.038  0.00  0.00    +0.017 A 
ATOM      9  C   UNL     1      -4.770  -3.700   0.887  0.00  0.00    +0.042 A 
ATOM     10  S   UNL     1      -3.627  -2.348   1.012  0.00  0.00    -0.052 S 
ATOM     11  F   UNL     1      -5.105  -6.354   3.346  0.00  0.00    -0.203 F 
ENDROOT
BRANCH   1  12
ATOM     12  C   UNL     1      -1.410  -1.020   2.686  0.00  0.00    +0.257 C 
ATOM     13  O   UNL     1      -1.816  -0.581   1.626  0.00  0.00    -0.272 OA
BRANCH  12  19
ATOM     14  N   UNL     1      -0.693   1.113   3.608  0.00  0.00    -0.169 NA
ATOM     15  C   UNL     1       0.290   2.038   4.188  0.00  0.00    +0.110 C 
ATOM     16  C   UNL     1       1.588   1.949   3.379  0.00  0.00    +0.017 C 
ATOM     17  C   UNL     1       2.052   0.492   3.325  0.00  0.00    +0.003 C 
ATOM     18  C   UNL     1       0.988  -0.358   2.626  0.00  0.00    +0.030 C 
ATOM     19  C   UNL     1      -0.319  -0.297   3.432  0.00  0.00    +0.167 C 
BRANCH  14  21
ATOM     20  C   UNL     1      -2.044   2.075   1.412  0.00  0.00    +0.215 C 
ATOM     21  S   UNL     1      -2.197   1.648   3.168  0.00  0.00    +0.030 S 
ATOM     22  O   UNL     1      -2.405   2.822   3.941  0.00  0.00    -0.158 OA
ATOM     23  O   UNL     1      -3.044   0.518   3.325  0.00  0.00    -0.158 OA
ENDBRANCH  14  21
ENDBRANCH  12  19
ENDBRANCH   1  12
BRANCH   3  24
ATOM     24  C   UNL     1      -3.181  -4.610   4.116  0.00  0.00    +0.151 C 
BRANCH  24  25
ATOM     25  C   UNL     1      -4.039  -4.088   5.239  0.00  0.00    -0.013 C 
ATOM     26  C   UNL     1      -4.750  -4.919   5.961  0.00  0.00    +0.005 C 
ENDBRANCH  24  25
ENDBRANCH   3  24
TORSDOF 5
