REMARK  Name = ZINC64228707
REMARK  9 active torsions:
REMARK  status: ('A' for Active; 'I' for Inactive)
REMARK    1  A    between atoms: C_1  and  C_2
REMARK    2  A    between atoms: C_5  and  O_8
REMARK    3  A    between atoms: O_8  and  C_9
REMARK    4  A    between atoms: C_9  and  C_10
REMARK    5  A    between atoms: C_10  and  C_11
REMARK    6  A    between atoms: C_10  and  N_12
REMARK    7  A    between atoms: N_15  and  N_16
REMARK    8  A    between atoms: C_17  and  C_19
REMARK    9  A    between atoms: C_22  and  C_25
REMARK                            x       y       z     vdW  Elec       q    Type
REMARK                         _______ _______ _______ _____ _____    ______ ____
ROOT
ATOM      1  N   UNL     1       1.344  -6.688   0.389  0.00  0.00    -0.292 N 
ATOM      2  C   UNL     1       1.825  -7.937   0.544  0.00  0.00    +0.316 C 
ATOM      3  O   UNL     1       1.220  -8.742   1.225  0.00  0.00    -0.251 OA
ATOM      4  N   UNL     1       2.979  -8.294  -0.055  0.00  0.00    -0.218 N 
ATOM      5  H   UNL     1       1.827  -6.046  -0.154  0.00  0.00    +0.151 HD
ATOM      6  H   UNL     1       3.325  -9.193   0.057  0.00  0.00    +0.174 HD
ENDROOT
BRANCH   4   7
ATOM      7  N   UNL     1       3.677  -7.367  -0.839  0.00  0.00    -0.229 N 
ATOM      8  C   UNL     1       4.830  -7.724  -1.438  0.00  0.00    +0.260 C 
ATOM      9  O   UNL     1       5.265  -8.850  -1.298  0.00  0.00    -0.269 OA
ATOM     10  H   UNL     1       3.330  -6.468  -0.951  0.00  0.00    +0.173 HD
BRANCH   8  11
ATOM     11  C   UNL     1       5.567  -6.744  -2.267  0.00  0.00    +0.038 A 
ATOM     12  C   UNL     1       5.071  -5.449  -2.423  0.00  0.00    +0.014 A 
ATOM     13  C   UNL     1       5.757  -4.537  -3.194  0.00  0.00    +0.019 A 
ATOM     14  C   UNL     1       6.949  -4.908  -3.819  0.00  0.00    +0.052 A 
ATOM     15  C   UNL     1       7.446  -6.204  -3.663  0.00  0.00    +0.019 A 
ATOM     16  C   UNL     1       6.762  -7.114  -2.887  0.00  0.00    +0.014 A 
BRANCH  14  17
ATOM     17  C   UNL     1       7.663  -3.960  -4.622  0.00  0.00    +0.099 C 
ATOM     18  N   UNL     1       8.229  -3.208  -5.258  0.00  0.00    -0.191 NA
ENDBRANCH  14  17
ENDBRANCH   8  11
ENDBRANCH   4   7
BRANCH   1  19
ATOM     19  C   UNL     1       0.090  -6.300   1.040  0.00  0.00    +0.109 C 
ATOM     20  C   UNL     1      -1.091  -6.708   0.157  0.00  0.00    +0.031 C 
BRANCH  19  21
ATOM     21  C   UNL     1       0.072  -4.785   1.249  0.00  0.00    +0.251 C 
BRANCH  21  22
ATOM     22  O   UNL     1       0.057  -4.129  -0.021  0.00  0.00    -0.490 OA
BRANCH  22  27
ATOM     23  C   UNL     1      -0.018   1.503   0.010  0.00  0.00    +0.044 C 
ATOM     24  C   UNL     1       0.002  -0.004   0.002  0.00  0.00    -0.050 A 
ATOM     25  C   UNL     1       0.006  -0.688  -1.200  0.00  0.00    +0.007 A 
ATOM     26  C   UNL     1       0.024  -2.069  -1.210  0.00  0.00    +0.046 A 
ATOM     27  C   UNL     1       0.039  -2.770  -0.013  0.00  0.00    +0.121 A 
ATOM     28  C   UNL     1       0.036  -2.082   1.191  0.00  0.00    +0.046 A 
ATOM     29  C   UNL     1       0.023  -0.701   1.196  0.00  0.00    +0.007 A 
ENDBRANCH  22  27
ENDBRANCH  21  22
ENDBRANCH  19  21
ENDBRANCH   1  19
TORSDOF 7
