REMARK  Name = ZINC55506580
REMARK  7 active torsions:
REMARK  status: ('A' for Active; 'I' for Inactive)
REMARK    1  A    between atoms: C_1  and  C_2
REMARK    2  A    between atoms: C_2  and  O_3
REMARK    3  A    between atoms: O_3  and  C_4
REMARK    4  A    between atoms: C_9  and  N_12
REMARK    5  A    between atoms: C_13  and  C_15
REMARK    6  A    between atoms: C_15  and  N_16
REMARK    7  A    between atoms: C_20  and  C_22
REMARK                            x       y       z     vdW  Elec       q    Type
REMARK                         _______ _______ _______ _____ _____    ______ ____
ROOT
ATOM      1  N   UNL     1      -5.312  -4.510   2.669  0.00  0.00    -0.314 N 
ATOM      2  C   UNL     1      -6.280  -5.419   2.439  0.00  0.00    +0.197 C 
ATOM      3  O   UNL     1      -6.304  -6.028   1.391  0.00  0.00    -0.278 OA
ATOM      4  H   UNL     1      -5.294  -4.023   3.508  0.00  0.00    +0.149 HD
ENDROOT
BRANCH   1  10
ATOM      5  C   UNL     1      -0.359  -3.332   0.894  0.00  0.00    +0.403 C 
ATOM      6  O   UNL     1       0.470  -4.220   0.921  0.00  0.00    -0.226 OA
ATOM      7  N   UNL     1      -1.668  -3.635   0.789  0.00  0.00    -0.267 N 
ATOM      8  C   UNL     1      -2.681  -2.571   0.749  0.00  0.00    +0.113 C 
ATOM      9  C   UNL     1      -3.726  -2.845   1.835  0.00  0.00    +0.041 C 
ATOM     10  C   UNL     1      -4.289  -4.257   1.652  0.00  0.00    +0.076 C 
ATOM     11  C   UNL     1      -3.160  -5.280   1.799  0.00  0.00    +0.041 C 
ATOM     12  C   UNL     1      -2.108  -5.034   0.707  0.00  0.00    +0.113 C 
BRANCH   5  13
ATOM     13  O   UNL     1       0.031  -2.046   0.969  0.00  0.00    -0.451 OA
BRANCH  13  15
ATOM     14  C   UNL     1       1.682  -0.290   1.152  0.00  0.00    +0.048 C 
ATOM     15  C   UNL     1       1.434  -1.798   1.079  0.00  0.00    +0.230 C 
ENDBRANCH  13  15
ENDBRANCH   5  13
ENDBRANCH   1  10
BRANCH   2  16
ATOM     16  C   UNL     1      -7.333  -5.680   3.485  0.00  0.00    +0.019 C 
BRANCH  16  17
ATOM     17  N   UNL     1      -8.265  -6.705   2.998  0.00  0.00    +0.390 N 
ATOM     18  C   UNL     1      -7.569  -8.006   2.904  0.00  0.00    -0.077 C 
ATOM     19  C   UNL     1      -8.634  -9.055   3.310  0.00  0.00    -0.020 C 
ATOM     20  C   UNL     1      -9.400  -8.305   4.431  0.00  0.00    -0.013 C 
ATOM     21  C   UNL     1      -9.390  -6.842   3.940  0.00  0.00    -0.037 C 
ATOM     22  H   UNL     1      -8.614  -6.443   2.088  0.00  0.00    -0.080 HD
BRANCH  21  23
ATOM     23  C   UNL     1      -9.196  -5.910   5.109  0.00  0.00    -0.061 A 
ATOM     24  C   UNL     1     -10.033  -4.822   5.270  0.00  0.00    +0.005 A 
ATOM     25  C   UNL     1      -9.856  -3.967   6.342  0.00  0.00    +0.038 A 
ATOM     26  C   UNL     1      -8.841  -4.201   7.253  0.00  0.00    +0.123 A 
ATOM     27  C   UNL     1      -8.004  -5.292   7.091  0.00  0.00    +0.038 A 
ATOM     28  C   UNL     1      -8.186  -6.148   6.021  0.00  0.00    +0.005 A 
ATOM     29  F   UNL     1      -8.667  -3.366   8.301  0.00  0.00    -0.205 F 
ENDBRANCH  21  23
ENDBRANCH  16  17
ENDBRANCH   2  16
TORSDOF 6
