REMARK  Name = ZINC43253775
REMARK  9 active torsions:
REMARK  status: ('A' for Active; 'I' for Inactive)
REMARK    1  A    between atoms: C_1  and  C_2
REMARK    2  A    between atoms: C_2  and  C_3
REMARK    3  A    between atoms: C_2  and  C_4
REMARK    4  A    between atoms: C_4  and  C_5
REMARK    5  A    between atoms: C_5  and  N_6
REMARK    6  A    between atoms: C_7  and  C_9
REMARK    7  A    between atoms: C_9  and  N_10
REMARK    8  A    between atoms: C_11  and  C_24
REMARK    9  A    between atoms: N_20  and  C_23
REMARK                            x       y       z     vdW  Elec       q    Type
REMARK                         _______ _______ _______ _____ _____    ______ ____
ROOT
ATOM      1  N   UNL     1      -4.422  -5.885  -0.608  0.00  0.00    -0.170 NA
ATOM      2  C   UNL     1      -5.808  -6.420  -0.426  0.00  0.00    +0.130 C 
ATOM      3  C   UNL     1      -5.763  -7.067   0.951  0.00  0.00    +0.139 C 
ATOM      4  C   UNL     1      -4.252  -7.514   0.936  0.00  0.00    +0.241 C 
ATOM      5  O   UNL     1      -3.605  -6.370   0.549  0.00  0.00    -0.282 OA
ATOM      6  C   UNL     1      -4.236  -8.492   2.009  0.00  0.00    +0.253 C 
ATOM      7  O   UNL     1      -3.328  -8.727   2.777  0.00  0.00    -0.272 OA
ATOM      8  N   UNL     1      -5.468  -9.092   1.970  0.00  0.00    -0.243 N 
ATOM      9  C   UNL     1      -6.374  -8.412   1.188  0.00  0.00    +0.230 C 
ATOM     10  O   UNL     1      -7.440  -8.813   0.773  0.00  0.00    -0.275 OA
ATOM     11  C   UNL     1      -5.793 -10.324   2.694  0.00  0.00    +0.141 C 
ENDROOT
BRANCH   2  12
ATOM     12  C   UNL     1      -6.817  -5.301  -0.457  0.00  0.00    -0.027 A 
ATOM     13  C   UNL     1      -6.822  -4.347   0.544  0.00  0.00    +0.007 A 
ATOM     14  C   UNL     1      -7.747  -3.321   0.516  0.00  0.00    +0.020 A 
ATOM     15  C   UNL     1      -8.668  -3.247  -0.514  0.00  0.00    +0.041 A 
ATOM     16  C   UNL     1      -8.662  -4.202  -1.516  0.00  0.00    +0.020 A 
ATOM     17  C   UNL     1      -7.733  -5.225  -1.490  0.00  0.00    +0.007 A 
ATOM     18 CL   UNL     1      -9.831  -1.959  -0.550  0.00  0.00    -0.084 Cl
ENDBRANCH   2  12
BRANCH   1  19
ATOM     19  C   UNL     1      -4.428  -4.417  -0.669  0.00  0.00    +0.211 C 
BRANCH  19  21
ATOM     20  N   UNL     1      -2.859  -2.607  -1.285  0.00  0.00    -0.314 N 
ATOM     21  C   UNL     1      -3.086  -3.929  -1.150  0.00  0.00    +0.229 C 
ATOM     22  O   UNL     1      -2.211  -4.725  -1.416  0.00  0.00    -0.274 OA
ATOM     23  H   UNL     1      -3.559  -1.970  -1.072  0.00  0.00    +0.149 HD
BRANCH  20  24
ATOM     24  C   UNL     1      -1.554  -2.132  -1.753  0.00  0.00    +0.104 C 
BRANCH  24  25
ATOM     25  C   UNL     1      -1.561  -0.604  -1.817  0.00  0.00    +0.022 C 
BRANCH  25  27
ATOM     26  C   UNL     1      -0.244   1.411  -2.488  0.00  0.00    +0.007 C 
ATOM     27  C   UNL     1      -0.198  -0.108  -2.305  0.00  0.00    -0.016 C 
ATOM     28  C   UNL     1       0.874  -0.466  -1.275  0.00  0.00    +0.007 C 
ENDBRANCH  25  27
ENDBRANCH  24  25
ENDBRANCH  20  24
ENDBRANCH  19  21
ENDBRANCH   1  19
TORSDOF 6
