REMARK  Name = ZINC09053998
REMARK  5 active torsions:
REMARK  status: ('A' for Active; 'I' for Inactive)
REMARK    1  A    between atoms: C_3  and  C_6
REMARK    2  A    between atoms: C_15  and  C_16
REMARK    3  A    between atoms: C_15  and  N_44
REMARK    4  A    between atoms: C_19  and  C_25
REMARK    5  A    between atoms: C_21  and  N_22
REMARK                            x       y       z     vdW  Elec       q    Type
REMARK                         _______ _______ _______ _____ _____    ______ ____
ROOT
ATOM      1  C   UNL     1       1.868   4.865  -2.211  0.00  0.00    -0.039 C 
ENDROOT
BRANCH   1  10
ATOM      2  C   UNL     1       0.819   5.234  -0.061  0.00  0.00    +0.001 C 
ATOM      3  C   UNL     1       1.113   5.432   1.423  0.00  0.00    -0.046 A 
ATOM      4  C   UNL     1       0.163   5.276   2.431  0.00  0.00    +0.010 A 
ATOM      5  C   UNL     1       0.511   5.470   3.724  0.00  0.00    +0.045 A 
ATOM      6  S   UNL     1       2.242   5.894   3.582  0.00  0.00    -0.101 S 
ATOM      7  C   UNL     1       2.368   5.782   1.819  0.00  0.00    -0.010 A 
ATOM      8  C   UNL     1       3.551   6.010   0.936  0.00  0.00    +0.024 C 
ATOM      9  C   UNL     1       3.040   6.131  -0.510  0.00  0.00    -0.072 C 
ATOM     10  N   UNL     1       2.105   5.007  -0.761  0.00  0.00    +0.390 N 
ATOM     11  H   UNL     1       2.527   4.141  -0.406  0.00  0.00    -0.080 HD
BRANCH   2  14
ATOM     12  C   UNL     1      -1.888   2.690  -0.906  0.00  0.00    +0.008 A 
ATOM     13  C   UNL     1      -1.265   3.922  -0.848  0.00  0.00    +0.010 A 
ATOM     14  C   UNL     1      -0.055   4.020  -0.245  0.00  0.00    -0.019 A 
ATOM     15  S   UNL     1       0.236   2.336   0.273  0.00  0.00    -0.103 S 
ATOM     16  C   UNL     1      -1.275   1.617  -0.349  0.00  0.00    +0.045 A 
ENDBRANCH   2  14
ENDBRANCH   1  10
BRANCH   1  17
ATOM     17  C   UNL     1       3.188   4.623  -2.896  0.00  0.00    -0.034 A 
ATOM     18  C   UNL     1       3.779   5.636  -3.631  0.00  0.00    +0.005 A 
ATOM     19  C   UNL     1       4.989   5.423  -4.257  0.00  0.00    +0.013 A 
ATOM     20  C   UNL     1       5.614   4.179  -4.157  0.00  0.00    +0.039 A 
ATOM     21  C   UNL     1       5.011   3.160  -3.418  0.00  0.00    +0.046 A 
ATOM     22  C   UNL     1       3.802   3.388  -2.793  0.00  0.00    +0.128 A 
BRANCH  20  23
ATOM     23  C   UNL     1       6.909   3.942  -4.829  0.00  0.00    +0.242 C 
ATOM     24  O   UNL     1       7.451   2.858  -4.739  0.00  0.00    -0.270 OA
ATOM     25  N   UNL     1       7.489   4.928  -5.541  0.00  0.00    -0.325 N 
ATOM     26  H   UNL     1       7.056   5.794  -5.613  0.00  0.00    +0.145 HD
ATOM     27  H   UNL     1       8.339   4.773  -5.982  0.00  0.00    +0.145 HD
ENDBRANCH  20  23
BRANCH  22  28
ATOM     28  N   UNL     1       3.161   2.308  -2.009  0.00  0.00    +0.057 N 
ATOM     29  O   UNL     1       3.644   1.190  -2.005  0.00  0.00    -0.126 OA
ATOM     30  O   UNL     1       2.150   2.538  -1.369  0.00  0.00    -0.126 OA
ENDBRANCH  22  28
ENDBRANCH   1  17
TORSDOF 5
