REMARK  Name = ZINC30836449
REMARK  2 active torsions:
REMARK  status: ('A' for Active; 'I' for Inactive)
REMARK    1  A    between atoms: C_4  and  C_7
REMARK    2  A    between atoms: N_11  and  C_15
REMARK                            x       y       z     vdW  Elec       q    Type
REMARK                         _______ _______ _______ _____ _____    ______ ____
ROOT
ATOM      1  C   UNL     1      -4.893   5.248  -0.499  0.00  0.00    +0.108 C 
ATOM      2  C   UNL     1      -4.622   3.846  -1.049  0.00  0.00    +0.038 C 
ATOM      3  C   UNL     1      -3.725   3.092  -0.064  0.00  0.00    +0.129 C 
ATOM      4  N   UNL     1      -2.454   3.822   0.044  0.00  0.00    -0.251 N 
ATOM      5  N   UNL     1      -2.487   5.220   0.157  0.00  0.00    -0.233 N 
ATOM      6  C   UNL     1      -3.604   5.913  -0.105  0.00  0.00    +0.237 C 
ATOM      7  O   UNL     1      -3.574   7.122  -0.020  0.00  0.00    -0.274 OA
ATOM      8  H   UNL     1      -1.584   5.768   0.465  0.00  0.00    +0.173 HD
ENDROOT
BRANCH   1  12
ATOM      9  C   UNL     1      -6.831   7.592  -3.498  0.00  0.00    +0.000 A 
ATOM     10  C   UNL     1      -7.466   7.347  -2.295  0.00  0.00    +0.000 A 
ATOM     11  C   UNL     1      -6.839   6.588  -1.325  0.00  0.00    +0.004 A 
ATOM     12  C   UNL     1      -5.577   6.074  -1.558  0.00  0.00    -0.035 A 
ATOM     13  C   UNL     1      -4.940   6.324  -2.759  0.00  0.00    +0.004 A 
ATOM     14  C   UNL     1      -5.569   7.078  -3.731  0.00  0.00    +0.000 A 
ENDBRANCH   1  12
BRANCH   4  15
ATOM     15  C   UNL     1      -1.236   3.138   0.029  0.00  0.00    +0.048 A 
ATOM     16  C   UNL     1      -0.041   3.845  -0.027  0.00  0.00    +0.025 A 
ATOM     17  C   UNL     1       1.161   3.165  -0.047  0.00  0.00    +0.002 A 
ATOM     18  C   UNL     1       1.176   1.783  -0.001  0.00  0.00    +0.000 A 
ATOM     19  C   UNL     1      -0.011   1.077   0.061  0.00  0.00    +0.002 A 
ATOM     20  C   UNL     1      -1.217   1.750   0.076  0.00  0.00    +0.025 A 
ENDBRANCH   4  15
TORSDOF 2
