REMARK  Name = ZINC16659441
REMARK  7 active torsions:
REMARK  status: ('A' for Active; 'I' for Inactive)
REMARK    1  A    between atoms: C_6  and  C_7
REMARK    2  A    between atoms: C_12  and  S_16
REMARK    3  A    between atoms: S_16  and  C_17
REMARK    4  A    between atoms: C_17  and  C_18
REMARK    5  A    between atoms: C_18  and  C_20
REMARK    6  A    between atoms: C_21  and  N_32
REMARK    7  A    between atoms: N_22  and  C_29
REMARK                            x       y       z     vdW  Elec       q    Type
REMARK                         _______ _______ _______ _____ _____    ______ ____
ROOT
ATOM      1  C   UNL     1      -1.251   1.774  -0.795  0.00  0.00    +0.155 C 
ENDROOT
BRANCH   1   2
ATOM      2  C   UNL     1       0.082   1.084  -0.932  0.00  0.00    +0.182 C 
ATOM      3  O   UNL     1       0.139  -0.129  -0.957  0.00  0.00    -0.291 OA
BRANCH   2   4
ATOM      4  C   UNL     1       1.264   1.848  -1.038  0.00  0.00    +0.120 A 
ATOM      5  C   UNL     1       2.528   1.232  -1.047  0.00  0.00    +0.116 A 
ATOM      6  N   UNL     1       3.643   2.013  -1.155  0.00  0.00    -0.278 N 
ATOM      7  C   UNL     1       3.553   3.349  -1.242  0.00  0.00    +0.331 A 
ATOM      8  O   UNL     1       4.575   4.000  -1.333  0.00  0.00    -0.246 OA
ATOM      9  N   UNL     1       2.374   3.993  -1.234  0.00  0.00    -0.274 N 
ATOM     10  H   UNL     1       2.357   4.991  -1.301  0.00  0.00    +0.173 HD
ATOM     11  C   UNL     1       1.214   3.312  -1.135  0.00  0.00    +0.266 A 
ATOM     12  O   UNL     1       0.148   3.899  -1.128  0.00  0.00    -0.267 OA
BRANCH   6  13
ATOM     13  C   UNL     1       4.964   1.380  -1.172  0.00  0.00    +0.094 C 
ATOM     14  C   UNL     1       5.953   1.836  -2.246  0.00  0.00    +0.027 C 
ATOM     15  C   UNL     1       5.292   0.459  -2.349  0.00  0.00    +0.027 C 
ENDBRANCH   6  13
BRANCH   5  16
ATOM     16  N   UNL     1       2.638  -0.121  -0.954  0.00  0.00    -0.344 N 
ATOM     17  H   UNL     1       1.841  -0.675  -0.966  0.00  0.00    +0.144 HD
ATOM     18  H   UNL     1       3.513  -0.532  -0.875  0.00  0.00    +0.144 HD
ENDBRANCH   5  16
ENDBRANCH   2   4
ENDBRANCH   1   2
BRANCH   1  19
ATOM     19  S   UNL     1      -2.564   0.532  -0.691  0.00  0.00    -0.097 S 
BRANCH  19  25
ATOM     20  C   UNL     1      -5.694  -0.364  -0.409  0.00  0.00    +0.001 A 
ATOM     21  C   UNL     1      -7.012  -0.646  -0.289  0.00  0.00    +0.056 A 
ATOM     22  S   UNL     1      -7.774   0.963  -0.191  0.00  0.00    -0.076 S 
ATOM     23  C   UNL     1      -6.320   1.970  -0.313  0.00  0.00    +0.113 A 
ATOM     24  C   UNL     1      -5.273   1.033  -0.433  0.00  0.00    +0.047 A 
ATOM     25  C   UNL     1      -3.969   1.585  -0.541  0.00  0.00    +0.109 A 
ATOM     26  N   UNL     1      -3.822   2.902  -0.534  0.00  0.00    -0.229 NA
ATOM     27  C   UNL     1      -4.851   3.722  -0.424  0.00  0.00    +0.223 A 
ATOM     28  N   UNL     1      -6.084   3.268  -0.315  0.00  0.00    -0.228 NA
BRANCH  20  34
ATOM     29  C   UNL     1      -4.790  -2.386  -1.554  0.00  0.00    +0.011 A 
ATOM     30  C   UNL     1      -3.856  -3.396  -1.657  0.00  0.00    +0.039 A 
ATOM     31  C   UNL     1      -2.831  -3.492  -0.729  0.00  0.00    +0.123 A 
ATOM     32  C   UNL     1      -2.736  -2.572   0.302  0.00  0.00    +0.039 A 
ATOM     33  C   UNL     1      -3.663  -1.555   0.410  0.00  0.00    +0.011 A 
ATOM     34  C   UNL     1      -4.696  -1.455  -0.521  0.00  0.00    -0.016 A 
ATOM     35  F   UNL     1      -1.922  -4.486  -0.831  0.00  0.00    -0.205 F 
ENDBRANCH  20  34
ENDBRANCH  19  25
ENDBRANCH   1  19
TORSDOF 7
