REMARK  Name = ZINC19703324
REMARK  11 active torsions:
REMARK  status: ('A' for Active; 'I' for Inactive)
REMARK    1  A    between atoms: C_1  and  C_2
REMARK    2  A    between atoms: C_9  and  C_14
REMARK    3  A    between atoms: C_14  and  N_15
REMARK    4  A    between atoms: C_21  and  O_37
REMARK    5  A    between atoms: C_23  and  C_36
REMARK    6  A    between atoms: C_26  and  O_32
REMARK    7  A    between atoms: C_29  and  O_31
REMARK    8  A    between atoms: O_32  and  C_33
REMARK    9  A    between atoms: C_33  and  C_35
REMARK   10  A    between atoms: O_37  and  C_38
REMARK   11  A    between atoms: C_38  and  C_40
REMARK                            x       y       z     vdW  Elec       q    Type
REMARK                         _______ _______ _______ _____ _____    ______ ____
ROOT
ATOM      1  C   UNL     1       5.565   1.571   0.802  0.00  0.00    +0.008 C 
ATOM      2  C   UNL     1       4.689   0.307   0.734  0.00  0.00    -0.003 C 
ATOM      3  C   UNL     1       5.454  -0.733  -0.057  0.00  0.00    +0.048 C 
ATOM      4  C   UNL     1       4.738  -2.059  -0.107  0.00  0.00    +0.184 C 
ATOM      5  C   UNL     1       3.422  -2.014  -0.835  0.00  0.00    +0.086 C 
ATOM      6  C   UNL     1       3.332  -3.442  -1.422  0.00  0.00    +0.122 C 
ATOM      7  C   UNL     1       4.791  -3.845  -1.567  0.00  0.00    +0.312 C 
ATOM      8  O   UNL     1       5.195  -4.748  -2.262  0.00  0.00    -0.250 OA
ATOM      9  O   UNL     1       5.553  -3.051  -0.802  0.00  0.00    -0.461 OA
ATOM     10  C   UNL     1       2.224  -1.723   0.076  0.00  0.00    +0.193 C 
ATOM     11  C   UNL     1       2.245  -0.259   0.537  0.00  0.00    +0.038 C 
ATOM     12  C   UNL     1       3.388   0.575  -0.031  0.00  0.00    +0.045 C 
ATOM     13  C   UNL     1       2.909   2.027   0.114  0.00  0.00    +0.183 C 
ATOM     14  C   UNL     1       1.369   1.970   0.017  0.00  0.00    +0.077 C 
ATOM     15  C   UNL     1       0.986   0.474   0.003  0.00  0.00    +0.128 C 
ATOM     16  C   UNL     1       2.180  -0.189   2.068  0.00  0.00    +0.018 C 
ENDROOT
BRANCH  15  17
ATOM     17  O   UNL     1      -0.119   0.238   0.878  0.00  0.00    -0.391 OA
ATOM     18  H   UNL     1      -1.101   0.682   0.656  0.00  0.00    +0.210 HD
ENDBRANCH  15  17
BRANCH   6  19
ATOM     19  C   UNL     1       2.624  -4.418  -0.482  0.00  0.00    +0.099 C 
BRANCH  19  20
ATOM     20  N   UNL     1       2.653  -5.766  -1.063  0.00  0.00    -0.297 NA
ATOM     21  C   UNL     1       1.743  -5.864  -2.214  0.00  0.00    +0.112 C 
ATOM     22  C   UNL     1       1.849  -7.264  -2.824  0.00  0.00    +0.175 C 
ATOM     23  O   UNL     1       1.558  -8.239  -1.820  0.00  0.00    -0.377 OA
ATOM     24  C   UNL     1       2.426  -8.174  -0.685  0.00  0.00    +0.175 C 
ATOM     25  C   UNL     1       2.326  -6.783  -0.053  0.00  0.00    +0.112 C 
ENDBRANCH  19  20
ENDBRANCH   6  19
BRANCH  13  26
ATOM     26  O   UNL     1       3.424   2.831  -0.985  0.00  0.00    -0.461 OA
BRANCH  26  27
ATOM     27  C   UNL     1       3.589   4.143  -0.755  0.00  0.00    +0.304 C 
ATOM     28  O   UNL     1       3.313   4.606   0.326  0.00  0.00    -0.251 OA
ATOM     29  C   UNL     1       4.118   5.038  -1.846  0.00  0.00    +0.136 C 
ENDBRANCH  26  27
ENDBRANCH  13  26
BRANCH  10  30
ATOM     30  O   UNL     1       0.976  -2.005  -0.618  0.00  0.00    -0.460 OA
BRANCH  30  31
ATOM     31  C   UNL     1      -0.035  -2.490   0.120  0.00  0.00    +0.304 C 
ATOM     32  O   UNL     1       0.135  -2.736   1.290  0.00  0.00    -0.251 OA
ATOM     33  C   UNL     1      -1.382  -2.729  -0.513  0.00  0.00    +0.136 C 
ENDBRANCH  30  31
ENDBRANCH  10  30
TORSDOF 7
