REMARK  Name = ZINC48660223
REMARK  6 active torsions:
REMARK  status: ('A' for Active; 'I' for Inactive)
REMARK    1  A    between atoms: C_1  and  C_2
REMARK    2  A    between atoms: C_5  and  C_8
REMARK    3  A    between atoms: C_9  and  S_10
REMARK    4  A    between atoms: S_10  and  N_13
REMARK    5  A    between atoms: C_15  and  C_22
REMARK    6  A    between atoms: C_18  and  C_21
REMARK                            x       y       z     vdW  Elec       q    Type
REMARK                         _______ _______ _______ _____ _____    ______ ____
ROOT
ATOM      1  S   UNL     1       0.098  -6.682   1.113  0.00  0.00    +0.054 S 
ATOM      2  O   UNL     1      -0.917  -7.106   2.012  0.00  0.00    -0.153 OA
ATOM      3  O   UNL     1       0.123  -7.080  -0.251  0.00  0.00    -0.153 OA
ENDROOT
BRANCH   1   4
ATOM      4  N   UNL     1       1.542  -7.156   1.772  0.00  0.00    -0.177 NA
ATOM      5  C   UNL     1       2.724  -7.351   0.921  0.00  0.00    +0.112 C 
ATOM      6  C   UNL     1       3.879  -6.517   1.484  0.00  0.00    +0.002 C 
ATOM      7  C   UNL     1       4.096  -6.879   2.955  0.00  0.00    +0.009 C 
ATOM      8  C   UNL     1       2.831  -6.555   3.754  0.00  0.00    +0.002 C 
ATOM      9  C   UNL     1       1.666  -7.383   3.218  0.00  0.00    +0.112 C 
ATOM     10  C   UNL     1       3.061  -6.886   5.230  0.00  0.00    +0.009 C 
ATOM     11  C   UNL     1       3.538  -5.030   1.369  0.00  0.00    +0.009 C 
ENDBRANCH   1   4
BRANCH   1  13
ATOM     12  C   UNL     1       0.060  -4.251  -0.021  0.00  0.00    +0.028 C 
ATOM     13  C   UNL     1       0.074  -4.920   1.123  0.00  0.00    +0.153 C 
BRANCH  12  18
ATOM     14  C   UNL     1      -0.018   1.503   0.010  0.00  0.00    +0.044 C 
ATOM     15  C   UNL     1       0.002  -0.004   0.002  0.00  0.00    -0.050 A 
ATOM     16  C   UNL     1       0.006  -0.686  -1.202  0.00  0.00    +0.004 A 
ATOM     17  C   UNL     1       0.024  -2.066  -1.216  0.00  0.00    +0.008 A 
ATOM     18  C   UNL     1       0.040  -2.773  -0.013  0.00  0.00    -0.024 A 
ATOM     19  C   UNL     1       0.037  -2.079   1.197  0.00  0.00    +0.008 A 
ATOM     20  C   UNL     1       0.023  -0.699   1.198  0.00  0.00    +0.004 A 
ENDBRANCH  12  18
ENDBRANCH   1  13
TORSDOF 3
