REMARK  Name = ZINC21526767
REMARK  8 active torsions:
REMARK  status: ('A' for Active; 'I' for Inactive)
REMARK    1  A    between atoms: C_1  and  C_2
REMARK    2  A    between atoms: C_11  and  C_24
REMARK    3  A    between atoms: C_11  and  C_25
REMARK    4  A    between atoms: N_12  and  C_15
REMARK    5  A    between atoms: C_15  and  C_16
REMARK    6  A    between atoms: C_19  and  O_22
REMARK    7  A    between atoms: O_22  and  C_23
REMARK    8  A    between atoms: N_27  and  C_28
REMARK                            x       y       z     vdW  Elec       q    Type
REMARK                         _______ _______ _______ _____ _____    ______ ____
ROOT
ATOM      1  C   UNL     1      -3.148   3.725  -9.307  0.00  0.00    +0.086 C 
ATOM      2  C   UNL     1      -1.927   2.986  -8.825  0.00  0.00    +0.105 A 
ATOM      3  C   UNL     1      -0.863   3.551  -8.228  0.00  0.00    +0.071 A 
ATOM      4  C   UNL     1       0.056   2.515  -7.936  0.00  0.00    +0.088 A 
ATOM      5  C   UNL     1      -0.535   1.336  -8.391  0.00  0.00    +0.154 A 
ATOM      6  O   UNL     1      -1.732   1.661  -8.925  0.00  0.00    -0.458 OA
ATOM      7  C   UNL     1       0.349   0.283  -8.112  0.00  0.00    +0.079 A 
ATOM      8  C   UNL     1       1.443   0.819  -7.499  0.00  0.00    +0.109 A 
ATOM      9  N   UNL     1       1.267   2.197  -7.401  0.00  0.00    -0.331 N 
ATOM     10  C   UNL     1       2.290   3.062  -6.805  0.00  0.00    +0.157 C 
ATOM     11  C   UNL     1       3.064   2.271  -5.750  0.00  0.00    +0.129 C 
ATOM     12  N   UNL     1       3.472   0.954  -6.225  0.00  0.00    -0.276 N 
ATOM     13  C   UNL     1       2.654   0.177  -6.973  0.00  0.00    +0.264 C 
ATOM     14  O   UNL     1       2.909  -0.992  -7.197  0.00  0.00    -0.268 OA
ATOM     15  C   UNL     1       4.313   3.062  -5.358  0.00  0.00    +0.043 C 
ENDROOT
BRANCH  11  16
ATOM     16  C   UNL     1       2.192   2.102  -4.533  0.00  0.00    +0.238 C 
ATOM     17  O   UNL     1       1.312   2.903  -4.300  0.00  0.00    -0.273 OA
ATOM     18  N   UNL     1       2.391   1.060  -3.701  0.00  0.00    -0.311 N 
ATOM     19  H   UNL     1       3.133   0.288  -3.955  0.00  0.00    +0.149 HD
BRANCH  18  20
ATOM     20  C   UNL     1       1.620   0.954  -2.461  0.00  0.00    +0.073 C 
ATOM     21  C   UNL     1       2.279   1.841  -1.387  0.00  0.00    +0.022 C 
ATOM     22  C   UNL     1       1.825   1.486   0.042  0.00  0.00    +0.002 C 
ATOM     23  C   UNL     1       0.348   1.209   0.125  0.00  0.00    +0.000 C 
ATOM     24  C   UNL     1       0.126  -0.310  -0.016  0.00  0.00    +0.000 C 
ATOM     25  C   UNL     1       0.177  -0.753  -1.401  0.00  0.00    +0.002 C 
ATOM     26  C   UNL     1       1.551  -0.492  -2.051  0.00  0.00    +0.022 C 
ENDBRANCH  18  20
ENDBRANCH  11  16
BRANCH  12  27
ATOM     27  C   UNL     1       4.807   0.458  -5.882  0.00  0.00    +0.144 C 
BRANCH  27  28
ATOM     28  C   UNL     1       5.757   0.747  -7.016  0.00  0.00    -0.030 A 
ATOM     29  C   UNL     1       5.826  -0.114  -8.095  0.00  0.00    +0.009 A 
ATOM     30  C   UNL     1       6.692   0.152  -9.138  0.00  0.00    +0.046 A 
ATOM     31  C   UNL     1       7.501   1.278  -9.096  0.00  0.00    +0.120 A 
ATOM     32  C   UNL     1       7.434   2.138  -8.009  0.00  0.00    +0.046 A 
ATOM     33  C   UNL     1       6.562   1.870  -6.971  0.00  0.00    +0.009 A 
BRANCH  31  34
ATOM     34  O   UNL     1       8.357   1.540 -10.118  0.00  0.00    -0.495 OA
ATOM     35  C   UNL     1       8.373   0.612 -11.205  0.00  0.00    +0.277 C 
ENDBRANCH  31  34
ENDBRANCH  27  28
ENDBRANCH  12  27
TORSDOF 5
