REMARK  Name = ZINC39679725
REMARK  9 active torsions:
REMARK  status: ('A' for Active; 'I' for Inactive)
REMARK    1  A    between atoms: C_1  and  C_2
REMARK    2  A    between atoms: C_2  and  C_3
REMARK    3  A    between atoms: C_2  and  C_21
REMARK    4  A    between atoms: C_2  and  C_27
REMARK    5  A    between atoms: C_3  and  C_4
REMARK    6  A    between atoms: C_12  and  C_17
REMARK    7  A    between atoms: C_17  and  C_18
REMARK    8  A    between atoms: C_17  and  C_19
REMARK    9  A    between atoms: C_17  and  C_20
REMARK                            x       y       z     vdW  Elec       q    Type
REMARK                         _______ _______ _______ _____ _____    ______ ____
ROOT
ATOM      1  C   UNL     1       2.160  -0.005   1.222  0.00  0.00    +0.219 C 
ATOM      2  O   UNL     1       2.426  -0.350   0.087  0.00  0.00    -0.275 OA
ATOM      3  N   UNL     1       2.989  -0.305   2.219  0.00  0.00    -0.285 N 
ATOM      4  C   UNL     1       4.268   0.073   2.161  0.00  0.00    +0.035 C 
ATOM      5  C   UNL     1       4.718   0.934   1.062  0.00  0.00    +0.025 C 
ATOM      6  C   UNL     1       6.002   1.326   0.985  0.00  0.00    +0.031 C 
ATOM      7  C   UNL     1       6.958   0.881   2.019  0.00  0.00    +0.083 C 
ATOM      8  N   UNL     1       8.229   1.114   2.172  0.00  0.00    -0.258 NA
ATOM      9  C   UNL     1       8.699   0.425   3.377  0.00  0.00    +0.216 C 
ATOM     10  N   UNL     1       7.536  -0.267   3.947  0.00  0.00    -0.222 NA
ATOM     11  C   UNL     1       6.473   0.013   3.115  0.00  0.00    +0.077 C 
ATOM     12  C   UNL     1       5.165  -0.355   3.158  0.00  0.00    +0.050 C 
ATOM     13  H   UNL     1       2.664  -0.798   2.989  0.00  0.00    +0.155 HD
ENDROOT
BRANCH   9  14
ATOM     14  C   UNL     1       9.248   1.442   4.380  0.00  0.00    +0.003 C 
ATOM     15  C   UNL     1       8.154   2.450   4.735  0.00  0.00    +0.014 C 
ATOM     16  C   UNL     1       9.702   0.714   5.647  0.00  0.00    +0.014 C 
ATOM     17  C   UNL     1      10.439   2.177   3.761  0.00  0.00    +0.014 C 
ENDBRANCH   9  14
BRANCH   1  18
ATOM     18  C   UNL     1       0.892   0.760   1.500  0.00  0.00    +0.118 C 
BRANCH  18  20
ATOM     19  C   UNL     1       0.996   1.763  -0.786  0.00  0.00    +0.028 C 
ATOM     20  C   UNL     1       0.127   0.971   0.193  0.00  0.00    +0.102 C 
BRANCH  20  21
ATOM     21  C   UNL     1      -1.141   1.736   0.471  0.00  0.00    -0.030 A 
ATOM     22  C   UNL     1      -1.441   2.132   1.761  0.00  0.00    +0.005 A 
ATOM     23  C   UNL     1      -2.604   2.835   2.016  0.00  0.00    +0.000 A 
ATOM     24  C   UNL     1      -3.467   3.141   0.981  0.00  0.00    +0.000 A 
ATOM     25  C   UNL     1      -3.167   2.746  -0.309  0.00  0.00    +0.000 A 
ATOM     26  C   UNL     1      -2.002   2.047  -0.565  0.00  0.00    +0.005 A 
ENDBRANCH  20  21
BRANCH  20  27
ATOM     27  C   UNL     1      -0.216  -0.367  -0.410  0.00  0.00    +0.366 C 
ATOM     28  O   UNL     1       0.197  -0.660  -1.519  0.00  0.00    -0.245 OA
ATOM     29  O   UNL     1      -0.907  -1.157   0.212  0.00  0.00    -0.245 OA
ENDBRANCH  20  27
ENDBRANCH  18  20
ENDBRANCH   1  18
TORSDOF 5
