REMARK  Name = ZINC04784662
REMARK  3 active torsions:
REMARK  status: ('A' for Active; 'I' for Inactive)
REMARK    1  A    between atoms: C_4  and  C_7
REMARK    2  A    between atoms: N_9  and  N_10
REMARK    3  A    between atoms: C_11  and  C_12
REMARK                            x       y       z     vdW  Elec       q    Type
REMARK                         _______ _______ _______ _____ _____    ______ ____
ROOT
ATOM      1  C   UNL     1      -4.728  -0.674   0.045  0.00  0.00    +0.263 C 
ATOM      2  O   UNL     1      -4.871   0.534   0.053  0.00  0.00    -0.268 OA
ATOM      3  N   UNL     1      -3.490  -1.206   0.031  0.00  0.00    -0.203 N 
ATOM      4  H   UNL     1      -3.376  -2.169   0.025  0.00  0.00    +0.178 HD
ENDROOT
BRANCH   1   8
ATOM      5  C   UNL     1      -8.131  -3.215   0.067  0.00  0.00    +0.000 A 
ATOM      6  C   UNL     1      -8.297  -1.842   0.075  0.00  0.00    +0.001 A 
ATOM      7  C   UNL     1      -7.197  -1.010   0.068  0.00  0.00    +0.013 A 
ATOM      8  C   UNL     1      -5.912  -1.558   0.053  0.00  0.00    +0.038 A 
ATOM      9  C   UNL     1      -5.752  -2.945   0.038  0.00  0.00    +0.013 A 
ATOM     10  C   UNL     1      -6.861  -3.765   0.051  0.00  0.00    +0.001 A 
ENDBRANCH   1   8
BRANCH   3  11
ATOM     11  N   UNL     1      -2.368  -0.367   0.024  0.00  0.00    -0.184 NA
ATOM     12  C   UNL     1      -1.172  -0.881   0.009  0.00  0.00    +0.176 C 
BRANCH  12  13
ATOM     13  C   UNL     1       0.002  -0.004   0.002  0.00  0.00    +0.149 A 
ATOM     14  C   UNL     1       1.306  -0.409  -0.013  0.00  0.00    +0.052 A 
ATOM     15  C   UNL     1       2.092   0.757  -0.014  0.00  0.00    +0.056 A 
ATOM     16  C   UNL     1       1.244   1.807  -0.000  0.00  0.00    +0.165 A 
ATOM     17  O   UNL     1      -0.016   1.344   0.009  0.00  0.00    -0.448 OA
ATOM     18  I   UNL     1       1.803   3.826   0.004  0.00  0.00    -0.001 I 
ENDBRANCH  12  13
ENDBRANCH   3  11
TORSDOF 3
