REMARK  Name = ZINC67357551
REMARK  7 active torsions:
REMARK  status: ('A' for Active; 'I' for Inactive)
REMARK    1  A    between atoms: C_1  and  N_2
REMARK    2  A    between atoms: N_2  and  C_3
REMARK    3  A    between atoms: N_2  and  C_4
REMARK    4  A    between atoms: C_4  and  C_6
REMARK    5  A    between atoms: C_4  and  C_24
REMARK    6  A    between atoms: C_6  and  N_7
REMARK    7  A    between atoms: C_14  and  C_17
REMARK                            x       y       z     vdW  Elec       q    Type
REMARK                         _______ _______ _______ _____ _____    ______ ____
ROOT
ATOM      1  N   UNL     1      -1.769   1.532  -1.167  0.00  0.00    -0.300 N 
ATOM      2  C   UNL     1      -2.260   2.263  -2.188  0.00  0.00    +0.302 C 
ATOM      3  O   UNL     1      -3.008   1.750  -2.998  0.00  0.00    -0.253 OA
ATOM      4  N   UNL     1      -1.922   3.562  -2.310  0.00  0.00    -0.281 N 
ATOM      5  C   UNL     1      -0.928   4.174  -1.414  0.00  0.00    +0.137 C 
ATOM      6  C   UNL     1       0.112   4.903  -2.272  0.00  0.00    +0.179 C 
ATOM      7  O   UNL     1      -0.558   5.786  -3.174  0.00  0.00    -0.369 OA
ATOM      8  C   UNL     1      -1.418   5.128  -4.107  0.00  0.00    +0.168 C 
ATOM      9  C   UNL     1      -2.532   4.409  -3.347  0.00  0.00    +0.145 C 
ATOM     10  H   UNL     1      -1.233   1.958  -0.480  0.00  0.00    +0.150 HD
ENDROOT
BRANCH   8  11
ATOM     11  C   UNL     1      -2.018   6.146  -5.043  0.00  0.00    +0.018 A 
ATOM     12  C   UNL     1      -2.139   7.464  -4.645  0.00  0.00    +0.009 A 
ATOM     13  C   UNL     1      -2.690   8.397  -5.503  0.00  0.00    +0.001 A 
ATOM     14  C   UNL     1      -3.120   8.014  -6.760  0.00  0.00    +0.003 A 
ATOM     15  C   UNL     1      -3.000   6.697  -7.160  0.00  0.00    +0.039 A 
ATOM     16  C   UNL     1      -2.444   5.761  -6.303  0.00  0.00    +0.129 A 
ATOM     17  F   UNL     1      -2.321   4.474  -6.695  0.00  0.00    -0.205 F 
ENDBRANCH   8  11
BRANCH   1  18
ATOM     18  C   UNL     1      -2.045   0.095  -1.097  0.00  0.00    +0.095 C 
BRANCH  18  19
ATOM     19  C   UNL     1      -1.277  -0.514   0.078  0.00  0.00    -0.014 C 
BRANCH  19  20
ATOM     20  C   UNL     1      -1.806   0.050   1.371  0.00  0.00    -0.022 A 
ATOM     21  C   UNL     1      -1.297   1.042   2.141  0.00  0.00    +0.009 A 
ATOM     22  C   UNL     1      -1.960   1.399   3.300  0.00  0.00    +0.008 A 
ATOM     23  C   UNL     1      -3.101   0.746   3.632  0.00  0.00    +0.045 A 
ATOM     24  S   UNL     1      -3.271  -0.409   2.282  0.00  0.00    -0.103 S 
ENDBRANCH  19  20
BRANCH  19  26
ATOM     25  C   UNL     1      -0.837  -2.535  -1.137  0.00  0.00    -0.096 C 
ATOM     26  N   UNL     1      -1.451  -1.973   0.073  0.00  0.00    +0.382 N 
ATOM     27  C   UNL     1      -0.806  -2.547   1.261  0.00  0.00    -0.096 C 
ATOM     28  H   UNL     1      -2.435  -2.194   0.085  0.00  0.00    -0.082 HD
ENDBRANCH  19  26
ENDBRANCH  18  19
ENDBRANCH   1  18
TORSDOF 5
