REMARK  Name = ZINC09275762
REMARK  11 active torsions:
REMARK  status: ('A' for Active; 'I' for Inactive)
REMARK    1  A    between atoms: C_1  and  C_2
REMARK    2  A    between atoms: C_2  and  C_3
REMARK    3  A    between atoms: C_2  and  C_4
REMARK    4  A    between atoms: C_7  and  C_10
REMARK    5  A    between atoms: C_13  and  C_14
REMARK    6  A    between atoms: C_13  and  O_23
REMARK    7  A    between atoms: N_28  and  C_29
REMARK    8  A    between atoms: C_29  and  C_30
REMARK    9  A    between atoms: C_30  and  N_60
REMARK   10  A    between atoms: C_31  and  N_60
REMARK   11  A    between atoms: C_32  and  N_60
REMARK                            x       y       z     vdW  Elec       q    Type
REMARK                         _______ _______ _______ _____ _____    ______ ____
ROOT
ATOM      1  C   UNL     1       2.620   3.946   0.022  0.00  0.00    +0.144 C 
ATOM      2  C   UNL     1       2.679   4.462  -1.397  0.00  0.00    +0.074 C 
ATOM      3  C   UNL     1       2.906   3.718  -2.543  0.00  0.00    +0.168 C 
ATOM      4  C   UNL     1       2.457   5.843  -1.320  0.00  0.00    +0.249 C 
ATOM      5  O   UNL     1       2.430   6.615  -2.263  0.00  0.00    -0.282 OA
ATOM      6  C   UNL     1       2.262   6.204   0.108  0.00  0.00    +0.288 C 
ATOM      7  O   UNL     1       2.048   7.326   0.519  0.00  0.00    -0.266 OA
ATOM      8  N   UNL     1       2.357   5.106   0.879  0.00  0.00    -0.285 N 
ENDROOT
BRANCH   3   9
ATOM      9  C   UNL     1       3.061   4.390  -3.833  0.00  0.00    +0.171 A 
ATOM     10  C   UNL     1       2.432   4.033  -4.988  0.00  0.00    +0.061 A 
ATOM     11  C   UNL     1       2.860   4.944  -5.987  0.00  0.00    +0.021 A 
ATOM     12  C   UNL     1       2.571   5.093  -7.348  0.00  0.00    +0.011 A 
ATOM     13  C   UNL     1       3.166   6.094  -8.061  0.00  0.00    +0.001 A 
ATOM     14  C   UNL     1       4.055   6.965  -7.446  0.00  0.00    +0.004 A 
ATOM     15  C   UNL     1       4.354   6.836  -6.106  0.00  0.00    +0.047 A 
ATOM     16  C   UNL     1       3.761   5.825  -5.360  0.00  0.00    +0.136 A 
ATOM     17  O   UNL     1       3.854   5.458  -4.065  0.00  0.00    -0.452 OA
ENDBRANCH   3   9
BRANCH   1  21
ATOM     18  C   UNL     1      -0.535   1.093   0.408  0.00  0.00    -0.045 A 
ATOM     19  C   UNL     1       0.775   0.665   0.311  0.00  0.00    +0.004 A 
ATOM     20  C   UNL     1       1.796   1.588   0.185  0.00  0.00    +0.006 A 
ATOM     21  C   UNL     1       1.507   2.940   0.161  0.00  0.00    -0.022 A 
ATOM     22  C   UNL     1       0.197   3.368   0.262  0.00  0.00    +0.006 A 
ATOM     23  C   UNL     1      -0.824   2.445   0.389  0.00  0.00    +0.004 A 
BRANCH  18  25
ATOM     24  C   UNL     1      -2.402   0.326   1.849  0.00  0.00    +0.012 C 
ATOM     25  C   UNL     1      -1.649   0.086   0.539  0.00  0.00    +0.013 C 
ATOM     26  C   UNL     1      -2.614   0.236  -0.639  0.00  0.00    +0.012 C 
ENDBRANCH  18  25
ENDBRANCH   1  21
BRANCH   3  27
ATOM     27  O   UNL     1       2.983   2.370  -2.470  0.00  0.00    -0.503 OA
ATOM     28  H   UNL     1       3.150   1.996  -3.382  0.00  0.00    +0.292 HD
ENDBRANCH   3  27
BRANCH   8  29
ATOM     29  C   UNL     1       2.219   5.074   2.338  0.00  0.00    +0.090 C 
BRANCH  29  30
ATOM     30  C   UNL     1       3.591   5.282   2.984  0.00  0.00    -0.060 C 
BRANCH  30  33
ATOM     31  C   UNL     1       4.768   5.207   5.098  0.00  0.00    -0.097 C 
ATOM     32  C   UNL     1       2.663   6.391   4.926  0.00  0.00    -0.097 C 
ATOM     33  N   UNL     1       3.438   5.225   4.453  0.00  0.00    +0.377 N 
ATOM     34  H   UNL     1       2.934   4.366   4.704  0.00  0.00    -0.083 HD
ENDBRANCH  30  33
ENDBRANCH  29  30
ENDBRANCH   8  29
TORSDOF 7
