REMARK  Name = ZINC59365605
REMARK  7 active torsions:
REMARK  status: ('A' for Active; 'I' for Inactive)
REMARK    1  A    between atoms: C_1  and  C_2
REMARK    2  A    between atoms: C_5  and  S_8
REMARK    3  A    between atoms: S_8  and  C_11
REMARK    4  A    between atoms: N_13  and  C_14
REMARK    5  A    between atoms: C_16  and  C_22
REMARK    6  A    between atoms: C_17  and  C_21
REMARK    7  A    between atoms: C_19  and  O_20
REMARK                            x       y       z     vdW  Elec       q    Type
REMARK                         _______ _______ _______ _____ _____    ______ ____
ROOT
ATOM      1  C   UNL     1       1.751  -5.037  -0.035  0.00  0.00    +0.360 C 
ATOM      2  O   UNL     1       2.314  -5.299   1.007  0.00  0.00    -0.249 OA
ATOM      3  N   UNL     1       2.421  -5.117  -1.202  0.00  0.00    -0.263 N 
ATOM      4  H   UNL     1       1.955  -4.970  -2.040  0.00  0.00    +0.157 HD
ENDROOT
BRANCH   3   5
ATOM      5  C   UNL     1       3.791  -5.411  -1.204  0.00  0.00    +0.077 A 
ATOM      6  C   UNL     1       4.318  -6.276  -0.256  0.00  0.00    +0.030 A 
ATOM      7  C   UNL     1       5.669  -6.565  -0.261  0.00  0.00    -0.046 A 
ATOM      8  C   UNL     1       6.499  -5.995  -1.208  0.00  0.00    -0.044 A 
ATOM      9  C   UNL     1       5.981  -5.132  -2.156  0.00  0.00    +0.051 A 
ATOM     10  C   UNL     1       4.626  -4.841  -2.162  0.00  0.00    +0.138 A 
ATOM     11  C   UNL     1       7.972  -6.313  -1.207  0.00  0.00    +0.044 C 
ATOM     12  C   UNL     1       6.240  -7.505   0.770  0.00  0.00    +0.044 C 
BRANCH  10  13
ATOM     13  O   UNL     1       4.114  -3.997  -3.098  0.00  0.00    -0.505 OA
ATOM     14  H   UNL     1       4.115  -3.068  -2.831  0.00  0.00    +0.292 HD
ENDBRANCH  10  13
ENDBRANCH   3   5
BRANCH   1  15
ATOM     15  S   UNL     1       0.057  -4.551  -0.024  0.00  0.00    +0.076 S 
ATOM     16  O   UNL     1      -0.479  -4.978   1.221  0.00  0.00    -0.160 OA
ATOM     17  O   UNL     1      -0.491  -4.961  -1.269  0.00  0.00    -0.160 OA
BRANCH  15  22
ATOM     18  C   UNL     1      -0.074   1.481   0.018  0.00  0.00    +0.044 C 
ATOM     19  C   UNL     1      -0.041  -0.026   0.007  0.00  0.00    -0.050 A 
ATOM     20  C   UNL     1      -0.031  -0.709  -1.194  0.00  0.00    +0.005 A 
ATOM     21  C   UNL     1      -0.001  -2.091  -1.204  0.00  0.00    +0.028 A 
ATOM     22  C   UNL     1       0.020  -2.790  -0.012  0.00  0.00    +0.099 A 
ATOM     23  C   UNL     1       0.011  -2.107   1.190  0.00  0.00    +0.028 A 
ATOM     24  C   UNL     1      -0.015  -0.725   1.200  0.00  0.00    +0.005 A 
ENDBRANCH  15  22
ENDBRANCH   1  15
TORSDOF 4
