REMARK  Name = ZINC49548499
REMARK  3 active torsions:
REMARK  status: ('A' for Active; 'I' for Inactive)
REMARK    1  A    between atoms: C_1  and  N_2
REMARK    2  A    between atoms: C_7  and  C_13
REMARK    3  A    between atoms: C_16  and  C_18
REMARK                            x       y       z     vdW  Elec       q    Type
REMARK                         _______ _______ _______ _____ _____    ______ ____
ROOT
ATOM      1  C   UNL     1      -1.364  -3.679  -1.926  0.00  0.00    +0.114 A 
ATOM      2  C   UNL     1      -1.885  -4.897  -1.681  0.00  0.00    +0.046 A 
ATOM      3  C   UNL     1      -3.225  -4.868  -2.117  0.00  0.00    +0.050 A 
ATOM      4  C   UNL     1      -3.450  -3.621  -2.609  0.00  0.00    +0.137 A 
ATOM      5  O   UNL     1      -2.314  -2.909  -2.481  0.00  0.00    -0.459 OA
ENDROOT
BRANCH   1  12
ATOM      6  C   UNL     1      -0.018   1.461   0.010  0.00  0.00    +0.174 C 
ATOM      7  N   UNL     1       0.002  -0.004   0.002  0.00  0.00    -0.253 N 
ATOM      8  C   UNL     1       0.008  -0.788  -1.085  0.00  0.00    +0.127 A 
ATOM      9  C   UNL     1       0.030  -2.091  -0.659  0.00  0.00    +0.023 A 
ATOM     10  C   UNL     1       0.035  -2.087   0.727  0.00  0.00    +0.140 A 
ATOM     11  N   UNL     1       0.025  -0.838   1.132  0.00  0.00    -0.178 NA
ATOM     12  C   UNL     1       0.048  -3.251  -1.621  0.00  0.00    +0.099 C 
ATOM     13  C   UNL     1       0.740  -2.798  -2.910  0.00  0.00    +0.112 C 
ATOM     14  C   UNL     1       0.276  -1.434  -3.333  0.00  0.00    +0.219 C 
ATOM     15  O   UNL     1       0.151  -1.198  -4.516  0.00  0.00    -0.275 OA
ATOM     16  N   UNL     1      -0.008  -0.460  -2.441  0.00  0.00    -0.270 N 
ATOM     17  H   UNL     1      -0.215   0.441  -2.735  0.00  0.00    +0.156 HD
ENDBRANCH   1  12
BRANCH   4  18
ATOM     18  C   UNL     1      -4.722  -3.130  -3.179  0.00  0.00    +0.037 A 
ATOM     19  C   UNL     1      -5.386  -3.874  -4.155  0.00  0.00    +0.033 A 
ATOM     20  C   UNL     1      -6.574  -3.410  -4.684  0.00  0.00    +0.042 A 
ATOM     21  C   UNL     1      -7.106  -2.208  -4.248  0.00  0.00    +0.021 A 
ATOM     22  C   UNL     1      -6.453  -1.466  -3.281  0.00  0.00    +0.022 A 
ATOM     23  C   UNL     1      -5.267  -1.921  -2.740  0.00  0.00    +0.052 A 
ATOM     24 CL   UNL     1      -4.452  -0.991  -1.522  0.00  0.00    -0.083 Cl
ATOM     25 CL   UNL     1      -7.402  -4.335  -5.898  0.00  0.00    -0.084 Cl
ENDBRANCH   4  18
TORSDOF 2
