REMARK  Name = ZINC63818749
REMARK  3 active torsions:
REMARK  status: ('A' for Active; 'I' for Inactive)
REMARK    1  A    between atoms: C_1  and  N_2
REMARK    2  A    between atoms: C_9  and  C_11
REMARK    3  A    between atoms: N_13  and  C_14
REMARK                            x       y       z     vdW  Elec       q    Type
REMARK                         _______ _______ _______ _____ _____    ______ ____
ROOT
ATOM      1  C   UNL     1       0.147  -3.970   3.966  0.00  0.00    +0.248 C 
ATOM      2  O   UNL     1       0.207  -5.128   3.601  0.00  0.00    -0.270 OA
ATOM      3  N   UNL     1       0.102  -3.678   5.281  0.00  0.00    -0.282 N 
ATOM      4  H   UNL     1       0.127  -2.754   5.574  0.00  0.00    +0.155 HD
ENDROOT
BRANCH   1  13
ATOM      5  C   UNL     1       0.005   1.443  -0.007  0.00  0.00    +0.149 C 
ATOM      6  N   UNL     1       0.069  -0.020  -0.010  0.00  0.00    -0.350 N 
ATOM      7  C   UNL     1       0.137  -0.801  -1.132  0.00  0.00    +0.086 A 
ATOM      8  C   UNL     1       0.183  -2.097  -0.786  0.00  0.00    +0.027 A 
ATOM      9  C   UNL     1       0.143  -2.150   0.678  0.00  0.00    +0.001 A 
ATOM     10  C   UNL     1       0.077  -0.811   1.114  0.00  0.00    +0.049 A 
ATOM     11  C   UNL     1       0.031  -0.532   2.478  0.00  0.00    +0.027 A 
ATOM     12  C   UNL     1       0.053  -1.547   3.388  0.00  0.00    +0.015 A 
ATOM     13  C   UNL     1       0.123  -2.883   2.967  0.00  0.00    +0.038 A 
ATOM     14  C   UNL     1       0.161  -3.185   1.609  0.00  0.00    +0.023 A 
ENDBRANCH   1  13
BRANCH   3  15
ATOM     15  C   UNL     1       0.019  -4.709   6.223  0.00  0.00    +0.032 C 
ATOM     16  C   UNL     1      -1.014  -4.713   7.083  0.00  0.00    +0.027 C 
ATOM     17  C   UNL     1      -1.083  -5.782   8.133  0.00  0.00    +0.160 C 
ATOM     18  C   UNL     1      -0.360  -7.003   7.594  0.00  0.00    -0.018 C 
ATOM     19  C   UNL     1      -1.195  -8.036   7.803  0.00  0.00    +0.025 C 
ATOM     20  C   UNL     1      -2.436  -7.548   8.271  0.00  0.00    +0.106 C 
ATOM     21  N   UNL     1      -2.425  -6.256   8.440  0.00  0.00    -0.279 NA
ATOM     22  C   UNL     1       0.862  -6.911   6.899  0.00  0.00    +0.008 C 
ATOM     23  C   UNL     1       1.059  -5.740   6.227  0.00  0.00    +0.023 C 
ENDBRANCH   3  15
TORSDOF 2
