REMARK  Name = ZINC04668668
REMARK  8 active torsions:
REMARK  status: ('A' for Active; 'I' for Inactive)
REMARK    1  A    between atoms: C_1  and  C_2
REMARK    2  A    between atoms: C_2  and  C_3
REMARK    3  A    between atoms: C_6  and  N_9
REMARK    4  A    between atoms: C_10  and  C_12
REMARK    5  A    between atoms: C_15  and  N_21
REMARK    6  A    between atoms: C_16  and  N_18
REMARK    7  A    between atoms: C_23  and  C_30
REMARK    8  A    between atoms: C_26  and  C_29
REMARK                            x       y       z     vdW  Elec       q    Type
REMARK                         _______ _______ _______ _____ _____    ______ ____
ROOT
ATOM      1  C   UNL     1      -2.872   4.460   6.560  0.00  0.00    +0.039 A 
ATOM      2  C   UNL     1      -3.888   3.688   7.131  0.00  0.00    +0.015 A 
ATOM      3  C   UNL     1      -4.458   4.076   8.322  0.00  0.00    +0.026 A 
ATOM      4  C   UNL     1      -4.031   5.242   8.952  0.00  0.00    +0.060 A 
ATOM      5  C   UNL     1      -3.023   6.016   8.383  0.00  0.00    +0.148 A 
ATOM      6  C   UNL     1      -2.446   5.630   7.195  0.00  0.00    +0.047 A 
ENDROOT
BRANCH   4   7
ATOM      7  N   UNL     1      -4.613   5.635  10.153  0.00  0.00    -0.328 N 
ATOM      8  C   UNL     1      -4.340   4.657  11.214  0.00  0.00    +0.108 C 
ATOM      9  C   UNL     1      -4.867   5.190  12.548  0.00  0.00    +0.003 C 
ATOM     10  C   UNL     1      -6.374   5.439  12.433  0.00  0.00    +0.009 C 
ATOM     11  C   UNL     1      -6.635   6.423  11.289  0.00  0.00    +0.003 C 
ATOM     12  C   UNL     1      -6.056   5.854   9.992  0.00  0.00    +0.108 C 
ATOM     13  C   UNL     1      -5.964   7.762  11.604  0.00  0.00    +0.009 C 
ATOM     14  C   UNL     1      -4.602   4.162  13.650  0.00  0.00    +0.009 C 
ENDBRANCH   4   7
BRANCH   1  16
ATOM     15  N   UNL     1      -2.667   2.915   4.675  0.00  0.00    -0.282 N 
ATOM     16  C   UNL     1      -2.256   4.043   5.286  0.00  0.00    +0.248 C 
ATOM     17  O   UNL     1      -1.375   4.718   4.788  0.00  0.00    -0.270 OA
ATOM     18  H   UNL     1      -3.420   2.418   5.031  0.00  0.00    +0.155 HD
BRANCH  15  22
ATOM     19  C   UNL     1      -0.707   1.562   1.258  0.00  0.00    -0.048 A 
ATOM     20  C   UNL     1       0.005   2.208   2.251  0.00  0.00    +0.005 A 
ATOM     21  C   UNL     1      -0.643   2.663   3.383  0.00  0.00    +0.023 A 
ATOM     22  C   UNL     1      -2.009   2.461   3.528  0.00  0.00    +0.034 A 
ATOM     23  C   UNL     1      -2.721   1.806   2.531  0.00  0.00    +0.023 A 
ATOM     24  C   UNL     1      -2.068   1.359   1.399  0.00  0.00    +0.005 A 
BRANCH  19  26
ATOM     25  C   UNL     1      -0.014   2.170  -1.044  0.00  0.00    +0.009 C 
ATOM     26  C   UNL     1       0.002   1.072   0.022  0.00  0.00    +0.032 C 
ENDBRANCH  19  26
ENDBRANCH  15  22
ENDBRANCH   1  16
BRANCH   5  27
ATOM     27  N   UNL     1      -2.573   7.255   9.056  0.00  0.00    +0.058 N 
ATOM     28  O   UNL     1      -1.691   7.932   8.559  0.00  0.00    -0.126 OA
ATOM     29  O   UNL     1      -3.083   7.596  10.108  0.00  0.00    -0.126 OA
ENDBRANCH   5  27
TORSDOF 5
