REMARK  Name = ZINC15230492
REMARK  4 active torsions:
REMARK  status: ('A' for Active; 'I' for Inactive)
REMARK    1  A    between atoms: C_4  and  C_7
REMARK    2  A    between atoms: C_14  and  N_25
REMARK    3  A    between atoms: C_15  and  C_17
REMARK    4  A    between atoms: C_15  and  C_19
REMARK                            x       y       z     vdW  Elec       q    Type
REMARK                         _______ _______ _______ _____ _____    ______ ____
ROOT
ATOM      1  C   UNL     1      -1.123   3.021  -0.796  0.00  0.00    +0.156 C 
ATOM      2  C   UNL     1      -1.616   2.957   0.661  0.00  0.00    +0.047 C 
ATOM      3  C   UNL     1      -1.282   4.287   1.364  0.00  0.00    +0.008 C 
ATOM      4  C   UNL     1      -0.720   3.861   2.743  0.00  0.00    +0.002 C 
ATOM      5  C   UNL     1       0.109   2.600   2.398  0.00  0.00    +0.027 C 
ATOM      6  C   UNL     1      -0.725   1.876   1.323  0.00  0.00    +0.074 C 
ATOM      7  C   UNL     1       0.209   1.405   0.194  0.00  0.00    +0.199 C 
ATOM      8  O   UNL     1      -0.408   1.800  -1.040  0.00  0.00    -0.345 OA
ENDROOT
BRANCH   1  12
ATOM      9  C   UNL     1      -4.450   3.327  -3.457  0.00  0.00    +0.000 A 
ATOM     10  C   UNL     1      -3.729   4.457  -3.120  0.00  0.00    +0.000 A 
ATOM     11  C   UNL     1      -2.652   4.357  -2.258  0.00  0.00    +0.006 A 
ATOM     12  C   UNL     1      -2.296   3.128  -1.735  0.00  0.00    -0.018 A 
ATOM     13  C   UNL     1      -3.014   1.998  -2.077  0.00  0.00    +0.006 A 
ATOM     14  C   UNL     1      -4.094   2.098  -2.934  0.00  0.00    +0.000 A 
ENDBRANCH   1  12
BRANCH   7  15
ATOM     15  C   UNL     1       1.558   2.064   0.331  0.00  0.00    -0.000 A 
ATOM     16  C   UNL     1       1.867   3.170  -0.437  0.00  0.00    +0.007 A 
ATOM     17  C   UNL     1       3.103   3.777  -0.309  0.00  0.00    +0.000 A 
ATOM     18  C   UNL     1       4.032   3.272   0.581  0.00  0.00    +0.000 A 
ATOM     19  C   UNL     1       3.724   2.162   1.346  0.00  0.00    +0.000 A 
ATOM     20  C   UNL     1       2.487   1.558   1.221  0.00  0.00    +0.007 A 
ENDBRANCH   7  15
BRANCH   6  21
ATOM     21  N   UNL     1      -1.503   0.766   1.889  0.00  0.00    -0.288 NA
ATOM     22  C   UNL     1      -2.399   0.182   0.880  0.00  0.00    +0.113 C 
ATOM     23  C   UNL     1      -3.145  -1.005   1.494  0.00  0.00    +0.175 C 
ATOM     24  O   UNL     1      -3.852  -0.568   2.657  0.00  0.00    -0.377 OA
ATOM     25  C   UNL     1      -3.011   0.006   3.661  0.00  0.00    +0.175 C 
ATOM     26  C   UNL     1      -2.263   1.204   3.069  0.00  0.00    +0.113 C 
ENDBRANCH   6  21
BRANCH   7  27
ATOM     27  C   UNL     1       0.357  -0.059   0.239  0.00  0.00    +0.105 C 
ATOM     28  N   UNL     1       0.470  -1.189   0.274  0.00  0.00    -0.193 NA
ENDBRANCH   7  27
TORSDOF 4
