REMARK  Name = ZINC43264681
REMARK  4 active torsions:
REMARK  status: ('A' for Active; 'I' for Inactive)
REMARK    1  A    between atoms: C_4  and  S_7
REMARK    2  A    between atoms: S_7  and  N_10
REMARK    3  A    between atoms: N_10  and  C_11
REMARK    4  A    between atoms: N_19  and  C_20
REMARK                            x       y       z     vdW  Elec       q    Type
REMARK                         _______ _______ _______ _____ _____    ______ ____
ROOT
ATOM      1  C   UNL     1       3.043  -0.857   2.350  0.00  0.00    +0.079 C 
ATOM      2  C   UNL     1       1.738  -0.773   3.146  0.00  0.00    +0.039 C 
ATOM      3  C   UNL     1       1.624  -1.995   4.063  0.00  0.00    +0.111 C 
ATOM      4  N   UNL     1       2.833  -2.077   4.893  0.00  0.00    -0.285 N 
ATOM      5  C   UNL     1       4.146  -2.072   4.233  0.00  0.00    +0.111 C 
ATOM      6  C   UNL     1       4.231  -0.850   3.314  0.00  0.00    +0.039 C 
ATOM      7  C   UNL     1       2.741  -2.154   6.236  0.00  0.00    +0.307 C 
ATOM      8  O   UNL     1       3.742  -2.313   6.906  0.00  0.00    -0.252 OA
ATOM      9  N   UNL     1       1.537  -2.056   6.835  0.00  0.00    -0.265 N 
ATOM     10  H   UNL     1       0.731  -2.012   6.298  0.00  0.00    +0.157 HD
ENDROOT
BRANCH   9  11
ATOM     11  C   UNL     1       1.452  -2.017   8.233  0.00  0.00    +0.106 A 
ATOM     12  C   UNL     1       2.140  -2.950   9.000  0.00  0.00    +0.147 A 
ATOM     13  C   UNL     1       2.053  -2.907  10.380  0.00  0.00    +0.040 A 
ATOM     14  C   UNL     1       1.283  -1.939  10.997  0.00  0.00    +0.006 A 
ATOM     15  C   UNL     1       0.597  -1.009  10.238  0.00  0.00    +0.040 A 
ATOM     16  C   UNL     1       0.683  -1.041   8.857  0.00  0.00    +0.147 A 
ATOM     17  F   UNL     1       0.017  -0.129   8.116  0.00  0.00    -0.203 F 
ATOM     18  F   UNL     1       2.892  -3.897   8.398  0.00  0.00    -0.203 F 
ENDBRANCH   9  11
BRANCH   1  19
ATOM     19  N   UNL     1       3.139   0.294   1.448  0.00  0.00    -0.187 NA
ATOM     20  H   UNL     1       3.499   1.134   1.770  0.00  0.00    +0.148 HD
BRANCH  19  21
ATOM     21  S   UNL     1       2.632   0.159  -0.123  0.00  0.00    +0.059 S 
ATOM     22  O   UNL     1       3.223  -1.026  -0.640  0.00  0.00    -0.153 OA
ATOM     23  O   UNL     1       2.827   1.432  -0.723  0.00  0.00    -0.153 OA
BRANCH  21  27
ATOM     24  C   UNL     1      -1.837  -0.559  -0.033  0.00  0.00    +0.000 A 
ATOM     25  C   UNL     1      -1.345   0.732  -0.086  0.00  0.00    +0.002 A 
ATOM     26  C   UNL     1       0.020   0.951  -0.113  0.00  0.00    +0.028 A 
ATOM     27  C   UNL     1       0.893  -0.121  -0.087  0.00  0.00    +0.105 A 
ATOM     28  C   UNL     1       0.401  -1.411  -0.033  0.00  0.00    +0.028 A 
ATOM     29  C   UNL     1      -0.964  -1.631  -0.007  0.00  0.00    +0.002 A 
ENDBRANCH  21  27
ENDBRANCH  19  21
ENDBRANCH   1  19
TORSDOF 4
