REMARK  Name = ZINC63362767
REMARK  9 active torsions:
REMARK  status: ('A' for Active; 'I' for Inactive)
REMARK    1  A    between atoms: C_1  and  C_2
REMARK    2  A    between atoms: C_2  and  C_3
REMARK    3  A    between atoms: C_3  and  N_4
REMARK    4  A    between atoms: C_5  and  C_7
REMARK    5  A    between atoms: C_7  and  C_9
REMARK    6  A    between atoms: C_7  and  N_10
REMARK    7  A    between atoms: C_13  and  C_31
REMARK    8  A    between atoms: C_19  and  O_24
REMARK    9  A    between atoms: O_24  and  C_25
REMARK                            x       y       z     vdW  Elec       q    Type
REMARK                         _______ _______ _______ _____ _____    ______ ____
ROOT
ATOM      1  N   UNL     1      -3.925  -4.702   0.014  0.00  0.00    -0.212 N 
ATOM      2  C   UNL     1      -4.436  -5.489   0.984  0.00  0.00    +0.249 C 
ATOM      3  O   UNL     1      -3.856  -5.922   1.957  0.00  0.00    -0.273 OA
ATOM      4  C   UNL     1      -5.882  -5.717   0.605  0.00  0.00    +0.136 C 
ATOM      5  C   UNL     1      -6.163  -7.209   0.427  0.00  0.00    +0.139 C 
ATOM      6  C   UNL     1      -6.407  -7.450  -1.055  0.00  0.00    -0.034 C 
ATOM      7  C   UNL     1      -5.535  -8.384  -1.428  0.00  0.00    +0.003 A 
ATOM      8  C   UNL     1      -5.327  -9.073  -2.710  0.00  0.00    +0.055 A 
ATOM      9  C   UNL     1      -4.318  -9.987  -2.755  0.00  0.00    +0.121 A 
ATOM     10  C   UNL     1      -3.490 -10.294  -1.665  0.00  0.00    +0.047 A 
ATOM     11  C   UNL     1      -3.597  -9.722  -0.439  0.00  0.00    +0.029 A 
ATOM     12  C   UNL     1      -4.657  -8.719  -0.265  0.00  0.00    +0.043 A 
ATOM     13  N   UNL     1      -5.006  -8.028   0.796  0.00  0.00    -0.375 N 
ATOM     14  C   UNL     1      -7.412  -6.679  -1.873  0.00  0.00    +0.052 C 
ATOM     15  C   UNL     1      -7.143  -5.182  -1.622  0.00  0.00    +0.115 C 
ATOM     16  N   UNL     1      -5.991  -5.077  -0.722  0.00  0.00    -0.269 N 
ATOM     17  C   UNL     1      -4.833  -4.437  -0.935  0.00  0.00    +0.313 C 
ATOM     18  O   UNL     1      -4.628  -3.704  -1.883  0.00  0.00    -0.252 OA
ATOM     19  C   UNL     1      -6.832  -5.073   1.617  0.00  0.00    +0.044 C 
ATOM     20  H   UNL     1      -4.579  -8.049   1.667  0.00  0.00    +0.160 HD
ENDROOT
BRANCH   1  21
ATOM     21  C   UNL     1      -2.551  -4.195   0.004  0.00  0.00    +0.168 C 
ATOM     22  C   UNL     1      -1.835  -4.688  -1.255  0.00  0.00    +0.038 C 
BRANCH  21  24
ATOM     23  N   UNL     1      -1.413  -1.998   0.005  0.00  0.00    -0.314 N 
ATOM     24  C   UNL     1      -2.571  -2.688   0.012  0.00  0.00    +0.234 C 
ATOM     25  O   UNL     1      -3.630  -2.096   0.025  0.00  0.00    -0.274 OA
ATOM     26  H   UNL     1      -0.567  -2.472  -0.006  0.00  0.00    +0.149 HD
BRANCH  23  27
ATOM     27  C   UNL     1      -1.433  -0.534   0.013  0.00  0.00    +0.104 C 
BRANCH  27  29
ATOM     28  C   UNL     1      -0.019   1.526   0.010  0.00  0.00    +0.005 C 
ATOM     29  C   UNL     1       0.002  -0.004   0.002  0.00  0.00    +0.015 C 
ENDBRANCH  27  29
ENDBRANCH  23  27
ENDBRANCH  21  24
ENDBRANCH   1  21
BRANCH   9  30
ATOM     30  O   UNL     1      -4.101 -10.641  -3.926  0.00  0.00    -0.495 OA
ATOM     31  C   UNL     1      -3.038 -11.595  -3.949  0.00  0.00    +0.277 C 
ENDBRANCH   9  30
TORSDOF 5
