REMARK  Name = ZINC12861452
REMARK  5 active torsions:
REMARK  status: ('A' for Active; 'I' for Inactive)
REMARK    1  A    between atoms: C_1  and  N_2
REMARK    2  A    between atoms: N_2  and  C_3
REMARK    3  A    between atoms: N_5  and  C_6
REMARK    4  A    between atoms: C_7  and  C_19
REMARK    5  A    between atoms: N_10  and  C_11
REMARK                            x       y       z     vdW  Elec       q    Type
REMARK                         _______ _______ _______ _____ _____    ______ ____
ROOT
ATOM      1  C   UNL     1       2.146   0.640  -0.015  0.00  0.00    +0.175 A 
ATOM      2  C   UNL     1       1.317   1.767  -0.001  0.00  0.00    +0.115 A 
ATOM      3  C   UNL     1      -0.016   1.300   0.009  0.00  0.00    +0.156 A 
ATOM      4  N   UNL     1       0.002  -0.004   0.002  0.00  0.00    -0.172 NA
ATOM      5  N   UNL     1       1.328  -0.451  -0.013  0.00  0.00    -0.213 N 
ENDROOT
BRANCH   5   6
ATOM      6  C   UNL     1       1.743  -1.788  -0.024  0.00  0.00    +0.069 A 
ATOM      7  C   UNL     1       1.015  -2.749   0.667  0.00  0.00    +0.029 A 
ATOM      8  C   UNL     1       1.426  -4.067   0.654  0.00  0.00    +0.023 A 
ATOM      9  C   UNL     1       2.563  -4.432  -0.046  0.00  0.00    +0.059 A 
ATOM     10  C   UNL     1       3.291  -3.477  -0.735  0.00  0.00    +0.061 A 
ATOM     11  C   UNL     1       2.880  -2.158  -0.731  0.00  0.00    +0.049 A 
ATOM     12 CL   UNL     1       4.716  -3.939  -1.612  0.00  0.00    -0.082 Cl
ATOM     13 CL   UNL     1       3.077  -6.090  -0.059  0.00  0.00    -0.082 Cl
ENDBRANCH   5   6
BRANCH   1  18
ATOM     14  C   UNL     1       6.256   0.620   0.083  0.00  0.00    +0.129 C 
ATOM     15  N   UNL     1       5.511   0.630  -1.179  0.00  0.00    -0.327 N 
ATOM     16  C   UNL     1       6.231   0.633  -2.454  0.00  0.00    +0.129 C 
ATOM     17  C   UNL     1       4.147   0.636  -1.166  0.00  0.00    +0.186 C 
ATOM     18  N   UNL     1       3.504   0.633  -0.028  0.00  0.00    -0.220 NA
ENDBRANCH   1  18
BRANCH   2  19
ATOM     19  C   UNL     1       1.740   3.135   0.002  0.00  0.00    +0.104 C 
ATOM     20  N   UNL     1       2.076   4.221   0.005  0.00  0.00    -0.191 NA
ENDBRANCH   2  19
TORSDOF 3
