REMARK  Name = ZINC66287565
REMARK  7 active torsions:
REMARK  status: ('A' for Active; 'I' for Inactive)
REMARK    1  A    between atoms: C_1  and  C_2
REMARK    2  A    between atoms: C_8  and  N_10
REMARK    3  A    between atoms: N_10  and  C_11
REMARK    4  A    between atoms: C_12  and  C_14
REMARK    5  A    between atoms: N_22  and  C_23
REMARK    6  A    between atoms: N_22  and  C_24
REMARK    7  A    between atoms: C_24  and  C_25
REMARK                            x       y       z     vdW  Elec       q    Type
REMARK                         _______ _______ _______ _____ _____    ______ ____
ROOT
ATOM      1  C   UNL     1      -0.249   1.992   3.635  0.00  0.00    +0.078 C 
ATOM      2  C   UNL     1      -1.696   2.418   3.897  0.00  0.00    +0.032 C 
ATOM      3  C   UNL     1      -1.912   2.572   5.406  0.00  0.00    +0.110 C 
ATOM      4  N   UNL     1      -0.905   3.500   5.936  0.00  0.00    -0.285 N 
ATOM      5  C   UNL     1       0.514   3.234   5.663  0.00  0.00    +0.110 C 
ATOM      6  C   UNL     1       0.704   3.072   4.152  0.00  0.00    +0.032 C 
ATOM      7  C   UNL     1      -1.275   4.577   6.658  0.00  0.00    +0.305 C 
ATOM      8  O   UNL     1      -2.427   4.963   6.627  0.00  0.00    -0.252 OA
ATOM      9  N   UNL     1      -0.367   5.224   7.415  0.00  0.00    -0.284 N 
ATOM     10  C   UNL     1       0.967   4.652   7.610  0.00  0.00    +0.134 C 
ENDROOT
BRANCH   1  13
ATOM     11  N   UNL     1      -0.484   0.687   1.546  0.00  0.00    -0.301 N 
ATOM     12  C   UNL     1      -0.182   0.453   0.132  0.00  0.00    +0.132 C 
ATOM     13  C   UNL     1      -0.041   1.806   2.154  0.00  0.00    +0.219 C 
ATOM     14  O   UNL     1       0.524   2.663   1.508  0.00  0.00    -0.275 OA
BRANCH  11  21
ATOM     15  C   UNL     1       0.817  -1.585   2.785  0.00  0.00    +0.009 C 
ATOM     16  C   UNL     1      -0.596  -1.666   2.203  0.00  0.00    +0.006 C 
ATOM     17  C   UNL     1      -1.414  -2.692   2.990  0.00  0.00    +0.005 C 
ATOM     18  C   UNL     1      -2.826  -2.773   2.408  0.00  0.00    +0.000 C 
ATOM     19  C   UNL     1      -3.498  -1.401   2.506  0.00  0.00    +0.002 C 
ATOM     20  C   UNL     1      -2.680  -0.376   1.718  0.00  0.00    +0.023 C 
ATOM     21  C   UNL     1      -1.267  -0.295   2.300  0.00  0.00    +0.079 C 
ENDBRANCH  11  21
ENDBRANCH   1  13
BRANCH   9  22
ATOM     22  C   UNL     1      -0.715   6.501   8.044  0.00  0.00    +0.144 C 
BRANCH  22  23
ATOM     23  C   UNL     1      -1.299   6.246   9.409  0.00  0.00    -0.030 A 
ATOM     24  C   UNL     1      -2.662   6.061   9.555  0.00  0.00    +0.005 A 
ATOM     25  C   UNL     1      -3.197   5.828  10.807  0.00  0.00    +0.000 A 
ATOM     26  C   UNL     1      -2.371   5.778  11.914  0.00  0.00    +0.000 A 
ATOM     27  C   UNL     1      -1.009   5.962  11.769  0.00  0.00    +0.000 A 
ATOM     28  C   UNL     1      -0.472   6.191  10.515  0.00  0.00    +0.005 A 
ENDBRANCH  22  23
ENDBRANCH   9  22
TORSDOF 4
