REMARK  Name = ZINC05664449
REMARK  3 active torsions:
REMARK  status: ('A' for Active; 'I' for Inactive)
REMARK    1  A    between atoms: C_4  and  C_7
REMARK    2  A    between atoms: C_8  and  C_9
REMARK    3  A    between atoms: N_11  and  C_12
REMARK                            x       y       z     vdW  Elec       q    Type
REMARK                         _______ _______ _______ _____ _____    ______ ____
ROOT
ATOM      1  C   UNL     1       2.438   0.586  -1.097  0.00  0.00    +0.201 C 
ATOM      2  C   UNL     1       1.734  -0.676  -0.674  0.00  0.00    +0.116 C 
ATOM      3  N   UNL     1       0.513  -0.678  -0.322  0.00  0.00    -0.256 NA
ATOM      4  C   UNL     1      -0.322   0.399  -0.296  0.00  0.00    +0.085 A 
ATOM      5  C   UNL     1      -1.632   0.199  -0.757  0.00  0.00    +0.029 A 
ATOM      6  C   UNL     1      -2.539   1.233  -0.762  0.00  0.00    +0.002 A 
ATOM      7  C   UNL     1      -2.166   2.483  -0.298  0.00  0.00    +0.002 A 
ATOM      8  C   UNL     1      -0.883   2.695   0.157  0.00  0.00    +0.025 A 
ATOM      9  C   UNL     1       0.054   1.659   0.161  0.00  0.00    +0.059 A 
ATOM     10  N   UNL     1       1.327   1.963   0.627  0.00  0.00    -0.282 N 
ATOM     11  C   UNL     1       2.463   1.527   0.081  0.00  0.00    +0.243 C 
ATOM     12  O   UNL     1       3.527   1.891   0.537  0.00  0.00    -0.273 OA
ATOM     13  H   UNL     1       1.394   2.535   1.407  0.00  0.00    +0.155 HD
ENDROOT
BRANCH   1  16
ATOM     14  C   UNL     1       1.957   0.804  -3.475  0.00  0.00    +0.238 C 
ATOM     15  O   UNL     1       2.773  -0.072  -3.691  0.00  0.00    -0.271 OA
ATOM     16  N   UNL     1       1.717   1.205  -2.211  0.00  0.00    -0.296 N 
ATOM     17  H   UNL     1       1.066   1.904  -2.039  0.00  0.00    +0.150 HD
BRANCH  14  19
ATOM     18  C   UNL     1       1.570   1.123  -5.860  0.00  0.00    +0.013 C 
ATOM     19  C   UNL     1       1.235   1.424  -4.589  0.00  0.00    +0.068 C 
BRANCH  18  23
ATOM     20  C   UNL     1       5.126  -1.048  -6.659  0.00  0.00    +0.000 A 
ATOM     21  C   UNL     1       3.957  -1.374  -7.323  0.00  0.00    +0.001 A 
ATOM     22  C   UNL     1       2.797  -0.673  -7.069  0.00  0.00    +0.008 A 
ATOM     23  C   UNL     1       2.804   0.369  -6.137  0.00  0.00    -0.025 A 
ATOM     24  C   UNL     1       3.991   0.696  -5.473  0.00  0.00    +0.008 A 
ATOM     25  C   UNL     1       5.141  -0.018  -5.734  0.00  0.00    +0.001 A 
ENDBRANCH  18  23
ENDBRANCH  14  19
ENDBRANCH   1  16
TORSDOF 3
