REMARK  Name = ZINC00611772
REMARK  5 active torsions:
REMARK  status: ('A' for Active; 'I' for Inactive)
REMARK    1  A    between atoms: C_1  and  C_2
REMARK    2  A    between atoms: C_4  and  C_21
REMARK    3  A    between atoms: C_6  and  C_8
REMARK    4  A    between atoms: N_10  and  C_11
REMARK    5  A    between atoms: C_12  and  C_19
REMARK                            x       y       z     vdW  Elec       q    Type
REMARK                         _______ _______ _______ _____ _____    ______ ____
ROOT
ATOM      1  C   UNL     1       1.147   1.655   0.000  0.00  0.00    +0.249 C 
ATOM      2  O   UNL     1       1.130   2.871   0.007  0.00  0.00    -0.270 OA
ATOM      3  N   UNL     1      -0.011   0.966   0.007  0.00  0.00    -0.275 N 
ATOM      4  H   UNL     1       0.002  -0.004   0.002  0.00  0.00    +0.156 HD
ENDROOT
BRANCH   1  10
ATOM      5  C   UNL     1       3.693  -2.636  -0.048  0.00  0.00    +0.044 C 
ATOM      6  C   UNL     1       3.666  -1.129  -0.039  0.00  0.00    -0.049 A 
ATOM      7  C   UNL     1       4.853  -0.418  -0.046  0.00  0.00    +0.006 A 
ATOM      8  C   UNL     1       4.838   0.966  -0.038  0.00  0.00    -0.049 A 
ATOM      9  C   UNL     1       3.638   1.645  -0.024  0.00  0.00    +0.016 A 
ATOM     10  C   UNL     1       2.437   0.934  -0.016  0.00  0.00    +0.038 A 
ATOM     11  C   UNL     1       2.459  -0.462  -0.018  0.00  0.00    +0.016 A 
ATOM     12  C   UNL     1       6.136   1.732  -0.047  0.00  0.00    +0.044 C 
ENDBRANCH   1  10
BRANCH   3  13
ATOM     13  C   UNL     1      -1.221   1.643   0.017  0.00  0.00    +0.090 A 
ATOM     14  C   UNL     1      -2.501   1.116   0.020  0.00  0.00    +0.084 A 
ATOM     15  C   UNL     1      -3.621   2.057   0.031  0.00  0.00    -0.018 A 
ATOM     16  C   UNL     1      -3.274   3.357   0.035  0.00  0.00    -0.004 A 
ATOM     17  S   UNL     1      -1.498   3.351   0.035  0.00  0.00    -0.077 S 
ATOM     18  C   UNL     1      -4.477   4.261   0.043  0.00  0.00    +0.043 C 
ATOM     19  C   UNL     1      -5.649   3.353  -0.392  0.00  0.00    +0.010 C 
ATOM     20  C   UNL     1      -5.147   1.962   0.043  0.00  0.00    +0.037 C 
BRANCH  14  21
ATOM     21  C   UNL     1      -2.721  -0.299   0.012  0.00  0.00    +0.102 C 
ATOM     22  N   UNL     1      -2.896  -1.421   0.006  0.00  0.00    -0.191 NA
ENDBRANCH  14  21
ENDBRANCH   3  13
TORSDOF 3
