REMARK  Name = ZINC64411077
REMARK  6 active torsions:
REMARK  status: ('A' for Active; 'I' for Inactive)
REMARK    1  A    between atoms: C_1  and  C_2
REMARK    2  A    between atoms: C_2  and  O_3
REMARK    3  A    between atoms: O_3  and  C_4
REMARK    4  A    between atoms: C_4  and  C_6
REMARK    5  A    between atoms: C_13  and  C_15
REMARK    6  A    between atoms: C_18  and  C_20
REMARK                            x       y       z     vdW  Elec       q    Type
REMARK                         _______ _______ _______ _____ _____    ______ ____
ROOT
ATOM      1  C   UNL     1       2.494  -2.479  -7.135  0.00  0.00    +0.133 A 
ATOM      2  C   UNL     1       3.054  -1.769  -8.164  0.00  0.00    +0.080 A 
ATOM      3  S   UNL     1       3.708  -2.981  -9.126  0.00  0.00    -0.077 S 
ATOM      4  C   UNL     1       3.261  -4.320  -8.216  0.00  0.00    +0.105 A 
ATOM      5  N   UNL     1       2.628  -3.807  -7.197  0.00  0.00    -0.237 NA
ENDROOT
BRANCH   4   6
ATOM      6  C   UNL     1       3.534  -5.773  -8.507  0.00  0.00    +0.159 C 
ATOM      7  C   UNL     1       2.669  -6.247  -9.653  0.00  0.00    +0.014 C 
ATOM      8  C   UNL     1       3.521  -6.642 -10.627  0.00  0.00    -0.004 A 
ATOM      9  C   UNL     1       3.308  -7.194 -11.970  0.00  0.00    +0.010 A 
ATOM     10  C   UNL     1       4.383  -7.502 -12.731  0.00  0.00    +0.001 A 
ATOM     11  C   UNL     1       5.693  -7.307 -12.269  0.00  0.00    +0.002 A 
ATOM     12  C   UNL     1       5.968  -6.805 -11.047  0.00  0.00    +0.026 A 
ATOM     13  C   UNL     1       4.913  -6.446 -10.163  0.00  0.00    +0.043 A 
ATOM     14  N   UNL     1       4.922  -5.949  -8.948  0.00  0.00    -0.372 N 
ATOM     15  H   UNL     1       5.713  -5.734  -8.429  0.00  0.00    +0.161 HD
ENDBRANCH   4   6
BRANCH   1  22
ATOM     16  C   UNL     1       1.810  -1.912  -2.495  0.00  0.00    +0.115 C 
ATOM     17  C   UNL     1       2.174  -3.377  -2.244  0.00  0.00    +0.018 C 
ATOM     18  C   UNL     1       2.953  -3.924  -3.442  0.00  0.00    +0.020 C 
ATOM     19  C   UNL     1       2.073  -3.853  -4.694  0.00  0.00    +0.108 C 
ATOM     20  N   UNL     1       1.600  -2.472  -4.861  0.00  0.00    -0.295 N 
ATOM     21  C   UNL     1       0.917  -1.817  -3.737  0.00  0.00    +0.122 C 
ATOM     22  C   UNL     1       1.789  -1.817  -6.024  0.00  0.00    +0.265 C 
ATOM     23  O   UNL     1       1.378  -0.680  -6.156  0.00  0.00    -0.268 OA
BRANCH  16  24
ATOM     24  C   UNL     1       1.071  -1.365  -1.301  0.00  0.00    +0.312 C 
ATOM     25  O   UNL     1       0.858  -2.074  -0.346  0.00  0.00    -0.250 OA
BRANCH  24  26
ATOM     26  O   UNL     1       0.649  -0.091  -1.299  0.00  0.00    -0.465 OA
BRANCH  26  28
ATOM     27  C   UNL     1      -0.444   1.827  -0.315  0.00  0.00    +0.048 C 
ATOM     28  C   UNL     1      -0.045   0.361  -0.134  0.00  0.00    +0.229 C 
ENDBRANCH  26  28
ENDBRANCH  24  26
ENDBRANCH  16  24
ENDBRANCH   1  22
TORSDOF 5
