REMARK  Name = ZINC56134812
REMARK  7 active torsions:
REMARK  status: ('A' for Active; 'I' for Inactive)
REMARK    1  A    between atoms: C_1  and  C_2
REMARK    2  A    between atoms: C_2  and  O_3
REMARK    3  A    between atoms: O_3  and  C_4
REMARK    4  A    between atoms: N_6  and  C_7
REMARK    5  A    between atoms: C_11  and  N_14
REMARK    6  A    between atoms: C_12  and  C_13
REMARK    7  A    between atoms: C_15  and  C_17
REMARK                            x       y       z     vdW  Elec       q    Type
REMARK                         _______ _______ _______ _____ _____    ______ ____
ROOT
ATOM      1  N   UNL     1       3.161  -6.185  -4.674  0.00  0.00    -0.280 N 
ATOM      2  C   UNL     1       2.789  -7.376  -5.184  0.00  0.00    +0.265 C 
ATOM      3  O   UNL     1       1.883  -8.001  -4.671  0.00  0.00    -0.268 OA
ATOM      4  H   UNL     1       3.929  -5.719  -5.041  0.00  0.00    +0.155 HD
ENDROOT
BRANCH   2   5
ATOM      5  C   UNL     1       3.486  -7.923  -6.372  0.00  0.00    +0.106 A 
ATOM      6  C   UNL     1       4.500  -7.209  -6.925  0.00  0.00    +0.082 A 
ATOM      7  C   UNL     1       5.183  -7.712  -8.063  0.00  0.00    +0.190 A 
ATOM      8  O   UNL     1       6.097  -7.088  -8.576  0.00  0.00    -0.287 OA
ATOM      9  C   UNL     1       4.754  -9.012  -8.605  0.00  0.00    +0.045 A 
ATOM     10  C   UNL     1       5.376  -9.575  -9.720  0.00  0.00    +0.014 A 
ATOM     11  C   UNL     1       4.950 -10.784 -10.194  0.00  0.00    +0.001 A 
ATOM     12  C   UNL     1       3.905 -11.457  -9.575  0.00  0.00    +0.002 A 
ATOM     13  C   UNL     1       3.277 -10.920  -8.473  0.00  0.00    +0.026 A 
ATOM     14  C   UNL     1       3.695  -9.689  -7.972  0.00  0.00    +0.051 A 
ATOM     15  N   UNL     1       3.091  -9.131  -6.870  0.00  0.00    -0.350 N 
ATOM     16  H   UNL     1       2.364  -9.605  -6.438  0.00  0.00    +0.166 HD
ENDBRANCH   2   5
BRANCH   1  21
ATOM     17  C   UNL     1       1.566  -3.692  -2.488  0.00  0.00    +0.041 A 
ATOM     18  C   UNL     1       1.013  -4.515  -1.515  0.00  0.00    +0.024 A 
ATOM     19  C   UNL     1       1.173  -5.885  -1.595  0.00  0.00    +0.004 A 
ATOM     20  C   UNL     1       1.885  -6.441  -2.641  0.00  0.00    +0.024 A 
ATOM     21  C   UNL     1       2.441  -5.622  -3.616  0.00  0.00    +0.038 A 
ATOM     22  C   UNL     1       2.277  -4.246  -3.542  0.00  0.00    -0.008 A 
ATOM     23  C   UNL     1       2.874  -3.356  -4.601  0.00  0.00    +0.047 C 
BRANCH  17  26
ATOM     24  C   UNL     1       0.352  -1.787  -1.738  0.00  0.00    +0.405 C 
ATOM     25  O   UNL     1      -0.507  -2.523  -1.295  0.00  0.00    -0.226 OA
ATOM     26  N   UNL     1       1.403  -2.304  -2.406  0.00  0.00    -0.251 N 
ATOM     27  H   UNL     1       2.045  -1.714  -2.831  0.00  0.00    +0.158 HD
BRANCH  24  28
ATOM     28  O   UNL     1       0.256  -0.456  -1.562  0.00  0.00    -0.450 OA
BRANCH  28  30
ATOM     29  C   UNL     1      -0.821   1.548  -0.746  0.00  0.00    +0.048 C 
ATOM     30  C   UNL     1      -0.884   0.022  -0.845  0.00  0.00    +0.230 C 
ENDBRANCH  28  30
ENDBRANCH  24  28
ENDBRANCH  17  26
ENDBRANCH   1  21
TORSDOF 5
