REMARK  Name = ZINC09034165
REMARK  11 active torsions:
REMARK  status: ('A' for Active; 'I' for Inactive)
REMARK    1  A    between atoms: C_1  and  C_2
REMARK    2  A    between atoms: C_3  and  C_25
REMARK    3  A    between atoms: C_15  and  C_19
REMARK    4  A    between atoms: C_16  and  N_18
REMARK    5  A    between atoms: C_19  and  O_21
REMARK    6  A    between atoms: O_21  and  C_22
REMARK    7  A    between atoms: C_22  and  C_23
REMARK    8  A    between atoms: C_22  and  C_24
REMARK    9  A    between atoms: C_25  and  O_27
REMARK   10  A    between atoms: O_27  and  C_28
REMARK   11  A    between atoms: C_28  and  C_29
REMARK                            x       y       z     vdW  Elec       q    Type
REMARK                         _______ _______ _______ _____ _____    ______ ____
ROOT
ATOM      1  C   UNL     1      -6.419  -4.497  -0.245  0.00  0.00    +0.087 C 
ATOM      2  C   UNL     1      -5.233  -3.591  -0.452  0.00  0.00    +0.116 C 
ATOM      3  C   UNL     1      -5.132  -2.477   0.287  0.00  0.00    +0.098 C 
ATOM      4  C   UNL     1      -3.965  -1.548   0.121  0.00  0.00    +0.145 C 
ATOM      5  C   UNL     1      -4.394  -0.294  -0.598  0.00  0.00    -0.001 A 
ATOM      6  C   UNL     1      -4.920  -0.061  -1.849  0.00  0.00    +0.022 A 
ATOM      7  C   UNL     1      -5.222   1.232  -2.242  0.00  0.00    +0.018 A 
ATOM      8  C   UNL     1      -4.992   2.285  -1.375  0.00  0.00    +0.017 A 
ATOM      9  C   UNL     1      -4.464   2.055  -0.122  0.00  0.00    +0.025 A 
ATOM     10  C   UNL     1      -4.158   0.756   0.281  0.00  0.00    +0.038 A 
ATOM     11  N   UNL     1      -3.624   0.274   1.477  0.00  0.00    -0.284 N 
ATOM     12  C   UNL     1      -3.479  -1.063   1.466  0.00  0.00    +0.237 C 
ATOM     13  O   UNL     1      -3.041  -1.749   2.365  0.00  0.00    -0.274 OA
ATOM     14 BR   UNL     1      -5.947   1.556  -3.958  0.00  0.00    -0.050 Br
ATOM     15  C   UNL     1      -2.853  -2.228  -0.625  0.00  0.00    +0.117 C 
ATOM     16  C   UNL     1      -3.090  -3.373  -1.319  0.00  0.00    +0.195 C 
ATOM     17  O   UNL     1      -4.313  -3.926  -1.369  0.00  0.00    -0.446 OA
ATOM     18  H   UNL     1      -3.385   0.838   2.229  0.00  0.00    +0.155 HD
ENDROOT
BRANCH  16  19
ATOM     19  N   UNL     1      -2.057  -3.977  -1.983  0.00  0.00    -0.329 N 
ATOM     20  H   UNL     1      -1.155  -3.632  -1.894  0.00  0.00    +0.145 HD
ATOM     21  H   UNL     1      -2.226  -4.751  -2.543  0.00  0.00    +0.145 HD
ENDBRANCH  16  19
BRANCH  15  22
ATOM     22  C   UNL     1      -1.561  -1.681  -0.601  0.00  0.00    +0.342 C 
ATOM     23  O   UNL     1      -1.286  -0.735  -1.319  0.00  0.00    -0.245 OA
BRANCH  22  24
ATOM     24  O   UNL     1      -0.621  -2.202   0.217  0.00  0.00    -0.458 OA
BRANCH  24  25
ATOM     25  C   UNL     1       0.672  -1.596   0.189  0.00  0.00    +0.171 C 
ATOM     26  C   UNL     1       1.331  -1.736   1.563  0.00  0.00    +0.052 C 
ATOM     27  C   UNL     1       1.538  -2.289  -0.865  0.00  0.00    +0.052 C 
ENDBRANCH  24  25
ENDBRANCH  22  24
ENDBRANCH  15  22
BRANCH   3  28
ATOM     28  C   UNL     1      -6.136  -2.175   1.239  0.00  0.00    +0.340 C 
ATOM     29  O   UNL     1      -7.084  -2.924   1.382  0.00  0.00    -0.245 OA
BRANCH  28  30
ATOM     30  O   UNL     1      -6.043  -1.055   1.986  0.00  0.00    -0.457 OA
BRANCH  30  31
ATOM     31  C   UNL     1      -7.091  -0.813   2.926  0.00  0.00    +0.259 C 
BRANCH  31  32
ATOM     32  C   UNL     1      -6.818   0.472   3.664  0.00  0.00    +0.006 C 
ATOM     33  C   UNL     1      -7.781   1.340   3.847  0.00  0.00    +0.007 C 
ENDBRANCH  31  32
ENDBRANCH  30  31
ENDBRANCH  28  30
ENDBRANCH   3  28
TORSDOF 8
