REMARK  Name = ZINC03012685
REMARK  1 active torsions:
REMARK  status: ('A' for Active; 'I' for Inactive)
REMARK    1  A    between atoms: C_9  and  C_12
REMARK                            x       y       z     vdW  Elec       q    Type
REMARK                         _______ _______ _______ _____ _____    ______ ____
ROOT
ATOM      1  C   UNL     1      -1.881   4.171   0.339  0.00  0.00    +0.086 C 
ATOM      2  C   UNL     1      -1.434   5.421   0.454  0.00  0.00    +0.063 C 
ATOM      3  S   UNL     1       0.331   5.194   0.326  0.00  0.00    -0.063 S 
ATOM      4  C   UNL     1       0.340   3.476   0.131  0.00  0.00    +0.160 C 
ATOM      5  N   UNL     1       1.305   2.598  -0.025  0.00  0.00    -0.141 NA
ATOM      6  C   UNL     1       1.100   1.291  -0.161  0.00  0.00    +0.327 C 
ATOM      7  O   UNL     1       2.053   0.544  -0.301  0.00  0.00    -0.251 OA
ATOM      8  N   UNL     1      -0.148   0.781  -0.146  0.00  0.00    -0.275 N 
ATOM      9  C   UNL     1      -1.285   1.695   0.017  0.00  0.00    +0.219 C 
ATOM     10  N   UNL     1      -0.986   3.143   0.170  0.00  0.00    -0.264 N 
ATOM     11  H   UNL     1      -0.292  -0.173  -0.246  0.00  0.00    +0.152 HD
ENDROOT
BRANCH   9  12
ATOM     12  C   UNL     1      -2.070   1.251   1.253  0.00  0.00    +0.225 C 
ATOM     13 CL   UNL     1      -1.061   1.497   2.727  0.00  0.00    -0.080 Cl
ATOM     14 CL   UNL     1      -3.580   2.227   1.389  0.00  0.00    -0.080 Cl
ATOM     15 CL   UNL     1      -2.495  -0.494   1.100  0.00  0.00    -0.080 Cl
ENDBRANCH   9  12
TORSDOF 1
