REMARK  Name = ZINC21357391
REMARK  6 active torsions:
REMARK  status: ('A' for Active; 'I' for Inactive)
REMARK    1  A    between atoms: C_1  and  N_2
REMARK    2  A    between atoms: C_11  and  C_13
REMARK    3  A    between atoms: C_13  and  C_14
REMARK    4  A    between atoms: C_17  and  N_20
REMARK    5  A    between atoms: N_20  and  S_21
REMARK    6  A    between atoms: S_21  and  C_24
REMARK                            x       y       z     vdW  Elec       q    Type
REMARK                         _______ _______ _______ _____ _____    ______ ____
ROOT
ATOM      1  C   UNL     1       4.514  -1.077  -1.157  0.00  0.00    -0.043 A 
ATOM      2  C   UNL     1       4.285  -1.727  -2.357  0.00  0.00    +0.006 A 
ATOM      3  C   UNL     1       5.084  -1.460  -3.451  0.00  0.00    +0.025 A 
ATOM      4  C   UNL     1       6.118  -0.539  -3.347  0.00  0.00    +0.048 A 
ATOM      5  C   UNL     1       6.345   0.112  -2.141  0.00  0.00    +0.025 A 
ATOM      6  C   UNL     1       5.539  -0.155  -1.052  0.00  0.00    +0.006 A 
ENDROOT
BRANCH   4   7
ATOM      7  N   UNL     1       6.928  -0.268  -4.452  0.00  0.00    -0.215 N 
ATOM      8  H   UNL     1       7.282  -0.997  -4.985  0.00  0.00    +0.174 HD
BRANCH   7   9
ATOM      9  S   UNL     1       7.284   1.299  -4.854  0.00  0.00    +0.091 S 
ATOM     10  O   UNL     1       7.789   1.915  -3.677  0.00  0.00    -0.148 OA
ATOM     11  O   UNL     1       8.024   1.250  -6.066  0.00  0.00    -0.148 OA
BRANCH   9  12
ATOM     12  C   UNL     1       5.760   2.101  -5.226  0.00  0.00    +0.214 A 
ATOM     13  C   UNL     1       5.127   2.085  -6.415  0.00  0.00    +0.133 A 
ATOM     14  N   UNL     1       3.987   2.827  -6.267  0.00  0.00    -0.349 N 
ATOM     15  C   UNL     1       3.962   3.272  -4.992  0.00  0.00    +0.198 A 
ATOM     16  N   UNL     1       5.023   2.829  -4.374  0.00  0.00    -0.216 NA
ATOM     17  H   UNL     1       3.321   3.002  -6.950  0.00  0.00    +0.166 HD
ENDBRANCH   9  12
ENDBRANCH   7   9
ENDBRANCH   4   7
BRANCH   1  18
ATOM     18  C   UNL     1       3.641  -1.370   0.035  0.00  0.00    +0.065 C 
BRANCH  18  29
ATOM     19  C   UNL     1      -0.036   1.285   0.044  0.00  0.00    +0.137 C 
ATOM     20  N   UNL     1       0.052  -0.177   0.083  0.00  0.00    -0.290 N 
ATOM     21  C   UNL     1      -1.027  -1.062   0.125  0.00  0.00    +0.056 A 
ATOM     22  C   UNL     1      -2.400  -0.862   0.143  0.00  0.00    +0.025 A 
ATOM     23  C   UNL     1      -3.254  -1.948   0.188  0.00  0.00    +0.002 A 
ATOM     24  C   UNL     1      -2.745  -3.234   0.215  0.00  0.00    +0.002 A 
ATOM     25  C   UNL     1      -1.379  -3.442   0.198  0.00  0.00    +0.025 A 
ATOM     26  C   UNL     1      -0.514  -2.358   0.152  0.00  0.00    +0.054 A 
ATOM     27  N   UNL     1       0.879  -2.266   0.126  0.00  0.00    -0.301 N 
ATOM     28  C   UNL     1       1.220  -0.923   0.077  0.00  0.00    +0.091 C 
ATOM     29  C   UNL     1       2.460  -0.433   0.035  0.00  0.00    +0.017 C 
ATOM     30  H   UNL     1       1.499  -3.012   0.136  0.00  0.00    +0.153 HD
ENDBRANCH  18  29
ENDBRANCH   1  18
TORSDOF 5
