REMARK  Name = ZINC64052320
REMARK  8 active torsions:
REMARK  status: ('A' for Active; 'I' for Inactive)
REMARK    1  A    between atoms: C_1  and  C_2
REMARK    2  A    between atoms: C_2  and  C_4
REMARK    3  A    between atoms: C_9  and  O_10
REMARK    4  A    between atoms: O_10  and  C_11
REMARK    5  A    between atoms: C_11  and  C_12
REMARK    6  A    between atoms: C_12  and  N_13
REMARK    7  A    between atoms: C_16  and  C_21
REMARK    8  A    between atoms: C_21  and  C_22
REMARK                            x       y       z     vdW  Elec       q    Type
REMARK                         _______ _______ _______ _____ _____    ______ ____
ROOT
ATOM      1  N   UNL     1       1.970  -4.482   1.211  0.00  0.00    -0.221 N 
ATOM      2  C   UNL     1       2.694  -3.359   1.388  0.00  0.00    +0.244 C 
ATOM      3  O   UNL     1       2.895  -2.482   0.575  0.00  0.00    -0.273 OA
ATOM      4  C   UNL     1       3.204  -3.421   2.814  0.00  0.00    +0.165 C 
ATOM      5  N   UNL     1       2.657  -4.690   3.323  0.00  0.00    -0.287 N 
ATOM      6  C   UNL     1       1.947  -5.234   2.318  0.00  0.00    +0.309 C 
ATOM      7  O   UNL     1       1.355  -6.292   2.404  0.00  0.00    -0.252 OA
ATOM      8  H   UNL     1       2.781  -5.060   4.211  0.00  0.00    +0.151 HD
ENDROOT
BRANCH   1   9
ATOM      9  C   UNL     1       1.286  -4.832  -0.036  0.00  0.00    +0.159 C 
BRANCH   9  10
ATOM     10  C   UNL     1      -0.132  -4.257  -0.019  0.00  0.00    +0.248 C 
BRANCH  10  11
ATOM     11  O   UNL     1      -0.067  -2.830  -0.012  0.00  0.00    -0.490 OA
BRANCH  11  17
ATOM     12  C   UNL     1      -1.259  -0.755   0.010  0.00  0.00    +0.059 A 
ATOM     13  C   UNL     1      -2.484  -0.076   0.019  0.00  0.00    +0.015 A 
ATOM     14  C   UNL     1      -3.662  -0.788   0.026  0.00  0.00    +0.001 A 
ATOM     15  C   UNL     1      -3.643  -2.174   0.025  0.00  0.00    +0.004 A 
ATOM     16  C   UNL     1      -2.444  -2.858   0.016  0.00  0.00    +0.046 A 
ATOM     17  C   UNL     1      -1.245  -2.160   0.002  0.00  0.00    +0.131 A 
BRANCH  12  19
ATOM     18  C   UNL     1      -0.018   1.503   0.010  0.00  0.00    +0.092 C 
ATOM     19  C   UNL     1       0.002  -0.004   0.002  0.00  0.00    +0.164 C 
ATOM     20  O   UNL     1       1.061  -0.596  -0.011  0.00  0.00    -0.292 OA
ENDBRANCH  12  19
ENDBRANCH  11  17
ENDBRANCH  10  11
ENDBRANCH   9  10
ENDBRANCH   1   9
BRANCH   4  21
ATOM     21  C   UNL     1       4.734  -3.442   2.838  0.00  0.00    +0.065 C 
BRANCH  21  22
ATOM     22  C   UNL     1       5.215  -3.380   4.264  0.00  0.00    -0.039 C 
ATOM     23  C   UNL     1       5.553  -4.423   5.055  0.00  0.00    -0.001 A 
ATOM     24  C   UNL     1       5.572  -5.874   4.833  0.00  0.00    +0.010 A 
ATOM     25  C   UNL     1       5.967  -6.687   5.839  0.00  0.00    +0.001 A 
ATOM     26  C   UNL     1       6.358  -6.180   7.086  0.00  0.00    +0.002 A 
ATOM     27  C   UNL     1       6.367  -4.859   7.366  0.00  0.00    +0.026 A 
ATOM     28  C   UNL     1       5.971  -3.913   6.381  0.00  0.00    +0.043 A 
ATOM     29  N   UNL     1       5.894  -2.605   6.408  0.00  0.00    -0.380 N 
ATOM     30  C   UNL     1       5.424  -2.136   5.100  0.00  0.00    +0.144 C 
ATOM     31  H   UNL     1       6.114  -2.041   7.166  0.00  0.00    +0.160 HD
ENDBRANCH  21  22
ENDBRANCH   4  21
TORSDOF 7
