REMARK  Name = ZINC66978083
REMARK  7 active torsions:
REMARK  status: ('A' for Active; 'I' for Inactive)
REMARK    1  A    between atoms: C_1  and  C_2
REMARK    2  A    between atoms: C_2  and  N_3
REMARK    3  A    between atoms: C_6  and  C_9
REMARK    4  A    between atoms: C_9  and  N_10
REMARK    5  A    between atoms: C_16  and  N_19
REMARK    6  A    between atoms: C_20  and  C_22
REMARK    7  A    between atoms: C_22  and  C_23
REMARK                            x       y       z     vdW  Elec       q    Type
REMARK                         _______ _______ _______ _____ _____    ______ ____
ROOT
ATOM      1  N   UNL     1      -7.392  -3.933  -0.715  0.00  0.00    -0.299 N 
ATOM      2  C   UNL     1      -6.253  -4.650  -0.798  0.00  0.00    +0.302 C 
ATOM      3  O   UNL     1      -5.192  -4.085  -0.982  0.00  0.00    -0.253 OA
ATOM      4  N   UNL     1      -6.291  -5.992  -0.677  0.00  0.00    -0.286 N 
ATOM      5  C   UNL     1      -5.049  -6.776  -0.650  0.00  0.00    +0.111 C 
ATOM      6  C   UNL     1      -5.052  -7.660   0.602  0.00  0.00    +0.041 C 
ATOM      7  C   UNL     1      -6.329  -8.503   0.623  0.00  0.00    +0.076 C 
ATOM      8  C   UNL     1      -7.550  -7.582   0.679  0.00  0.00    +0.041 C 
ATOM      9  C   UNL     1      -7.575  -6.697  -0.565  0.00  0.00    +0.111 C 
ATOM     10  H   UNL     1      -8.246  -4.387  -0.642  0.00  0.00    +0.150 HD
ENDROOT
BRANCH   7  11
ATOM     11  N   UNL     1      -6.319  -9.374   1.801  0.00  0.00    -0.312 N 
ATOM     12  C   UNL     1      -7.026 -10.522   1.796  0.00  0.00    +0.214 C 
ATOM     13  O   UNL     1      -7.669 -10.834   0.817  0.00  0.00    -0.276 OA
ATOM     14  H   UNL     1      -5.805  -9.124   2.584  0.00  0.00    +0.149 HD
BRANCH  12  15
ATOM     15  C   UNL     1      -7.016 -11.417   3.009  0.00  0.00    +0.099 C 
BRANCH  15  16
ATOM     16  C   UNL     1      -7.891 -12.644   2.743  0.00  0.00    -0.002 C 
ATOM     17  C   UNL     1      -9.372 -12.225   2.643  0.00  0.00    +0.004 C 
ATOM     18  C   UNL     1     -10.142 -13.387   3.318  0.00  0.00    +0.000 C 
ATOM     19  C   UNL     1      -9.215 -13.771   4.498  0.00  0.00    +0.000 C 
ATOM     20  C   UNL     1      -7.791 -13.627   3.923  0.00  0.00    +0.004 C 
ENDBRANCH  15  16
ENDBRANCH  12  15
ENDBRANCH   7  11
BRANCH   1  21
ATOM     21  C   UNL     1      -7.339  -2.469  -0.734  0.00  0.00    +0.109 C 
BRANCH  21  25
ATOM     22  N   UNL     1     -10.823  -0.198  -1.726  0.00  0.00    +0.380 N 
ATOM     23  C   UNL     1     -10.120   0.181  -0.494  0.00  0.00    -0.079 C 
ATOM     24  C   UNL     1      -8.697  -0.380  -0.521  0.00  0.00    -0.014 C 
ATOM     25  C   UNL     1      -8.758  -1.907  -0.627  0.00  0.00    +0.003 C 
ATOM     26  C   UNL     1      -9.557  -2.290  -1.875  0.00  0.00    -0.014 C 
ATOM     27  C   UNL     1     -10.948  -1.658  -1.798  0.00  0.00    -0.079 C 
ATOM     28  H   UNL     1     -10.301   0.134  -2.524  0.00  0.00    -0.082 HD
BRANCH  22  30
ATOM     29  C   UNL     1     -12.030   1.932  -1.781  0.00  0.00    -0.017 C 
ATOM     30  C   UNL     1     -12.161   0.408  -1.731  0.00  0.00    -0.082 C 
ENDBRANCH  22  30
ENDBRANCH  21  25
ENDBRANCH   1  21
TORSDOF 6
