REMARK  Name = ZINC41515205
REMARK  11 active torsions:
REMARK  status: ('A' for Active; 'I' for Inactive)
REMARK    1  A    between atoms: C_1  and  C_2
REMARK    2  A    between atoms: C_4  and  O_34
REMARK    3  A    between atoms: C_5  and  C_23
REMARK    4  A    between atoms: C_11  and  C_12
REMARK    5  A    between atoms: C_14  and  O_20
REMARK    6  A    between atoms: C_17  and  O_18
REMARK    7  A    between atoms: O_18  and  C_19
REMARK    8  A    between atoms: O_20  and  C_21
REMARK    9  A    between atoms: C_23  and  N_24
REMARK   10  A    between atoms: C_26  and  C_33
REMARK   11  A    between atoms: C_29  and  C_32
REMARK                            x       y       z     vdW  Elec       q    Type
REMARK                         _______ _______ _______ _____ _____    ______ ____
ROOT
ATOM      1  C   UNL     1      -1.789   1.415   0.328  0.00  0.00    +0.045 C 
ATOM      2  C   UNL     1      -1.455  -0.052   0.237  0.00  0.00    -0.033 A 
ATOM      3  C   UNL     1      -1.588  -0.711  -0.953  0.00  0.00    +0.050 A 
ATOM      4  C   UNL     1      -1.280  -2.066  -1.039  0.00  0.00    +0.122 A 
ATOM      5  C   UNL     1      -0.838  -2.761   0.075  0.00  0.00    +0.020 A 
ATOM      6  C   UNL     1      -0.697  -2.106   1.292  0.00  0.00    +0.145 A 
ATOM      7  C   UNL     1      -1.004  -0.737   1.365  0.00  0.00    +0.071 A 
ATOM      8  C   UNL     1      -0.753  -0.329   2.759  0.00  0.00    +0.232 C 
ATOM      9  O   UNL     1      -0.898   0.777   3.251  0.00  0.00    -0.283 OA
ATOM     10  C   UNL     1      -0.287  -1.555   3.424  0.00  0.00    +0.176 C 
ATOM     11  C   UNL     1       0.070  -1.674   4.729  0.00  0.00    +0.062 C 
ATOM     12  O   UNL     1      -0.292  -2.547   2.502  0.00  0.00    -0.451 OA
ENDROOT
BRANCH  11  13
ATOM     13  C   UNL     1       0.172  -0.478   5.573  0.00  0.00    +0.024 A 
ATOM     14  C   UNL     1       0.762   0.689   5.073  0.00  0.00    +0.057 A 
ATOM     15  C   UNL     1       0.854   1.810   5.874  0.00  0.00    +0.121 A 
ATOM     16  C   UNL     1       0.363   1.783   7.175  0.00  0.00    +0.049 A 
ATOM     17  C   UNL     1      -0.220   0.636   7.678  0.00  0.00    +0.050 A 
ATOM     18  C   UNL     1      -0.326  -0.496   6.886  0.00  0.00    +0.128 A 
BRANCH  18  19
ATOM     19  O   UNL     1      -0.905  -1.620   7.380  0.00  0.00    -0.495 OA
ATOM     20  C   UNL     1      -1.389  -1.565   8.723  0.00  0.00    +0.277 C 
ENDBRANCH  18  19
BRANCH  15  21
ATOM     21  O   UNL     1       1.427   2.945   5.390  0.00  0.00    -0.495 OA
ATOM     22  C   UNL     1       1.490   4.067   6.272  0.00  0.00    +0.277 C 
ENDBRANCH  15  21
ENDBRANCH  11  13
BRANCH   4  23
ATOM     23  O   UNL     1      -1.416  -2.712  -2.225  0.00  0.00    -0.506 OA
ATOM     24  H   UNL     1      -0.620  -2.697  -2.775  0.00  0.00    +0.292 HD
ENDBRANCH   4  23
BRANCH   5  25
ATOM     25  C   UNL     1      -0.510  -4.228  -0.034  0.00  0.00    -0.036 C 
BRANCH  25  26
ATOM     26  N   UNL     1       0.906  -4.388  -0.391  0.00  0.00    +0.383 N 
ATOM     27  C   UNL     1       1.137  -3.830  -1.729  0.00  0.00    -0.075 C 
ATOM     28  C   UNL     1       2.625  -3.921  -2.074  0.00  0.00    -0.031 C 
ATOM     29  C   UNL     1       3.061  -5.389  -2.049  0.00  0.00    +0.003 C 
ATOM     30  C   UNL     1       2.747  -5.981  -0.672  0.00  0.00    -0.031 C 
ATOM     31  C   UNL     1       1.254  -5.814  -0.379  0.00  0.00    -0.075 C 
ATOM     32  C   UNL     1       3.107  -7.468  -0.661  0.00  0.00    +0.005 C 
ATOM     33  C   UNL     1       3.437  -3.129  -1.047  0.00  0.00    +0.005 C 
ATOM     34  H   UNL     1       1.479  -3.897   0.279  0.00  0.00    -0.081 HD
ENDBRANCH  25  26
ENDBRANCH   5  25
TORSDOF 6
