REMARK  Name = ZINC32603916
REMARK  3 active torsions:
REMARK  status: ('A' for Active; 'I' for Inactive)
REMARK    1  A    between atoms: C_1  and  C_2
REMARK    2  A    between atoms: C_5  and  C_8
REMARK    3  A    between atoms: C_8  and  C_10
REMARK                            x       y       z     vdW  Elec       q    Type
REMARK                         _______ _______ _______ _____ _____    ______ ____
ROOT
ATOM      1  C   UNL     1       1.197   1.929   0.009  0.00  0.00    +0.121 A 
ATOM      2  C   UNL     1       1.327   3.320  -0.082  0.00  0.00    +0.107 A 
ATOM      3  C   UNL     1       2.713   3.607  -0.041  0.00  0.00    +0.091 A 
ATOM      4  C   UNL     1       3.393   2.375   0.064  0.00  0.00    +0.061 A 
ATOM      5  N   UNL     1       2.464   1.374   0.093  0.00  0.00    -0.311 N 
ATOM      6  C   UNL     1       2.861   0.076   0.193  0.00  0.00    +0.092 A 
ATOM      7  C   UNL     1       4.174  -0.245   0.265  0.00  0.00    +0.018 A 
ATOM      8  C   UNL     1       5.147   0.761   0.237  0.00  0.00    +0.003 A 
ATOM      9  C   UNL     1       4.757   2.066   0.137  0.00  0.00    +0.027 A 
ATOM     10  C   UNL     1       3.124   4.958  -0.113  0.00  0.00    +0.261 A 
ATOM     11  O   UNL     1       4.306   5.255  -0.086  0.00  0.00    -0.267 OA
ATOM     12  N   UNL     1       2.172   5.912  -0.210  0.00  0.00    -0.313 N 
ATOM     13  H   UNL     1       2.459   6.972  -0.268  0.00  0.00    +0.170 HD
ATOM     14  C   UNL     1       0.855   5.578  -0.239  0.00  0.00    +0.199 A 
ATOM     15  N   UNL     1       0.446   4.344  -0.175  0.00  0.00    -0.235 NA
ENDROOT
BRANCH   1  16
ATOM     16  C   UNL     1      -0.015   1.216   0.009  0.00  0.00    +0.212 C 
ATOM     17  O   UNL     1      -0.545   0.915  -1.048  0.00  0.00    -0.285 OA
BRANCH  16  22
ATOM     18  C   UNL     1      -2.482  -0.268   4.993  0.00  0.00    +0.044 C 
ATOM     19  C   UNL     1      -1.836   0.120   3.688  0.00  0.00    -0.050 A 
ATOM     20  C   UNL     1      -2.381  -0.316   2.493  0.00  0.00    +0.004 A 
ATOM     21  C   UNL     1      -1.794   0.036   1.295  0.00  0.00    +0.012 A 
ATOM     22  C   UNL     1      -0.649   0.834   1.290  0.00  0.00    +0.024 A 
ATOM     23  C   UNL     1      -0.101   1.266   2.499  0.00  0.00    +0.012 A 
ATOM     24  C   UNL     1      -0.701   0.912   3.690  0.00  0.00    +0.004 A 
ENDBRANCH  16  22
ENDBRANCH   1  16
TORSDOF 2
