REMARK  Name = ZINC14537068
REMARK  7 active torsions:
REMARK  status: ('A' for Active; 'I' for Inactive)
REMARK    1  A    between atoms: C_1  and  C_2
REMARK    2  A    between atoms: C_2  and  N_3
REMARK    3  A    between atoms: N_6  and  C_25
REMARK    4  A    between atoms: C_14  and  N_67
REMARK    5  A    between atoms: C_25  and  C_26
REMARK    6  A    between atoms: C_26  and  C_27
REMARK    7  A    between atoms: C_27  and  C_28
REMARK                            x       y       z     vdW  Elec       q    Type
REMARK                         _______ _______ _______ _____ _____    ______ ____
ROOT
ATOM      1  N   UNL     1       7.423   5.128   2.297  0.00  0.00    -0.271 N 
ATOM      2  C   UNL     1       8.578   5.727   2.642  0.00  0.00    +0.312 C 
ATOM      3  O   UNL     1       8.996   5.787   3.782  0.00  0.00    -0.252 OA
ATOM      4  N   UNL     1       9.216   6.251   1.587  0.00  0.00    -0.224 N 
ATOM      5  C   UNL     1       8.534   6.044   0.442  0.00  0.00    +0.247 C 
ATOM      6  O   UNL     1       8.850   6.397  -0.675  0.00  0.00    -0.273 OA
ATOM      7  C   UNL     1       7.294   5.281   0.843  0.00  0.00    +0.112 C 
ATOM      8  C   UNL     1       6.040   6.079   0.498  0.00  0.00    +0.017 C 
ATOM      9  C   UNL     1       4.801   5.270   0.891  0.00  0.00    -0.076 C 
ATOM     10  C   UNL     1       5.983   3.178   0.566  0.00  0.00    -0.076 C 
ATOM     11  C   UNL     1       7.262   3.916   0.162  0.00  0.00    +0.017 C 
ATOM     12  N   UNL     1       4.814   3.987   0.157  0.00  0.00    +0.382 N 
ATOM     13  H   UNL     1       4.880   4.180  -0.850  0.00  0.00    -0.081 HD
ENDROOT
BRANCH  12  14
ATOM     14  C   UNL     1       3.567   3.241   0.422  0.00  0.00    -0.064 C 
ATOM     15  C   UNL     1       2.385   4.015  -0.173  0.00  0.00    -0.010 C 
ATOM     16  C   UNL     1       1.150   3.119  -0.128  0.00  0.00    +0.034 C 
ATOM     17  C   UNL     1       0.956   2.551   1.253  0.00  0.00    -0.044 A 
ATOM     18  C   UNL     1      -0.291   2.029   1.569  0.00  0.00    +0.004 A 
ATOM     19  C   UNL     1      -0.530   1.488   2.816  0.00  0.00    +0.000 A 
ATOM     20  C   UNL     1       0.484   1.456   3.755  0.00  0.00    +0.000 A 
ATOM     21  C   UNL     1       1.723   1.976   3.445  0.00  0.00    +0.004 A 
ATOM     22  C   UNL     1       1.962   2.529   2.193  0.00  0.00    -0.046 A 
ATOM     23  C   UNL     1       3.336   3.086   1.923  0.00  0.00    +0.020 C 
ENDBRANCH  12  14
BRANCH   1  25
ATOM     24  C   UNL     1       5.846   5.487   4.132  0.00  0.00    +0.024 C 
ATOM     25  C   UNL     1       6.481   4.456   3.196  0.00  0.00    +0.107 C 
ENDBRANCH   1  25
BRANCH   4  26
ATOM     26  C   UNL     1      10.495   6.962   1.668  0.00  0.00    +0.118 C 
BRANCH  26  27
ATOM     27  C   UNL     1      10.236   8.453   1.890  0.00  0.00    +0.024 C 
BRANCH  27  28
ATOM     28  C   UNL     1      11.572   9.195   1.974  0.00  0.00    +0.038 C 
BRANCH  28  29
ATOM     29  C   UNL     1      11.317  10.664   2.192  0.00  0.00    -0.029 A 
ATOM     30  C   UNL     1      11.183  11.522   1.111  0.00  0.00    +0.006 A 
ATOM     31  C   UNL     1      10.945  12.865   1.359  0.00  0.00    +0.020 A 
ATOM     32  C   UNL     1      10.860  13.303   2.667  0.00  0.00    +0.111 A 
ATOM     33  N   UNL     1      10.998  12.460   3.671  0.00  0.00    -0.263 NA
ATOM     34  C   UNL     1      11.220  11.175   3.473  0.00  0.00    +0.114 A 
ENDBRANCH  28  29
ENDBRANCH  27  28
ENDBRANCH  26  27
ENDBRANCH   4  26
TORSDOF 6
