REMARK  Name = ZINC03344677
REMARK  6 active torsions:
REMARK  status: ('A' for Active; 'I' for Inactive)
REMARK    1  A    between atoms: C_1  and  C_2
REMARK    2  A    between atoms: C_15  and  C_17
REMARK    3  A    between atoms: C_17  and  N_51
REMARK    4  A    between atoms: C_20  and  C_23
REMARK    5  A    between atoms: C_23  and  O_25
REMARK    6  A    between atoms: O_25  and  C_26
REMARK                            x       y       z     vdW  Elec       q    Type
REMARK                         _______ _______ _______ _____ _____    ______ ____
ROOT
ATOM      1  C   UNL     1       1.397   3.572   0.259  0.00  0.00    +0.008 C 
ATOM      2  C   UNL     1       1.415   2.064  -0.000  0.00  0.00    -0.009 C 
ATOM      3  C   UNL     1      -0.019   1.524   0.010  0.00  0.00    +0.008 C 
ATOM      4  C   UNL     1       0.002  -0.004   0.002  0.00  0.00    +0.037 C 
ATOM      5  C   UNL     1       0.873  -0.481  -1.158  0.00  0.00    -0.023 A 
ATOM      6  C   UNL     1       1.763   0.357  -1.738  0.00  0.00    -0.004 A 
ATOM      7  S   UNL     1       2.538  -0.601  -3.016  0.00  0.00    -0.073 S 
ATOM      8  C   UNL     1       1.671  -2.118  -2.769  0.00  0.00    +0.116 A 
ATOM      9  C   UNL     1       0.801  -1.828  -1.695  0.00  0.00    +0.075 A 
ATOM     10  C   UNL     1      -0.058  -2.888  -1.248  0.00  0.00    +0.260 A 
ATOM     11  O   UNL     1      -0.845  -2.741  -0.329  0.00  0.00    -0.267 OA
ATOM     12  N   UNL     1       0.063  -4.061  -1.913  0.00  0.00    -0.312 N 
ATOM     13  H   UNL     1      -0.516  -4.828  -1.635  0.00  0.00    +0.170 HD
ATOM     14  C   UNL     1       0.930  -4.245  -2.937  0.00  0.00    +0.094 A 
ATOM     15  N   UNL     1       1.732  -3.300  -3.375  0.00  0.00    -0.229 NA
ATOM     16  C   UNL     1       2.034   1.785  -1.377  0.00  0.00    +0.046 C 
ENDROOT
BRANCH  14  17
ATOM     17  C   UNL     1       0.978  -5.595  -3.605  0.00  0.00    -0.003 C 
BRANCH  17  23
ATOM     18  C   UNL     1       1.576  -4.660  -5.756  0.00  0.00    -0.077 C 
ATOM     19  C   UNL     1       2.704  -4.553  -6.785  0.00  0.00    -0.004 C 
ATOM     20  C   UNL     1       3.002  -5.942  -7.355  0.00  0.00    +0.094 C 
ATOM     21  C   UNL     1       3.373  -6.887  -6.209  0.00  0.00    -0.004 C 
ATOM     22  C   UNL     1       2.225  -6.927  -5.197  0.00  0.00    -0.077 C 
ATOM     23  N   UNL     1       2.004  -5.564  -4.668  0.00  0.00    +0.384 N 
ATOM     24  H   UNL     1       2.884  -5.213  -4.271  0.00  0.00    -0.081 HD
BRANCH  20  25
ATOM     25  C   UNL     1       4.152  -5.853  -8.326  0.00  0.00    +0.310 C 
ATOM     26  O   UNL     1       5.164  -6.481  -8.122  0.00  0.00    -0.251 OA
BRANCH  25  27
ATOM     27  O   UNL     1       4.051  -5.077  -9.416  0.00  0.00    -0.468 OA
ATOM     28  C   UNL     1       5.197  -5.040 -10.307  0.00  0.00    +0.280 C 
ENDBRANCH  25  27
ENDBRANCH  20  25
ENDBRANCH  17  23
ENDBRANCH  14  17
TORSDOF 4
