REMARK  Name = ZINC65814576
REMARK  2 active torsions:
REMARK  status: ('A' for Active; 'I' for Inactive)
REMARK    1  A    between atoms: N_9  and  C_12
REMARK    2  A    between atoms: C_12  and  C_13
REMARK                            x       y       z     vdW  Elec       q    Type
REMARK                         _______ _______ _______ _____ _____    ______ ____
ROOT
ATOM      1  C   UNL     1       2.714  -4.647  -1.472  0.00  0.00    +0.236 C 
ATOM      2  O   UNL     1       2.629  -3.857  -2.389  0.00  0.00    -0.274 OA
ATOM      3  N   UNL     1       2.838  -5.965  -1.727  0.00  0.00    -0.297 N 
ATOM      4  C   UNL     1       2.930  -6.870  -0.617  0.00  0.00    +0.111 C 
ATOM      5  C   UNL     1       2.282  -8.194  -0.885  0.00  0.00    +0.007 C 
ATOM      6  C   UNL     1       0.910  -8.062  -1.526  0.00  0.00    +0.008 C 
ATOM      7  C   UNL     1       0.934  -7.983  -3.039  0.00  0.00    -0.009 C 
ATOM      8  C   UNL     1       1.786  -9.106  -3.634  0.00  0.00    +0.007 C 
ATOM      9  C   UNL     1       3.201  -8.947  -3.073  0.00  0.00    -0.009 C 
ATOM     10  C   UNL     1       3.153  -9.210  -1.567  0.00  0.00    +0.008 C 
ATOM     11  C   UNL     1       3.769  -7.579  -3.373  0.00  0.00    +0.026 C 
ATOM     12  C   UNL     1       2.867  -6.401  -3.112  0.00  0.00    +0.077 C 
ATOM     13  C   UNL     1       1.436  -6.649  -3.574  0.00  0.00    +0.026 C 
ENDROOT
BRANCH   1  14
ATOM     14  C   UNL     1       2.680  -4.155  -0.048  0.00  0.00    +0.222 C 
BRANCH  14  23
ATOM     15  C   UNL     1      -0.017   1.373   0.010  0.00  0.00    +0.001 A 
ATOM     16  C   UNL     1       1.169   2.096   0.002  0.00  0.00    +0.002 A 
ATOM     17  C   UNL     1       2.387   1.453  -0.013  0.00  0.00    +0.028 A 
ATOM     18  C   UNL     1       2.432   0.058  -0.021  0.00  0.00    +0.078 A 
ATOM     19  C   UNL     1       1.224  -0.674  -0.013  0.00  0.00    +0.065 A 
ATOM     20  C   UNL     1       0.002  -0.004   0.002  0.00  0.00    +0.015 A 
ATOM     21  C   UNL     1       1.306  -2.142  -0.022  0.00  0.00    +0.262 A 
ATOM     22  O   UNL     1       0.302  -2.832  -0.017  0.00  0.00    -0.267 OA
ATOM     23  N   UNL     1       2.540  -2.697  -0.038  0.00  0.00    -0.290 N 
ATOM     24  C   UNL     1       3.650  -1.914  -0.044  0.00  0.00    +0.203 A 
ATOM     25  N   UNL     1       3.609  -0.616  -0.037  0.00  0.00    -0.237 NA
ENDBRANCH  14  23
ENDBRANCH   1  14
TORSDOF 2
