REMARK  Name = ZINC13137078
REMARK  4 active torsions:
REMARK  status: ('A' for Active; 'I' for Inactive)
REMARK    1  A    between atoms: C_8  and  C_19
REMARK    2  A    between atoms: C_9  and  N_10
REMARK    3  A    between atoms: C_11  and  C_12
REMARK    4  A    between atoms: C_16  and  O_18
REMARK                            x       y       z     vdW  Elec       q    Type
REMARK                         _______ _______ _______ _____ _____    ______ ____
ROOT
ATOM      1  C   UNL     1      -0.016   1.357   0.009  0.00  0.00    +0.005 A 
ATOM      2  C   UNL     1       1.193   2.070   0.002  0.00  0.00    +0.018 A 
ATOM      3  C   UNL     1       2.371   1.409  -0.013  0.00  0.00    +0.095 A 
ATOM      4  N   UNL     1       2.403   0.045  -0.021  0.00  0.00    -0.284 N 
ATOM      5  C   UNL     1       1.239  -0.679  -0.014  0.00  0.00    +0.140 A 
ATOM      6  C   UNL     1       0.002  -0.004   0.002  0.00  0.00    +0.047 A 
ATOM      7  N   UNL     1       1.537  -1.972  -0.025  0.00  0.00    -0.222 NA
ATOM      8  C   UNL     1       2.867  -2.128  -0.039  0.00  0.00    +0.151 A 
ATOM      9  C   UNL     1       3.446  -0.856  -0.037  0.00  0.00    +0.168 A 
ENDROOT
BRANCH   8  10
ATOM     10  C   UNL     1       3.591  -3.411  -0.054  0.00  0.00    +0.157 A 
ATOM     11  C   UNL     1       3.201  -4.557   0.571  0.00  0.00    +0.051 A 
ATOM     12  C   UNL     1       4.184  -5.526   0.291  0.00  0.00    +0.042 A 
ATOM     13  C   UNL     1       5.116  -4.933  -0.481  0.00  0.00    +0.196 A 
ATOM     14  O   UNL     1       4.752  -3.657  -0.692  0.00  0.00    -0.461 OA
ENDBRANCH   8  10
BRANCH   9  15
ATOM     15  N   UNL     1       4.762  -0.568  -0.048  0.00  0.00    -0.235 NA
ATOM     16  C   UNL     1       5.412  -0.435   1.079  0.00  0.00    +0.121 C 
BRANCH  16  17
ATOM     17  C   UNL     1       6.848  -0.121   1.067  0.00  0.00    -0.003 A 
ATOM     18  C   UNL     1       7.522   0.043  -0.148  0.00  0.00    +0.009 A 
ATOM     19  C   UNL     1       8.869   0.338  -0.154  0.00  0.00    +0.004 A 
ATOM     20  C   UNL     1       9.558   0.473   1.038  0.00  0.00    +0.045 A 
ATOM     21  C   UNL     1       8.899   0.312   2.250  0.00  0.00    +0.117 A 
ATOM     22  C   UNL     1       7.546   0.022   2.271  0.00  0.00    +0.054 A 
BRANCH  21  23
ATOM     23  O   UNL     1       9.583   0.447   3.417  0.00  0.00    -0.507 OA
ATOM     24  H   UNL     1       9.591   1.348   3.766  0.00  0.00    +0.292 HD
ENDBRANCH  21  23
ENDBRANCH  16  17
ENDBRANCH   9  15
TORSDOF 4
