REMARK  Name = ZINC00857326
REMARK  4 active torsions:
REMARK  status: ('A' for Active; 'I' for Inactive)
REMARK    1  A    between atoms: C_1  and  C_2
REMARK    2  A    between atoms: C_2  and  O_3
REMARK    3  A    between atoms: O_3  and  C_4
REMARK    4  A    between atoms: C_4  and  C_6
REMARK                            x       y       z     vdW  Elec       q    Type
REMARK                         _______ _______ _______ _____ _____    ______ ____
ROOT
ATOM      1  C   UNL     1      -0.711   1.573  -1.275  0.00  0.00    +0.182 C 
ATOM      2  C   UNL     1      -0.013   1.086   0.008  0.00  0.00    +0.153 C 
ATOM      3  N   UNL     1      -0.648   1.532   1.235  0.00  0.00    -0.286 N 
ATOM      4  C   UNL     1      -0.191   1.190   2.484  0.00  0.00    +0.259 A 
ATOM      5  O   UNL     1       0.786   0.473   2.628  0.00  0.00    -0.267 OA
ATOM      6  C   UNL     1      -0.891   1.700   3.587  0.00  0.00    +0.050 A 
ATOM      7  C   UNL     1      -1.997   2.513   3.405  0.00  0.00    +0.083 A 
ATOM      8  N   UNL     1      -2.425   2.809   2.175  0.00  0.00    -0.223 NA
ATOM      9  C   UNL     1      -1.757   2.326   1.149  0.00  0.00    +0.173 A 
ATOM     10  S   UNL     1      -2.092   2.554  -0.575  0.00  0.00    -0.071 S 
ATOM     11  C   UNL     1      -2.691   3.067   4.589  0.00  0.00    +0.004 A 
ATOM     12  C   UNL     1      -3.978   3.588   4.481  0.00  0.00    +0.010 A 
ATOM     13  C   UNL     1      -4.615   4.077   5.604  0.00  0.00    +0.001 A 
ATOM     14  C   UNL     1      -3.975   4.048   6.831  0.00  0.00    +0.000 A 
ATOM     15  C   UNL     1      -2.694   3.539   6.941  0.00  0.00    +0.004 A 
ATOM     16  C   UNL     1      -2.045   3.054   5.824  0.00  0.00    -0.037 A 
ATOM     17  C   UNL     1      -0.644   2.514   5.932  0.00  0.00    +0.047 C 
ATOM     18  C   UNL     1      -0.445   1.337   4.981  0.00  0.00    +0.007 C 
ATOM     19  C   UNL     1       1.039   0.957   4.948  0.00  0.00    +0.012 C 
ATOM     20  C   UNL     1       1.498   0.577   6.357  0.00  0.00    +0.001 C 
ATOM     21  C   UNL     1       0.681  -0.618   6.854  0.00  0.00    +0.000 C 
ATOM     22  C   UNL     1      -0.802  -0.244   6.883  0.00  0.00    +0.001 C 
ATOM     23  C   UNL     1      -1.260   0.139   5.475  0.00  0.00    +0.012 C 
ENDROOT
BRANCH   1  24
ATOM     24  C   UNL     1      -1.227   0.412  -2.085  0.00  0.00    +0.322 C 
ATOM     25  O   UNL     1      -1.653  -0.572  -1.528  0.00  0.00    -0.250 OA
BRANCH  24  26
ATOM     26  O   UNL     1      -1.213   0.471  -3.426  0.00  0.00    -0.464 OA
BRANCH  26  28
ATOM     27  C   UNL     1      -1.630  -0.433  -5.649  0.00  0.00    +0.048 C 
ATOM     28  C   UNL     1      -1.726  -0.683  -4.142  0.00  0.00    +0.229 C 
ENDBRANCH  26  28
ENDBRANCH  24  26
ENDBRANCH   1  24
TORSDOF 3
