REMARK  Name = ZINC58210886
REMARK  2 active torsions:
REMARK  status: ('A' for Active; 'I' for Inactive)
REMARK    1  A    between atoms: C_3  and  N_9
REMARK    2  A    between atoms: C_18  and  C_20
REMARK                            x       y       z     vdW  Elec       q    Type
REMARK                         _______ _______ _______ _____ _____    ______ ____
ROOT
ATOM      1  N   UNL     1       3.818   2.494   1.021  0.00  0.00    -0.267 N 
ATOM      2  C   UNL     1       3.783   3.810   0.732  0.00  0.00    +0.307 C 
ATOM      3  O   UNL     1       2.728   4.414   0.779  0.00  0.00    -0.252 OA
ATOM      4  N   UNL     1       4.915   4.457   0.392  0.00  0.00    -0.282 N 
ATOM      5  C   UNL     1       6.181   3.724   0.248  0.00  0.00    +0.128 C 
ATOM      6  C   UNL     1       6.750   3.998  -1.149  0.00  0.00    +0.127 C 
ATOM      7  N   UNL     1       6.741   5.449  -1.383  0.00  0.00    -0.298 N 
ATOM      8  C   UNL     1       5.476   6.183  -1.239  0.00  0.00    +0.127 C 
ATOM      9  C   UNL     1       4.906   5.907   0.153  0.00  0.00    +0.128 C 
ATOM     10  C   UNL     1       7.874   6.096  -1.723  0.00  0.00    +0.219 C 
ATOM     11  O   UNL     1       7.837   7.273  -2.011  0.00  0.00    -0.275 OA
ATOM     12  H   UNL     1       4.662   2.016   1.001  0.00  0.00    +0.156 HD
ENDROOT
BRANCH   1  15
ATOM     13  C   UNL     1       0.356   1.858   2.090  0.00  0.00    +0.040 A 
ATOM     14  C   UNL     1       1.520   2.527   1.766  0.00  0.00    +0.029 A 
ATOM     15  C   UNL     1       2.636   1.816   1.350  0.00  0.00    +0.070 A 
ATOM     16  C   UNL     1       2.581   0.430   1.259  0.00  0.00    +0.147 A 
ATOM     17  C   UNL     1       1.413  -0.236   1.584  0.00  0.00    +0.078 A 
ATOM     18  C   UNL     1       0.301   0.477   1.999  0.00  0.00    +0.126 A 
ATOM     19  F   UNL     1      -0.839  -0.175   2.317  0.00  0.00    -0.205 F 
ATOM     20  F   UNL     1       3.666  -0.266   0.854  0.00  0.00    -0.203 F 
ENDBRANCH   1  15
BRANCH  10  21
ATOM     21  C   UNL     1       9.186   5.356  -1.745  0.00  0.00    +0.075 C 
ATOM     22  C   UNL     1       9.261   4.488  -3.003  0.00  0.00    +0.013 C 
ATOM     23  C   UNL     1      10.594   3.737  -3.025  0.00  0.00    +0.001 C 
ATOM     24  C   UNL     1      11.747   4.743  -3.030  0.00  0.00    +0.000 C 
ATOM     25  C   UNL     1      11.672   5.610  -1.772  0.00  0.00    +0.001 C 
ATOM     26  C   UNL     1      10.339   6.362  -1.750  0.00  0.00    +0.013 C 
ENDBRANCH  10  21
TORSDOF 2
