REMARK  Name = ZINC59895761
REMARK  2 active torsions:
REMARK  status: ('A' for Active; 'I' for Inactive)
REMARK    1  A    between atoms: C_7  and  N_11
REMARK    2  A    between atoms: C_12  and  C_14
REMARK                            x       y       z     vdW  Elec       q    Type
REMARK                         _______ _______ _______ _____ _____    ______ ____
ROOT
ATOM      1  C   UNL     1      -0.005   1.400  -0.007  0.00  0.00    +0.020 A 
ATOM      2  C   UNL     1       1.172   2.094  -0.023  0.00  0.00    +0.013 A 
ATOM      3  C   UNL     1       2.374   1.363  -0.036  0.00  0.00    +0.021 A 
ATOM      4  C   UNL     1       3.622   2.009  -0.051  0.00  0.00    +0.050 A 
ATOM      5  C   UNL     1       4.768   1.272  -0.064  0.00  0.00    +0.022 A 
ATOM      6  C   UNL     1       4.725  -0.120  -0.061  0.00  0.00    +0.027 A 
ATOM      7  C   UNL     1       3.521  -0.789  -0.046  0.00  0.00    +0.060 A 
ATOM      8  C   UNL     1       2.316  -0.053  -0.033  0.00  0.00    +0.093 A 
ATOM      9  N   UNL     1       1.132  -0.670  -0.017  0.00  0.00    -0.253 NA
ATOM     10  C   UNL     1       0.009   0.008  -0.005  0.00  0.00    +0.111 A 
ATOM     11 CL   UNL     1       3.703   3.743  -0.056  0.00  0.00    -0.083 Cl
ENDROOT
BRANCH   7  12
ATOM     12  N   UNL     1       3.492  -2.185  -0.045  0.00  0.00    -0.278 N 
ATOM     13  C   UNL     1       4.543  -2.880   0.435  0.00  0.00    +0.267 C 
ATOM     14  O   UNL     1       5.472  -2.295   0.957  0.00  0.00    -0.268 OA
ATOM     15  H   UNL     1       2.716  -2.655  -0.389  0.00  0.00    +0.155 HD
BRANCH  13  16
ATOM     16  C   UNL     1       4.566  -4.348   0.326  0.00  0.00    +0.133 A 
ATOM     17  C   UNL     1       5.610  -5.095   0.804  0.00  0.00    +0.079 A 
ATOM     18  S   UNL     1       5.135  -6.662   0.430  0.00  0.00    -0.083 S 
ATOM     19  C   UNL     1       3.662  -6.332  -0.304  0.00  0.00    +0.156 A 
ATOM     20  N   UNL     1       3.566  -5.032  -0.240  0.00  0.00    -0.243 NA
ENDBRANCH  13  16
ENDBRANCH   7  12
TORSDOF 2
