REMARK  Name = ZINC49372680
REMARK  3 active torsions:
REMARK  status: ('A' for Active; 'I' for Inactive)
REMARK    1  A    between atoms: C_5  and  C_6
REMARK    2  A    between atoms: C_6  and  N_7
REMARK    3  A    between atoms: C_8  and  N_12
REMARK                            x       y       z     vdW  Elec       q    Type
REMARK                         _______ _______ _______ _____ _____    ______ ____
ROOT
ATOM      1  N   UNL     1      -1.545  -1.274  -1.370  0.00  0.00    -0.238 N 
ATOM      2  C   UNL     1      -2.450  -0.598  -2.108  0.00  0.00    +0.214 A 
ATOM      3  C   UNL     1      -2.521  -1.193  -3.321  0.00  0.00    +0.074 A 
ATOM      4  C   UNL     1      -1.629  -2.270  -3.325  0.00  0.00    +0.137 A 
ATOM      5  N   UNL     1      -1.038  -2.316  -2.158  0.00  0.00    -0.177 NA
ENDROOT
BRANCH   2   6
ATOM      6  N   UNL     1      -3.227   0.583  -1.668  0.00  0.00    +0.075 N 
ATOM      7  O   UNL     1      -3.075   1.026  -0.553  0.00  0.00    -0.125 OA
ATOM      8  O   UNL     1      -4.013   1.105  -2.424  0.00  0.00    -0.125 OA
ENDBRANCH   2   6
BRANCH   1   9
ATOM      9  C   UNL     1      -1.156  -0.969   0.009  0.00  0.00    +0.188 C 
BRANCH   9  14
ATOM     10  C   UNL     1      -0.016   1.351   0.009  0.00  0.00    +0.014 A 
ATOM     11  C   UNL     1       1.183   2.038   0.002  0.00  0.00    +0.023 A 
ATOM     12  C   UNL     1       2.343   1.335  -0.013  0.00  0.00    +0.055 A 
ATOM     13  S   UNL     1       1.753  -0.350  -0.017  0.00  0.00    -0.085 S 
ATOM     14  C   UNL     1       0.002  -0.004   0.002  0.00  0.00    +0.012 A 
ATOM     15 BR   UNL     1       4.123   1.974  -0.027  0.00  0.00    -0.043 Br
ENDBRANCH   9  14
ENDBRANCH   1   9
TORSDOF 3
