REMARK  Name = ZINC39468928
REMARK  4 active torsions:
REMARK  status: ('A' for Active; 'I' for Inactive)
REMARK    1  A    between atoms: C_1  and  S_2
REMARK    2  A    between atoms: S_2  and  C_3
REMARK    3  A    between atoms: C_20  and  C_21
REMARK    4  A    between atoms: C_26  and  O_27
REMARK                            x       y       z     vdW  Elec       q    Type
REMARK                         _______ _______ _______ _____ _____    ______ ____
ROOT
ATOM      1  C   UNL     1      -1.702  -0.454   0.016  0.00  0.00    +0.012 C 
ATOM      2  C   UNL     1      -2.650   0.490   0.024  0.00  0.00    -0.008 C 
ATOM      3  C   UNL     1      -4.099   0.086   0.048  0.00  0.00    +0.017 C 
ATOM      4  C   UNL     1      -4.960   1.210   0.609  0.00  0.00    -0.003 C 
ATOM      5  C   UNL     1      -4.617   1.474   2.080  0.00  0.00    -0.020 C 
ATOM      6  C   UNL     1      -5.548   2.594   2.565  0.00  0.00    +0.159 C 
ATOM      7  O   UNL     1      -5.238   2.920   3.932  0.00  0.00    -0.297 OA
ATOM      8  P   UNL     1      -5.146   1.693   4.998  0.00  0.00    +0.421 P 
ATOM      9  O   UNL     1      -6.561   1.273   5.454  0.00  0.00    -0.239 OA
ATOM     10  N   UNL     1      -4.420   0.460   4.177  0.00  0.00    -0.267 NA
ATOM     11  N   UNL     1      -4.798   0.252   2.867  0.00  0.00    +0.399 N 
ATOM     12  C   UNL     1      -3.925  -0.818   2.360  0.00  0.00    -0.046 C 
ATOM     13  C   UNL     1      -4.273  -1.155   0.928  0.00  0.00    +0.005 C 
ATOM     14  C   UNL     1      -3.320  -2.227   0.456  0.00  0.00    -0.015 C 
ATOM     15  C   UNL     1      -2.100  -1.882   0.012  0.00  0.00    -0.005 C 
ATOM     16  O   UNL     1      -4.292   2.106   6.217  0.00  0.00    -0.128 OA
ATOM     17  H   UNL     1      -3.752  -0.100   4.602  0.00  0.00    +0.113 HD
ATOM     18  H   UNL     1      -5.765  -0.036   2.831  0.00  0.00    -0.055 HD
ENDROOT
BRANCH  15  19
ATOM     19  C   UNL     1      -1.157  -2.918  -0.472  0.00  0.00    +0.024 A 
ATOM     20  C   UNL     1      -1.343  -3.504  -1.723  0.00  0.00    +0.012 A 
ATOM     21  C   UNL     1      -0.463  -4.468  -2.169  0.00  0.00    +0.001 A 
ATOM     22  C   UNL     1       0.605  -4.857  -1.379  0.00  0.00    +0.004 A 
ATOM     23  C   UNL     1       0.798  -4.284  -0.137  0.00  0.00    +0.046 A 
ATOM     24  C   UNL     1      -0.074  -3.309   0.321  0.00  0.00    +0.125 A 
BRANCH  24  25
ATOM     25  O   UNL     1       0.118  -2.740   1.540  0.00  0.00    -0.506 OA
ATOM     26  H   UNL     1      -0.325  -3.203   2.264  0.00  0.00    +0.292 HD
ENDBRANCH  24  25
ENDBRANCH  15  19
BRANCH   1  28
ATOM     27  C   UNL     1      -0.022   1.810   0.012  0.00  0.00    +0.090 C 
ATOM     28  S   UNL     1       0.002  -0.004   0.002  0.00  0.00    -0.128 S 
ENDBRANCH   1  28
TORSDOF 3
