REMARK  Name = ZINC63140296
REMARK  6 active torsions:
REMARK  status: ('A' for Active; 'I' for Inactive)
REMARK    1  A    between atoms: C_1  and  O_2
REMARK    2  A    between atoms: O_2  and  C_3
REMARK    3  A    between atoms: C_8  and  C_9
REMARK    4  A    between atoms: N_28  and  C_31
REMARK    5  A    between atoms: C_31  and  C_32
REMARK    6  A    between atoms: C_32  and  C_33
REMARK                            x       y       z     vdW  Elec       q    Type
REMARK                         _______ _______ _______ _____ _____    ______ ____
ROOT
ATOM      1  C   UNL     1       0.051  -2.828  -0.033  0.00  0.00    +0.137 C 
ATOM      2  C   UNL     1      -1.445  -2.988  -0.304  0.00  0.00    +0.131 C 
ATOM      3  C   UNL     1      -1.557  -4.006  -1.437  0.00  0.00    -0.034 C 
ATOM      4  C   UNL     1      -2.151  -3.389  -2.449  0.00  0.00    -0.001 A 
ATOM      5  C   UNL     1      -2.550  -3.860  -3.785  0.00  0.00    +0.010 A 
ATOM      6  C   UNL     1      -3.146  -2.942  -4.591  0.00  0.00    +0.001 A 
ATOM      7  C   UNL     1      -3.383  -1.619  -4.205  0.00  0.00    +0.002 A 
ATOM      8  C   UNL     1      -3.050  -1.101  -2.997  0.00  0.00    +0.026 A 
ATOM      9  C   UNL     1      -2.418  -1.970  -2.061  0.00  0.00    +0.043 A 
ATOM     10  N   UNL     1      -2.009  -1.738  -0.830  0.00  0.00    -0.375 N 
ATOM     11  C   UNL     1      -1.017  -5.402  -1.286  0.00  0.00    +0.065 C 
ATOM     12  C   UNL     1       0.311  -5.363  -0.575  0.00  0.00    +0.167 C 
ATOM     13  N   UNL     1       0.734  -4.113   0.017  0.00  0.00    -0.279 N 
ATOM     14  C   UNL     1       1.948  -4.149   0.658  0.00  0.00    +0.234 C 
ATOM     15  O   UNL     1       2.381  -3.184   1.252  0.00  0.00    -0.274 OA
ATOM     16  C   UNL     1       2.720  -5.449   0.589  0.00  0.00    +0.203 C 
ATOM     17  N   UNL     1       2.657  -5.957  -0.794  0.00  0.00    -0.291 N 
ATOM     18  C   UNL     1       1.436  -5.941  -1.395  0.00  0.00    +0.237 C 
ATOM     19  O   UNL     1       1.265  -6.366  -2.518  0.00  0.00    -0.274 OA
ATOM     20  H   UNL     1      -2.062  -0.896  -0.350  0.00  0.00    +0.160 HD
ENDROOT
BRANCH   1  26
ATOM     21  C   UNL     1       0.606  -0.607  -1.056  0.00  0.00    +0.125 A 
ATOM     22  C   UNL     1       1.173   0.161  -2.063  0.00  0.00    +0.046 A 
ATOM     23  C   UNL     1       1.786  -0.455  -3.136  0.00  0.00    +0.004 A 
ATOM     24  C   UNL     1       1.836  -1.835  -3.208  0.00  0.00    +0.001 A 
ATOM     25  C   UNL     1       1.271  -2.602  -2.207  0.00  0.00    +0.009 A 
ATOM     26  C   UNL     1       0.661  -1.991  -1.128  0.00  0.00    +0.017 A 
BRANCH  21  28
ATOM     27  C   UNL     1      -0.017   1.425   0.010  0.00  0.00    +0.277 C 
ATOM     28  O   UNL     1       0.002  -0.004   0.002  0.00  0.00    -0.495 OA
ENDBRANCH  21  28
ENDBRANCH   1  26
BRANCH  17  29
ATOM     29  C   UNL     1       3.849  -6.454  -1.486  0.00  0.00    +0.113 C 
BRANCH  29  30
ATOM     30  C   UNL     1       4.002  -7.954  -1.227  0.00  0.00    +0.054 C 
BRANCH  30  31
ATOM     31  C   UNL     1       5.228  -8.464  -1.939  0.00  0.00    -0.046 A 
ATOM     32  C   UNL     1       5.130  -8.927  -3.238  0.00  0.00    +0.006 A 
ATOM     33  C   UNL     1       6.254  -9.396  -3.892  0.00  0.00    +0.038 A 
ATOM     34  C   UNL     1       7.479  -9.401  -3.245  0.00  0.00    +0.123 A 
ATOM     35  C   UNL     1       7.575  -8.937  -1.944  0.00  0.00    +0.038 A 
ATOM     36  C   UNL     1       6.451  -8.464  -1.294  0.00  0.00    +0.006 A 
ATOM     37  F   UNL     1       8.578  -9.858  -3.883  0.00  0.00    -0.205 F 
ENDBRANCH  30  31
ENDBRANCH  29  30
ENDBRANCH  17  29
TORSDOF 5
