REMARK  Name = ZINC56060218
REMARK  3 active torsions:
REMARK  status: ('A' for Active; 'I' for Inactive)
REMARK    1  A    between atoms: C_9  and  S_11
REMARK    2  A    between atoms: S_11  and  N_14
REMARK    3  A    between atoms: N_14  and  C_15
REMARK                            x       y       z     vdW  Elec       q    Type
REMARK                         _______ _______ _______ _____ _____    ______ ____
ROOT
ATOM      1  N   UNL     1       5.630  -3.040  -1.988  0.00  0.00    -0.187 NA
ATOM      2  H   UNL     1       5.653  -3.929  -2.374  0.00  0.00    +0.148 HD
ENDROOT
BRANCH   1   3
ATOM      3  C   UNL     1       5.991  -1.878  -2.803  0.00  0.00    +0.079 C 
ATOM      4  C   UNL     1       4.767  -1.407  -3.591  0.00  0.00    +0.039 C 
ATOM      5  C   UNL     1       5.140  -0.171  -4.415  0.00  0.00    +0.108 C 
ATOM      6  N   UNL     1       6.306  -0.492  -5.248  0.00  0.00    -0.317 N 
ATOM      7  C   UNL     1       7.507  -1.038  -4.602  0.00  0.00    +0.108 C 
ATOM      8  C   UNL     1       7.108  -2.265  -3.775  0.00  0.00    +0.039 C 
ATOM      9  C   UNL     1       6.274  -0.284  -6.622  0.00  0.00    +0.099 A 
ATOM     10  C   UNL     1       7.428  -0.476  -7.376  0.00  0.00    +0.042 A 
ATOM     11  C   UNL     1       7.382  -0.266  -8.742  0.00  0.00    +0.005 A 
ATOM     12  C   UNL     1       6.179   0.131  -9.311  0.00  0.00    +0.018 A 
ATOM     13  C   UNL     1       5.073   0.303  -8.504  0.00  0.00    +0.084 A 
ATOM     14  N   UNL     1       5.145   0.089  -7.203  0.00  0.00    -0.350 N 
ATOM     15  H   UNL     1       4.352   0.214  -6.659  0.00  0.00    +0.166 HD
ENDBRANCH   1   3
BRANCH   1  16
ATOM     16  S   UNL     1       5.181  -2.835  -0.407  0.00  0.00    +0.055 S 
ATOM     17  O   UNL     1       6.165  -2.001   0.190  0.00  0.00    -0.153 OA
ATOM     18  O   UNL     1       4.870  -4.127   0.098  0.00  0.00    -0.153 OA
BRANCH  16  27
ATOM     19  C   UNL     1       0.043   1.520   0.029  0.00  0.00    +0.000 A 
ATOM     20  C   UNL     1       1.243   2.209   0.018  0.00  0.00    +0.001 A 
ATOM     21  C   UNL     1       2.438   1.520  -0.010  0.00  0.00    +0.008 A 
ATOM     22  C   UNL     1       2.433   0.128  -0.032  0.00  0.00    -0.020 A 
ATOM     23  C   UNL     1       1.220  -0.563   0.001  0.00  0.00    -0.040 A 
ATOM     24  C   UNL     1       0.032   0.136   0.022  0.00  0.00    +0.004 A 
ATOM     25  C   UNL     1       1.226  -2.069   0.034  0.00  0.00    +0.042 C 
ATOM     26  C   UNL     1       2.394  -2.603  -0.792  0.00  0.00    +0.061 C 
ATOM     27  C   UNL     1       3.676  -1.919  -0.406  0.00  0.00    +0.084 C 
ATOM     28  C   UNL     1       3.694  -0.640  -0.067  0.00  0.00    +0.032 C 
ENDBRANCH  16  27
ENDBRANCH   1  16
TORSDOF 3
