REMARK  Name = ZINC66571548
REMARK  7 active torsions:
REMARK  status: ('A' for Active; 'I' for Inactive)
REMARK    1  A    between atoms: C_1  and  C_2
REMARK    2  A    between atoms: C_7  and  C_16
REMARK    3  A    between atoms: N_11  and  S_12
REMARK    4  A    between atoms: S_12  and  C_15
REMARK    5  A    between atoms: N_18  and  N_19
REMARK    6  A    between atoms: C_20  and  C_22
REMARK    7  A    between atoms: C_22  and  C_23
REMARK                            x       y       z     vdW  Elec       q    Type
REMARK                         _______ _______ _______ _____ _____    ______ ____
ROOT
ATOM      1  C   UNL     1       5.016  -3.387  -1.114  0.00  0.00    +0.260 C 
ATOM      2  O   UNL     1       5.089  -3.429  -2.327  0.00  0.00    -0.269 OA
ATOM      3  N   UNL     1       5.939  -4.017  -0.361  0.00  0.00    -0.230 N 
ATOM      4  H   UNL     1       5.881  -3.984   0.607  0.00  0.00    +0.173 HD
ENDROOT
BRANCH   1  10
ATOM      5  C   UNL     1      -0.019   1.526   0.010  0.00  0.00    +0.030 C 
ATOM      6  C   UNL     1       0.002  -0.004   0.002  0.00  0.00    +0.099 C 
ATOM      7  C   UNL     1       0.778  -0.520  -1.221  0.00  0.00    +0.061 C 
ATOM      8  C   UNL     1       1.931  -1.303  -0.633  0.00  0.00    -0.022 A 
ATOM      9  C   UNL     1       2.956  -1.992  -1.242  0.00  0.00    +0.018 A 
ATOM     10  C   UNL     1       3.916  -2.647  -0.466  0.00  0.00    +0.039 A 
ATOM     11  C   UNL     1       3.827  -2.596   0.928  0.00  0.00    +0.015 A 
ATOM     12  C   UNL     1       2.802  -1.907   1.528  0.00  0.00    +0.026 A 
ATOM     13  C   UNL     1       1.838  -1.250   0.752  0.00  0.00    +0.054 A 
ATOM     14  N   UNL     1       0.735  -0.509   1.166  0.00  0.00    -0.204 N 
BRANCH  14  15
ATOM     15  S   UNL     1       0.312  -0.235   2.743  0.00  0.00    +0.043 S 
ATOM     16  O   UNL     1       1.530  -0.337   3.468  0.00  0.00    -0.155 OA
ATOM     17  O   UNL     1      -0.416   0.985   2.717  0.00  0.00    -0.155 OA
ATOM     18  C   UNL     1      -0.789  -1.611   3.176  0.00  0.00    +0.218 C 
ENDBRANCH  14  15
ENDBRANCH   1  10
BRANCH   3  19
ATOM     19  N   UNL     1       6.984  -4.720  -0.976  0.00  0.00    -0.234 N 
ATOM     20  C   UNL     1       7.907  -5.349  -0.223  0.00  0.00    +0.229 C 
ATOM     21  O   UNL     1       7.834  -5.308   0.987  0.00  0.00    -0.274 OA
ATOM     22  H   UNL     1       7.042  -4.753  -1.944  0.00  0.00    +0.173 HD
BRANCH  20  23
ATOM     23  C   UNL     1       9.030  -6.105  -0.885  0.00  0.00    +0.101 C 
BRANCH  23  24
ATOM     24  C   UNL     1       9.931  -6.722   0.187  0.00  0.00    -0.002 C 
ATOM     25  C   UNL     1      10.609  -5.607   0.987  0.00  0.00    +0.004 C 
ATOM     26  C   UNL     1      11.510  -6.223   2.059  0.00  0.00    +0.000 C 
ATOM     27  C   UNL     1      12.577  -7.093   1.390  0.00  0.00    +0.000 C 
ATOM     28  C   UNL     1      11.899  -8.208   0.591  0.00  0.00    +0.000 C 
ATOM     29  C   UNL     1      10.998  -7.591  -0.481  0.00  0.00    +0.004 C 
ENDBRANCH  23  24
ENDBRANCH  20  23
ENDBRANCH   3  19
TORSDOF 5
