REMARK  Name = ZINC51732913
REMARK  3 active torsions:
REMARK  status: ('A' for Active; 'I' for Inactive)
REMARK    1  A    between atoms: C_1  and  C_2
REMARK    2  A    between atoms: C_7  and  C_10
REMARK    3  A    between atoms: C_11  and  C_13
REMARK                            x       y       z     vdW  Elec       q    Type
REMARK                         _______ _______ _______ _____ _____    ______ ____
ROOT
ATOM      1  C   UNL     1       3.239  -3.486  -1.060  0.00  0.00    +0.276 C 
ATOM      2  C   UNL     1       2.343  -4.478  -1.816  0.00  0.00    +0.155 C 
ATOM      3  N   UNL     1       3.083  -4.928  -3.008  0.00  0.00    -0.337 N 
ATOM      4  C   UNL     1       4.448  -5.218  -2.858  0.00  0.00    +0.070 A 
ATOM      5  C   UNL     1       5.125  -5.908  -3.850  0.00  0.00    +0.026 A 
ATOM      6  C   UNL     1       6.470  -6.189  -3.700  0.00  0.00    +0.002 A 
ATOM      7  C   UNL     1       7.139  -5.780  -2.561  0.00  0.00    +0.004 A 
ATOM      8  C   UNL     1       6.469  -5.092  -1.567  0.00  0.00    +0.047 A 
ATOM      9  C   UNL     1       5.119  -4.808  -1.708  0.00  0.00    +0.142 A 
ATOM     10  O   UNL     1       4.467  -4.135  -0.723  0.00  0.00    -0.476 OA
ATOM     11  H   UNL     1       2.641  -5.020  -3.866  0.00  0.00    +0.146 HD
ENDROOT
BRANCH   1  20
ATOM     12  C   UNL     1      -0.473   1.505   0.100  0.00  0.00    +0.007 C 
ATOM     13  C   UNL     1      -0.226  -0.004   0.059  0.00  0.00    -0.011 C 
ATOM     14  C   UNL     1       0.686  -0.339  -1.124  0.00  0.00    +0.022 C 
ATOM     15  C   UNL     1       0.902  -1.855  -1.183  0.00  0.00    +0.108 C 
ATOM     16  N   UNL     1       1.409  -2.311   0.118  0.00  0.00    -0.296 N 
ATOM     17  C   UNL     1       0.656  -1.964   1.331  0.00  0.00    +0.073 C 
ATOM     18  C   UNL     1       0.442  -0.448   1.362  0.00  0.00    +0.025 C 
ATOM     19  C   UNL     1       1.446  -2.399   2.567  0.00  0.00    +0.028 C 
ATOM     20  C   UNL     1       2.544  -3.034   0.198  0.00  0.00    +0.258 C 
ATOM     21  O   UNL     1       3.005  -3.321   1.282  0.00  0.00    -0.271 OA
ENDBRANCH   1  20
TORSDOF 1
