REMARK  Name = ZINC14551241
REMARK  3 active torsions:
REMARK  status: ('A' for Active; 'I' for Inactive)
REMARK    1  A    between atoms: C_1  and  C_2
REMARK    2  A    between atoms: C_3  and  N_24
REMARK    3  A    between atoms: C_9  and  C_18
REMARK                            x       y       z     vdW  Elec       q    Type
REMARK                         _______ _______ _______ _____ _____    ______ ____
ROOT
ATOM      1  C   UNL     1       0.184   2.084  -0.353  0.00  0.00    +0.048 C 
ATOM      2  C   UNL     1       0.869   0.745  -0.258  0.00  0.00    +0.001 A 
ATOM      3  C   UNL     1       0.131  -0.386   0.019  0.00  0.00    +0.131 A 
ATOM      4  C   UNL     1       0.761  -1.613   0.106  0.00  0.00    +0.033 A 
ATOM      5  C   UNL     1       2.124  -1.705  -0.086  0.00  0.00    +0.008 A 
ATOM      6  C   UNL     1       2.877  -0.573  -0.367  0.00  0.00    -0.019 A 
ATOM      7  C   UNL     1       2.247   0.657  -0.452  0.00  0.00    +0.036 A 
ATOM      8  N   UNL     1       2.946   1.832  -0.727  0.00  0.00    -0.336 N 
ATOM      9  C   UNL     1       4.176   1.581  -1.479  0.00  0.00    +0.105 C 
ATOM     10  C   UNL     1       5.068   0.621  -0.690  0.00  0.00    +0.029 C 
ATOM     11  C   UNL     1       4.354  -0.742  -0.571  0.00  0.00    +0.049 C 
ATOM     12  C   UNL     1       4.636  -1.423  -1.890  0.00  0.00    -0.023 C 
ATOM     13  C   UNL     1       5.685  -0.891  -2.465  0.00  0.00    -0.030 C 
ATOM     14  C   UNL     1       6.259   0.217  -1.605  0.00  0.00    +0.033 C 
ATOM     15  H   UNL     1       3.138   2.345   0.120  0.00  0.00    +0.147 HD
ENDROOT
BRANCH   9  16
ATOM     16  C   UNL     1       3.833   0.968  -2.812  0.00  0.00    -0.027 A 
ATOM     17  C   UNL     1       4.757   0.989  -3.841  0.00  0.00    +0.005 A 
ATOM     18  C   UNL     1       4.444   0.422  -5.062  0.00  0.00    +0.000 A 
ATOM     19  C   UNL     1       3.204  -0.157  -5.259  0.00  0.00    +0.000 A 
ATOM     20  C   UNL     1       2.279  -0.173  -4.232  0.00  0.00    +0.000 A 
ATOM     21  C   UNL     1       2.593   0.389  -3.009  0.00  0.00    +0.005 A 
ENDBRANCH   9  16
BRANCH   3  22
ATOM     22  N   UNL     1      -1.333  -0.286   0.217  0.00  0.00    +0.057 N 
ATOM     23  O   UNL     1      -2.002  -1.298   0.333  0.00  0.00    -0.126 OA
ATOM     24  O   UNL     1      -1.868   0.807   0.266  0.00  0.00    -0.126 OA
ENDBRANCH   3  22
TORSDOF 2
