REMARK  Name = ZINC12949505
REMARK  3 active torsions:
REMARK  status: ('A' for Active; 'I' for Inactive)
REMARK    1  A    between atoms: C_6  and  C_7
REMARK    2  A    between atoms: C_9  and  C_12
REMARK    3  A    between atoms: C_12  and  N_13
REMARK                            x       y       z     vdW  Elec       q    Type
REMARK                         _______ _______ _______ _____ _____    ______ ____
ROOT
ATOM      1  C   UNL     1      -3.758   0.828   3.358  0.00  0.00    +0.259 A 
ATOM      2  N   UNL     1      -3.660   1.449   2.195  0.00  0.00    -0.190 NA
ATOM      3  C   UNL     1      -2.865   0.675   1.440  0.00  0.00    +0.192 A 
ATOM      4  N   UNL     1      -2.527  -0.358   2.154  0.00  0.00    -0.059 NA
ATOM      5  O   UNL     1      -3.022  -0.290   3.259  0.00  0.00    -0.333 OA
ENDROOT
BRANCH   1  11
ATOM      6  C   UNL     1      -5.245   2.474   4.490  0.00  0.00    +0.016 A 
ATOM      7  C   UNL     1      -5.964   2.887   5.591  0.00  0.00    +0.039 A 
ATOM      8  C   UNL     1      -5.968   2.121   6.746  0.00  0.00    +0.123 A 
ATOM      9  C   UNL     1      -5.254   0.934   6.799  0.00  0.00    +0.039 A 
ATOM     10  C   UNL     1      -4.535   0.510   5.702  0.00  0.00    +0.016 A 
ATOM     11  C   UNL     1      -4.527   1.278   4.536  0.00  0.00    +0.040 A 
ATOM     12  F   UNL     1      -6.670   2.533   7.824  0.00  0.00    -0.205 F 
ENDBRANCH   1  11
BRANCH   3  13
ATOM     13  C   UNL     1      -2.446   0.950   0.018  0.00  0.00    +0.206 C 
BRANCH  13  14
ATOM     14  N   UNL     1      -1.204   1.726   0.017  0.00  0.00    -0.291 N 
ATOM     15  C   UNL     1      -0.013   1.076   0.008  0.00  0.00    +0.203 A 
ATOM     16  N   UNL     1       1.116   1.733   0.001  0.00  0.00    -0.230 NA
ATOM     17  C   UNL     1       1.135   3.062   0.008  0.00  0.00    +0.115 A 
ATOM     18  C   UNL     1      -0.048   3.823   0.023  0.00  0.00    +0.072 A 
ATOM     19  C   UNL     1      -1.268   3.071   0.030  0.00  0.00    +0.263 A 
ATOM     20  O   UNL     1      -2.346   3.640   0.043  0.00  0.00    -0.267 OA
ATOM     21  C   UNL     1       0.147   5.261   0.029  0.00  0.00    +0.023 A 
ATOM     22  C   UNL     1       1.396   5.753   0.020  0.00  0.00    +0.048 A 
ATOM     23  S   UNL     1       2.416   4.290   0.002  0.00  0.00    -0.077 S 
ENDBRANCH  13  14
ENDBRANCH   3  13
TORSDOF 3
