REMARK  Name = ZINC08686591
REMARK  8 active torsions:
REMARK  status: ('A' for Active; 'I' for Inactive)
REMARK    1  A    between atoms: C_1  and  C_2
REMARK    2  A    between atoms: C_2  and  O_20
REMARK    3  A    between atoms: C_4  and  C_18
REMARK    4  A    between atoms: C_4  and  C_19
REMARK    5  A    between atoms: N_7  and  C_8
REMARK    6  A    between atoms: C_8  and  C_9
REMARK    7  A    between atoms: C_12  and  O_15
REMARK    8  A    between atoms: O_15  and  C_16
REMARK                            x       y       z     vdW  Elec       q    Type
REMARK                         _______ _______ _______ _____ _____    ______ ____
ROOT
ATOM      1  C   UNL     1      -0.675   1.639   0.086  0.00  0.00    +0.063 C 
ATOM      2  C   UNL     1      -0.471   0.129  -0.054  0.00  0.00    +0.134 C 
ATOM      3  C   UNL     1      -1.771  -0.606   0.304  0.00  0.00    +0.082 C 
ATOM      4  C   UNL     1      -1.544  -2.111   0.144  0.00  0.00    +0.039 C 
ATOM      5  N   UNL     1      -0.333  -2.523   0.846  0.00  0.00    -0.362 N 
ATOM      6  C   UNL     1       0.663  -1.656   1.167  0.00  0.00    +0.144 C 
ATOM      7  N   UNL     1       0.570  -0.323   0.881  0.00  0.00    -0.279 N 
ATOM      8  S   UNL     1       2.024  -2.230   1.925  0.00  0.00    -0.016 SA
ATOM      9  C   UNL     1      -2.744  -2.866   0.720  0.00  0.00    +0.034 C 
ATOM     10  C   UNL     1      -1.405  -2.445  -1.343  0.00  0.00    +0.034 C 
ATOM     11  H   UNL     1      -0.235  -3.455   1.094  0.00  0.00    +0.162 HD
ENDROOT
BRANCH   2  12
ATOM     12  O   UNL     1      -0.089  -0.186  -1.394  0.00  0.00    -0.372 OA
ATOM     13  H   UNL     1       0.733   0.236  -1.678  0.00  0.00    +0.212 HD
ENDBRANCH   2  12
BRANCH   7  14
ATOM     14  C   UNL     1       1.490   0.638   1.493  0.00  0.00    +0.144 C 
BRANCH  14  15
ATOM     15  C   UNL     1       2.734   0.750   0.650  0.00  0.00    -0.030 A 
ATOM     16  C   UNL     1       3.854   0.005   0.969  0.00  0.00    +0.009 A 
ATOM     17  C   UNL     1       4.995   0.106   0.197  0.00  0.00    +0.046 A 
ATOM     18  C   UNL     1       5.018   0.957  -0.898  0.00  0.00    +0.120 A 
ATOM     19  C   UNL     1       3.893   1.704  -1.216  0.00  0.00    +0.046 A 
ATOM     20  C   UNL     1       2.752   1.595  -0.445  0.00  0.00    +0.009 A 
BRANCH  18  21
ATOM     21  O   UNL     1       6.139   1.058  -1.659  0.00  0.00    -0.495 OA
ATOM     22  C   UNL     1       6.090   1.954  -2.771  0.00  0.00    +0.277 C 
ENDBRANCH  18  21
ENDBRANCH  14  15
ENDBRANCH   7  14
TORSDOF 4
