REMARK  Name = ZINC01805632
REMARK  5 active torsions:
REMARK  status: ('A' for Active; 'I' for Inactive)
REMARK    1  A    between atoms: C_4  and  C_7
REMARK    2  A    between atoms: C_12  and  S_15
REMARK    3  A    between atoms: S_15  and  C_16
REMARK    4  A    between atoms: C_16  and  C_17
REMARK    5  A    between atoms: C_22  and  C_25
REMARK                            x       y       z     vdW  Elec       q    Type
REMARK                         _______ _______ _______ _____ _____    ______ ____
ROOT
ATOM      1  C   UNL     1       1.909  -2.154  -4.647  0.00  0.00    +0.173 C 
ENDROOT
BRANCH   1   2
ATOM      2  C   UNL     1       0.613  -1.808  -5.336  0.00  0.00    +0.230 C 
ATOM      3  O   UNL     1      -0.187  -1.078  -4.790  0.00  0.00    -0.274 OA
ATOM      4  N   UNL     1       0.344  -2.309  -6.557  0.00  0.00    -0.253 N 
ATOM      5  C   UNL     1      -0.857  -1.988  -7.195  0.00  0.00    +0.230 A 
ATOM      6  N   UNL     1      -1.141  -2.471  -8.385  0.00  0.00    -0.205 NA
ATOM      7  C   UNL     1      -2.298  -2.123  -8.930  0.00  0.00    +0.130 A 
ATOM      8  S   UNL     1      -2.968  -1.123  -7.757  0.00  0.00    +0.035 S 
ATOM      9  N   UNL     1      -1.739  -1.198  -6.620  0.00  0.00    -0.174 NA
ATOM     10  H   UNL     1       0.984  -2.893  -6.994  0.00  0.00    +0.158 HD
BRANCH   7  11
ATOM     11  C   UNL     1      -2.860  -2.518 -10.240  0.00  0.00    +0.009 A 
ATOM     12  C   UNL     1      -2.144  -3.372 -11.080  0.00  0.00    +0.010 A 
ATOM     13  C   UNL     1      -2.674  -3.736 -12.301  0.00  0.00    +0.001 A 
ATOM     14  C   UNL     1      -3.910  -3.256 -12.693  0.00  0.00    +0.000 A 
ATOM     15  C   UNL     1      -4.624  -2.408 -11.865  0.00  0.00    +0.001 A 
ATOM     16  C   UNL     1      -4.109  -2.041 -10.639  0.00  0.00    +0.010 A 
ENDBRANCH   7  11
ENDBRANCH   1   2
BRANCH   1  17
ATOM     17  S   UNL     1       1.974  -1.331  -3.032  0.00  0.00    -0.076 S 
BRANCH  17  23
ATOM     18  C   UNL     1       3.695  -0.684  -0.037  0.00  0.00    +0.065 A 
ATOM     19  C   UNL     1       4.530  -0.590   1.016  0.00  0.00    +0.075 A 
ATOM     20  S   UNL     1       5.900  -1.613   0.501  0.00  0.00    -0.055 S 
ATOM     21  C   UNL     1       5.260  -2.095  -1.084  0.00  0.00    +0.201 A 
ATOM     22  N   UNL     1       4.041  -1.457  -1.132  0.00  0.00    -0.264 N 
ATOM     23  C   UNL     1       3.526  -1.828  -2.363  0.00  0.00    +0.197 A 
ATOM     24  N   UNL     1       4.398  -2.614  -2.940  0.00  0.00    -0.121 NA
ATOM     25  N   UNL     1       5.428  -2.764  -2.182  0.00  0.00    -0.121 NA
BRANCH  18  29
ATOM     26  C   UNL     1      -0.017   1.379   0.010  0.00  0.00    +0.000 A 
ATOM     27  C   UNL     1       1.168   2.094   0.002  0.00  0.00    +0.001 A 
ATOM     28  C   UNL     1       2.377   1.429  -0.013  0.00  0.00    +0.010 A 
ATOM     29  C   UNL     1       2.404   0.034  -0.021  0.00  0.00    -0.001 A 
ATOM     30  C   UNL     1       1.204  -0.681  -0.013  0.00  0.00    +0.010 A 
ATOM     31  C   UNL     1       0.002  -0.004   0.002  0.00  0.00    +0.001 A 
ENDBRANCH  18  29
ENDBRANCH  17  23
ENDBRANCH   1  17
TORSDOF 5
