REMARK  Name = ZINC67145532
REMARK  4 active torsions:
REMARK  status: ('A' for Active; 'I' for Inactive)
REMARK    1  A    between atoms: C_1  and  C_2
REMARK    2  A    between atoms: C_4  and  C_14
REMARK    3  A    between atoms: N_16  and  C_17
REMARK    4  A    between atoms: C_22  and  O_23
REMARK                            x       y       z     vdW  Elec       q    Type
REMARK                         _______ _______ _______ _____ _____    ______ ____
ROOT
ATOM      1  C   UNL     1      -1.994  -0.136  -1.199  0.00  0.00    +0.262 C 
ATOM      2  O   UNL     1      -1.847   0.999  -1.601  0.00  0.00    -0.271 OA
ATOM      3  N   UNL     1      -2.857  -0.964  -1.821  0.00  0.00    -0.279 N 
ATOM      4  H   UNL     1      -2.994  -1.864  -1.484  0.00  0.00    +0.155 HD
ENDROOT
BRANCH   1   7
ATOM      5  C   UNL     1       0.851   0.521  -0.854  0.00  0.00    +0.056 C 
ATOM      6  C   UNL     1       0.260  -0.814  -0.394  0.00  0.00    +0.220 C 
ATOM      7  C   UNL     1      -1.212  -0.620  -0.005  0.00  0.00    +0.299 C 
ATOM      8  O   UNL     1      -1.730  -1.882   0.432  0.00  0.00    -0.472 OA
ATOM      9  C   UNL     1      -0.960  -2.590   1.303  0.00  0.00    +0.163 A 
ATOM     10  C   UNL     1      -1.532  -3.616   2.039  0.00  0.00    +0.049 A 
ATOM     11  C   UNL     1      -0.763  -4.346   2.925  0.00  0.00    +0.004 A 
ATOM     12  C   UNL     1       0.580  -4.055   3.080  0.00  0.00    +0.004 A 
ATOM     13  C   UNL     1       1.157  -3.033   2.351  0.00  0.00    +0.049 A 
ATOM     14  C   UNL     1       0.389  -2.295   1.462  0.00  0.00    +0.163 A 
ATOM     15  O   UNL     1       0.970  -1.286   0.756  0.00  0.00    -0.481 OA
ENDBRANCH   1   7
BRANCH   3  16
ATOM     16  C   UNL     1      -3.556  -0.526  -2.953  0.00  0.00    +0.077 A 
ATOM     17  C   UNL     1      -3.732   0.831  -3.179  0.00  0.00    +0.047 A 
ATOM     18  C   UNL     1      -4.423   1.261  -4.298  0.00  0.00    +0.043 A 
ATOM     19  C   UNL     1      -4.938   0.340  -5.193  0.00  0.00    +0.023 A 
ATOM     20  C   UNL     1      -4.766  -1.014  -4.973  0.00  0.00    +0.049 A 
ATOM     21  C   UNL     1      -4.070  -1.452  -3.858  0.00  0.00    +0.138 A 
ATOM     22 CL   UNL     1      -4.643   2.960  -4.580  0.00  0.00    -0.083 Cl
BRANCH  21  23
ATOM     23  O   UNL     1      -3.895  -2.783  -3.644  0.00  0.00    -0.505 OA
ATOM     24  H   UNL     1      -4.600  -3.195  -3.125  0.00  0.00    +0.292 HD
ENDBRANCH  21  23
ENDBRANCH   3  16
TORSDOF 3
