REMARK  Name = ZINC20566582
REMARK  7 active torsions:
REMARK  status: ('A' for Active; 'I' for Inactive)
REMARK    1  A    between atoms: C_1  and  C_2
REMARK    2  A    between atoms: C_2  and  C_3
REMARK    3  A    between atoms: C_3  and  C_4
REMARK    4  A    between atoms: C_4  and  N_5
REMARK    5  A    between atoms: C_10  and  C_28
REMARK    6  A    between atoms: C_28  and  C_29
REMARK    7  A    between atoms: C_29  and  C_30
REMARK                            x       y       z     vdW  Elec       q    Type
REMARK                         _______ _______ _______ _____ _____    ______ ____
ROOT
ATOM      1  N   UNL     1      -2.787  -2.571   0.015  0.00  0.00    -0.242 N 
ATOM      2  C   UNL     1      -3.488  -2.833   1.158  0.00  0.00    +0.227 C 
ATOM      3  O   UNL     1      -3.230  -2.449   2.279  0.00  0.00    -0.275 OA
ATOM      4  C   UNL     1      -4.646  -3.696   0.737  0.00  0.00    +0.107 C 
ATOM      5  C   UNL     1      -6.037  -3.419   1.321  0.00  0.00    +0.068 C 
ATOM      6  N   UNL     1      -6.947  -3.750   0.175  0.00  0.00    -0.295 NA
ATOM      7  C   UNL     1      -6.174  -3.529  -1.086  0.00  0.00    +0.136 C 
ATOM      8  C   UNL     1      -4.870  -2.994  -0.662  0.00  0.00    +0.122 C 
ATOM      9  C   UNL     1      -3.511  -2.828  -1.123  0.00  0.00    +0.228 C 
ATOM     10  O   UNL     1      -3.101  -2.901  -2.261  0.00  0.00    -0.275 OA
ATOM     11  C   UNL     1      -6.067  -4.828  -1.843  0.00  0.00    +0.005 A 
ATOM     12  C   UNL     1      -5.477  -6.040  -1.558  0.00  0.00    +0.008 A 
ATOM     13  C   UNL     1      -5.543  -7.075  -2.473  0.00  0.00    +0.002 A 
ATOM     14  C   UNL     1      -6.204  -6.890  -3.674  0.00  0.00    +0.022 A 
ATOM     15  C   UNL     1      -6.799  -5.679  -3.963  0.00  0.00    +0.062 A 
ATOM     16  C   UNL     1      -6.736  -4.631  -3.045  0.00  0.00    +0.057 A 
ATOM     17  N   UNL     1      -7.249  -3.333  -3.105  0.00  0.00    -0.282 N 
ATOM     18  C   UNL     1      -6.965  -2.623  -1.999  0.00  0.00    +0.243 C 
ATOM     19  O   UNL     1      -7.283  -1.474  -1.777  0.00  0.00    -0.273 OA
ATOM     20 CL   UNL     1      -7.627  -5.459  -5.473  0.00  0.00    -0.082 Cl
ATOM     21  H   UNL     1      -7.274  -4.703   0.236  0.00  0.00    +0.123 HD
ATOM     22  H   UNL     1      -7.751  -2.985  -3.858  0.00  0.00    +0.155 HD
ENDROOT
BRANCH   1  23
ATOM     23  C   UNL     1      -1.413  -2.063   0.004  0.00  0.00    +0.116 C 
BRANCH  23  24
ATOM     24  C   UNL     1      -1.433  -0.534   0.013  0.00  0.00    +0.019 C 
BRANCH  24  26
ATOM     25  C   UNL     1      -0.019   1.526   0.010  0.00  0.00    +0.004 C 
ATOM     26  C   UNL     1       0.002  -0.004   0.002  0.00  0.00    -0.002 C 
ENDBRANCH  24  26
ENDBRANCH  23  24
ENDBRANCH   1  23
BRANCH   5  27
ATOM     27  C   UNL     1      -6.175  -1.949   1.721  0.00  0.00    +0.028 C 
BRANCH  27  28
ATOM     28  C   UNL     1      -7.523  -1.732   2.411  0.00  0.00    +0.097 C 
BRANCH  28  29
ATOM     29  C   UNL     1      -7.658  -0.284   2.805  0.00  0.00    +0.211 C 
ATOM     30  O   UNL     1      -6.764   0.498   2.558  0.00  0.00    -0.276 OA
ATOM     31  N   UNL     1      -8.772   0.143   3.432  0.00  0.00    -0.329 N 
ATOM     32  H   UNL     1      -9.487  -0.483   3.630  0.00  0.00    +0.145 HD
ATOM     33  H   UNL     1      -8.859   1.075   3.686  0.00  0.00    +0.145 HD
ENDBRANCH  28  29
ENDBRANCH  27  28
ENDBRANCH   5  27
TORSDOF 6
