REMARK  Name = ZINC67231048
REMARK  5 active torsions:
REMARK  status: ('A' for Active; 'I' for Inactive)
REMARK    1  A    between atoms: N_9  and  C_12
REMARK    2  A    between atoms: C_12  and  C_13
REMARK    3  A    between atoms: C_13  and  C_14
REMARK    4  A    between atoms: C_14  and  N_15
REMARK    5  A    between atoms: C_19  and  C_21
REMARK                            x       y       z     vdW  Elec       q    Type
REMARK                         _______ _______ _______ _____ _____    ______ ____
ROOT
ATOM      1  N   UNL     1       4.701  -5.915  -2.914  0.00  0.00    +0.384 N 
ATOM      2  C   UNL     1       3.671  -6.660  -3.669  0.00  0.00    -0.078 C 
ATOM      3  C   UNL     1       4.469  -7.568  -4.637  0.00  0.00    -0.020 C 
ATOM      4  C   UNL     1       5.684  -7.970  -3.760  0.00  0.00    -0.012 C 
ATOM      5  C   UNL     1       5.952  -6.694  -2.933  0.00  0.00    -0.034 C 
ATOM      6  H   UNL     1       4.854  -5.017  -3.348  0.00  0.00    -0.081 HD
ENDROOT
BRANCH   5   7
ATOM      7  C   UNL     1       6.344  -7.069  -1.526  0.00  0.00    -0.016 A 
ATOM      8  C   UNL     1       5.916  -8.267  -0.986  0.00  0.00    +0.006 A 
ATOM      9  C   UNL     1       6.274  -8.613   0.304  0.00  0.00    +0.004 A 
ATOM     10  C   UNL     1       7.059  -7.761   1.058  0.00  0.00    +0.049 A 
ATOM     11  C   UNL     1       7.491  -6.557   0.522  0.00  0.00    +0.162 A 
ATOM     12  C   UNL     1       7.139  -6.213  -0.778  0.00  0.00    +0.164 A 
ATOM     13  O   UNL     1       7.563  -5.043  -1.328  0.00  0.00    -0.485 OA
ATOM     14  C   UNL     1       8.044  -4.043  -0.422  0.00  0.00    +0.270 C 
ATOM     15  C   UNL     1       8.997  -4.717   0.574  0.00  0.00    +0.270 C 
ATOM     16  O   UNL     1       8.261  -5.727   1.278  0.00  0.00    -0.485 OA
ENDBRANCH   5   7
BRANCH   1  17
ATOM     17  C   UNL     1       4.257  -5.725  -1.527  0.00  0.00    -0.076 C 
BRANCH  17  18
ATOM     18  C   UNL     1       3.028  -4.815  -1.504  0.00  0.00    +0.001 C 
BRANCH  18  19
ATOM     19  C   UNL     1       2.566  -4.617  -0.059  0.00  0.00    +0.115 C 
BRANCH  19  28
ATOM     20  C   UNL     1      -2.703  -1.574  -0.027  0.00  0.00    +0.001 A 
ATOM     21  C   UNL     1      -1.881  -0.467   0.086  0.00  0.00    +0.001 A 
ATOM     22  C   UNL     1      -0.504  -0.616   0.125  0.00  0.00    +0.014 A 
ATOM     23  C   UNL     1       0.053  -1.883   0.052  0.00  0.00    +0.049 A 
ATOM     24  C   UNL     1      -0.784  -3.011  -0.062  0.00  0.00    +0.049 A 
ATOM     25  C   UNL     1      -2.160  -2.847  -0.101  0.00  0.00    +0.014 A 
ATOM     26  C   UNL     1       0.118  -4.181  -0.116  0.00  0.00    +0.254 C 
ATOM     27  O   UNL     1      -0.230  -5.340  -0.215  0.00  0.00    -0.270 OA
ATOM     28  N   UNL     1       1.388  -3.746  -0.038  0.00  0.00    -0.234 N 
ATOM     29  C   UNL     1       1.436  -2.405   0.063  0.00  0.00    +0.254 C 
ATOM     30  O   UNL     1       2.445  -1.736   0.149  0.00  0.00    -0.270 OA
ENDBRANCH  19  28
ENDBRANCH  18  19
ENDBRANCH  17  18
ENDBRANCH   1  17
TORSDOF 5
