REMARK  Name = ZINC37935407
REMARK  4 active torsions:
REMARK  status: ('A' for Active; 'I' for Inactive)
REMARK    1  A    between atoms: C_4  and  N_7
REMARK    2  A    between atoms: N_7  and  C_8
REMARK    3  A    between atoms: C_8  and  C_10
REMARK    4  A    between atoms: C_8  and  C_12
REMARK                            x       y       z     vdW  Elec       q    Type
REMARK                         _______ _______ _______ _____ _____    ______ ____
ROOT
ATOM      1  C   UNL     1       3.641  -2.114  -0.044  0.00  0.00    +0.205 C 
ENDROOT
BRANCH   1   2
ATOM      2  C   UNL     1       4.942  -2.600   0.541  0.00  0.00    -0.008 A 
ATOM      3  C   UNL     1       4.955  -3.703   1.374  0.00  0.00    +0.056 A 
ATOM      4  C   UNL     1       6.150  -4.154   1.913  0.00  0.00    +0.164 A 
ATOM      5  C   UNL     1       7.336  -3.495   1.613  0.00  0.00    +0.180 A 
ATOM      6  C   UNL     1       7.317  -2.387   0.777  0.00  0.00    +0.087 A 
ATOM      7  C   UNL     1       6.122  -1.946   0.239  0.00  0.00    +0.030 A 
ATOM      8 CL   UNL     1       8.796  -1.558   0.403  0.00  0.00    -0.080 Cl
ATOM      9  O   UNL     1       8.522  -3.925   2.125  0.00  0.00    -0.483 OA
ATOM     10  C   UNL     1       8.454  -4.807   3.251  0.00  0.00    +0.270 C 
ATOM     11  C   UNL     1       7.404  -5.886   2.953  0.00  0.00    +0.270 C 
ATOM     12  O   UNL     1       6.145  -5.239   2.735  0.00  0.00    -0.485 OA
ENDBRANCH   1   2
BRANCH   1  13
ATOM     13  N   UNL     1       3.620  -0.649  -0.036  0.00  0.00    -0.325 N 
ATOM     14  H   UNL     1       4.452  -0.152  -0.042  0.00  0.00    +0.148 HD
BRANCH  13  18
ATOM     15  C   UNL     1      -0.017   1.379   0.010  0.00  0.00    +0.000 A 
ATOM     16  C   UNL     1       1.169   2.089   0.002  0.00  0.00    +0.002 A 
ATOM     17  C   UNL     1       2.377   1.420  -0.013  0.00  0.00    +0.023 A 
ATOM     18  C   UNL     1       2.400   0.031  -0.021  0.00  0.00    +0.028 A 
ATOM     19  C   UNL     1       1.206  -0.680  -0.013  0.00  0.00    +0.023 A 
ATOM     20  C   UNL     1       0.002  -0.004   0.002  0.00  0.00    +0.002 A 
ENDBRANCH  13  18
ENDBRANCH   1  13
BRANCH   1  21
ATOM     21  C   UNL     1       3.514  -2.599  -1.428  0.00  0.00    +0.090 C 
ATOM     22  N   UNL     1       3.416  -2.973  -2.496  0.00  0.00    -0.194 NA
ENDBRANCH   1  21
TORSDOF 4
