REMARK  Name = ZINC08338672
REMARK  9 active torsions:
REMARK  status: ('A' for Active; 'I' for Inactive)
REMARK    1  A    between atoms: C_1  and  C_2
REMARK    2  A    between atoms: C_2  and  N_3
REMARK    3  A    between atoms: N_3  and  C_4
REMARK    4  A    between atoms: C_12  and  C_14
REMARK    5  A    between atoms: C_14  and  C_16
REMARK    6  A    between atoms: C_14  and  N_61
REMARK    7  A    between atoms: N_19  and  C_22
REMARK    8  A    between atoms: C_26  and  C_29
REMARK    9  A    between atoms: C_27  and  C_28
REMARK                            x       y       z     vdW  Elec       q    Type
REMARK                         _______ _______ _______ _____ _____    ______ ____
ROOT
ATOM      1  C   UNL     1      -0.256   2.033   0.224  0.00  0.00    -0.059 C 
ATOM      2  C   UNL     1      -0.601   0.920   1.216  0.00  0.00    +0.086 C 
ATOM      3  N   UNL     1      -0.546   1.453   2.584  0.00  0.00    -0.333 N 
ATOM      4  C   UNL     1       0.791   1.980   2.889  0.00  0.00    +0.086 C 
ATOM      5  C   UNL     1       1.136   3.093   1.897  0.00  0.00    -0.059 C 
ATOM      6  N   UNL     1       1.100   2.539   0.527  0.00  0.00    +0.389 N 
ATOM      7  H   UNL     1       1.768   1.762   0.464  0.00  0.00    -0.081 HD
ENDROOT
BRANCH   3   8
ATOM      8  C   UNL     1      -0.926   0.482   3.515  0.00  0.00    +0.033 A 
ATOM      9  C   UNL     1       0.015  -0.054   4.384  0.00  0.00    +0.023 A 
ATOM     10  C   UNL     1      -0.363  -1.013   5.303  0.00  0.00    +0.002 A 
ATOM     11  C   UNL     1      -1.678  -1.439   5.359  0.00  0.00    +0.004 A 
ATOM     12  C   UNL     1      -2.617  -0.907   4.495  0.00  0.00    -0.046 A 
ATOM     13  C   UNL     1      -2.246   0.056   3.576  0.00  0.00    -0.027 A 
ATOM     14  C   UNL     1      -3.272   0.640   2.639  0.00  0.00    +0.046 C 
ATOM     15  C   UNL     1      -4.049  -1.374   4.559  0.00  0.00    +0.044 C 
ENDBRANCH   3   8
BRANCH   6  16
ATOM     16  C   UNL     1       1.481   3.581  -0.450  0.00  0.00    +0.016 C 
ATOM     17  C   UNL     1       0.758   4.894  -0.141  0.00  0.00    -0.004 C 
BRANCH  16  19
ATOM     18  N   UNL     1       3.642   4.257  -1.445  0.00  0.00    -0.298 N 
ATOM     19  C   UNL     1       2.970   3.797  -0.371  0.00  0.00    +0.202 C 
ATOM     20  O   UNL     1       3.564   3.557   0.658  0.00  0.00    -0.277 OA
BRANCH  18  21
ATOM     21  C   UNL     1       5.102   4.372  -1.402  0.00  0.00    +0.098 C 
ATOM     22  C   UNL     1       5.710   3.601  -2.586  0.00  0.00    +0.046 C 
ATOM     23  C   UNL     1       7.211   3.993  -2.699  0.00  0.00    +0.168 C 
ATOM     24  S   UNL     1       7.112   5.803  -2.370  0.00  0.00    -0.029 S 
ATOM     25  O   UNL     1       6.985   6.492  -3.607  0.00  0.00    -0.174 OA
ATOM     26  O   UNL     1       8.150   6.167  -1.471  0.00  0.00    -0.174 OA
ATOM     27  C   UNL     1       5.503   5.865  -1.483  0.00  0.00    +0.188 C 
ENDBRANCH  18  21
BRANCH  18  29
ATOM     28  C   UNL     1       2.642   3.399  -3.506  0.00  0.00    +0.024 C 
ATOM     29  C   UNL     1       2.913   4.643  -2.656  0.00  0.00    +0.104 C 
ENDBRANCH  18  29
ENDBRANCH  16  19
ENDBRANCH   6  16
TORSDOF 5
