REMARK  Name = ZINC09569695
REMARK  5 active torsions:
REMARK  status: ('A' for Active; 'I' for Inactive)
REMARK    1  A    between atoms: C_1  and  C_2
REMARK    2  A    between atoms: C_3  and  S_13
REMARK    3  A    between atoms: C_4  and  C_12
REMARK    4  A    between atoms: C_7  and  C_9
REMARK    5  A    between atoms: S_13  and  N_16
REMARK                            x       y       z     vdW  Elec       q    Type
REMARK                         _______ _______ _______ _____ _____    ______ ____
ROOT
ATOM      1  C   UNL     1      -0.018   1.503   0.010  0.00  0.00    +0.069 C 
ATOM      2  C   UNL     1       0.002  -0.004   0.002  0.00  0.00    +0.087 A 
ATOM      3  C   UNL     1       0.008  -0.818  -1.140  0.00  0.00    +0.149 A 
ATOM      4  C   UNL     1       0.027  -2.106  -0.734  0.00  0.00    +0.071 A 
ATOM      5  N   UNL     1       0.034  -2.107   0.629  0.00  0.00    -0.202 N 
ATOM      6  N   UNL     1       0.023  -0.774   1.058  0.00  0.00    -0.167 NA
ATOM      7  C   UNL     1       0.052  -3.197   1.422  0.00  0.00    +0.251 C 
ATOM      8  O   UNL     1       0.065  -4.301   0.932  0.00  0.00    -0.271 OA
ATOM      9  C   UNL     1       0.040  -3.320  -1.626  0.00  0.00    +0.068 C 
ENDROOT
BRANCH   7  10
ATOM     10  C   UNL     1       0.057  -3.038   2.921  0.00  0.00    +0.080 C 
ATOM     11  C   UNL     1       1.009  -3.927   3.723  0.00  0.00    +0.014 C 
ATOM     12  C   UNL     1      -0.498  -4.194   3.756  0.00  0.00    +0.014 C 
ENDBRANCH   7  10
BRANCH   3  13
ATOM     13  S   UNL     1      -0.008  -0.258  -2.811  0.00  0.00    +0.064 S 
ATOM     14  O   UNL     1      -0.548  -1.317  -3.589  0.00  0.00    -0.153 OA
ATOM     15  O   UNL     1      -0.576   1.044  -2.798  0.00  0.00    -0.153 OA
BRANCH  13  16
ATOM     16  N   UNL     1       1.570  -0.081  -3.283  0.00  0.00    -0.176 NA
ATOM     17  C   UNL     1       2.270   1.195  -3.089  0.00  0.00    +0.109 C 
ATOM     18  C   UNL     1       3.570   0.933  -2.322  0.00  0.00    +0.017 C 
ATOM     19  C   UNL     1       4.389  -0.128  -3.062  0.00  0.00    +0.003 C 
ATOM     20  C   UNL     1       3.595  -1.434  -3.127  0.00  0.00    +0.017 C 
ATOM     21  C   UNL     1       2.297  -1.200  -3.898  0.00  0.00    +0.109 C 
ENDBRANCH  13  16
ENDBRANCH   3  13
TORSDOF 3
