REMARK  Name = ZINC43460559
REMARK  5 active torsions:
REMARK  status: ('A' for Active; 'I' for Inactive)
REMARK    1  A    between atoms: C_1  and  C_2
REMARK    2  A    between atoms: C_2  and  C_23
REMARK    3  A    between atoms: C_9  and  O_13
REMARK    4  A    between atoms: O_13  and  C_14
REMARK    5  A    between atoms: C_20  and  O_22
REMARK                            x       y       z     vdW  Elec       q    Type
REMARK                         _______ _______ _______ _____ _____    ______ ____
ROOT
ATOM      1  C   UNL     1      -0.631   1.736   1.144  0.00  0.00    +0.056 C 
ATOM      2  C   UNL     1      -0.540   0.225   0.919  0.00  0.00    +0.112 C 
ATOM      3  C   UNL     1      -1.943  -0.392   1.006  0.00  0.00    +0.127 C 
ATOM      4  C   UNL     1      -1.788  -1.890   0.809  0.00  0.00    +0.170 C 
ATOM      5  O   UNL     1      -2.577  -2.532   0.148  0.00  0.00    -0.292 OA
ATOM      6  C   UNL     1      -0.630  -2.522   1.460  0.00  0.00    +0.059 A 
ATOM      7  C   UNL     1      -0.535  -3.913   1.552  0.00  0.00    +0.018 A 
ATOM      8  C   UNL     1       0.551  -4.481   2.155  0.00  0.00    +0.046 A 
ATOM      9  C   UNL     1       1.563  -3.679   2.677  0.00  0.00    +0.125 A 
ATOM     10  C   UNL     1       1.480  -2.296   2.596  0.00  0.00    +0.092 A 
ATOM     11  C   UNL     1       0.384  -1.704   1.990  0.00  0.00    +0.135 A 
ATOM     12  O   UNL     1       0.295  -0.356   1.920  0.00  0.00    -0.485 OA
ATOM     13  C   UNL     1       0.055  -0.050  -0.464  0.00  0.00    +0.056 C 
ENDROOT
BRANCH   9  14
ATOM     14  O   UNL     1       2.639  -4.254   3.270  0.00  0.00    -0.486 OA
BRANCH  14  15
ATOM     15  C   UNL     1       3.696  -3.385   3.680  0.00  0.00    +0.202 C 
ATOM     16  C   UNL     1       3.380  -2.814   5.064  0.00  0.00    +0.047 C 
ATOM     17  C   UNL     1       4.513  -1.883   5.502  0.00  0.00    +0.004 C 
ATOM     18  C   UNL     1       5.824  -2.669   5.562  0.00  0.00    +0.003 C 
ATOM     19  C   UNL     1       6.140  -3.240   4.178  0.00  0.00    +0.035 C 
ATOM     20  C   UNL     1       5.008  -4.170   3.740  0.00  0.00    +0.155 C 
BRANCH  20  21
ATOM     21  O   UNL     1       5.303  -4.704   2.447  0.00  0.00    -0.388 OA
ATOM     22  H   UNL     1       6.123  -5.215   2.411  0.00  0.00    +0.210 HD
ENDBRANCH  20  21
ENDBRANCH  14  15
ENDBRANCH   9  14
TORSDOF 3
