REMARK  Name = ZINC40116968
REMARK  6 active torsions:
REMARK  status: ('A' for Active; 'I' for Inactive)
REMARK    1  A    between atoms: C_1  and  C_2
REMARK    2  A    between atoms: C_5  and  C_9
REMARK    3  A    between atoms: C_6  and  C_8
REMARK    4  A    between atoms: C_11  and  C_14
REMARK    5  A    between atoms: C_14  and  N_15
REMARK    6  A    between atoms: C_21  and  C_26
REMARK                            x       y       z     vdW  Elec       q    Type
REMARK                         _______ _______ _______ _____ _____    ______ ____
ROOT
ATOM      1  C   UNL     1       0.459  -4.208   0.227  0.00  0.00    +0.228 A 
ATOM      2  N   UNL     1       0.589  -5.048  -0.773  0.00  0.00    -0.212 NA
ATOM      3  C   UNL     1       0.780  -6.280  -0.277  0.00  0.00    +0.100 A 
ATOM      4  C   UNL     1       0.766  -6.190   1.066  0.00  0.00    +0.222 A 
ATOM      5  O   UNL     1       0.571  -4.893   1.378  0.00  0.00    -0.443 OA
ENDROOT
BRANCH   1  10
ATOM      6  C   UNL     1      -0.419   1.460  -0.240  0.00  0.00    +0.044 C 
ATOM      7  C   UNL     1      -0.189  -0.025  -0.118  0.00  0.00    -0.050 A 
ATOM      8  C   UNL     1       0.790  -0.635  -0.881  0.00  0.00    +0.004 A 
ATOM      9  C   UNL     1       1.006  -1.993  -0.774  0.00  0.00    +0.014 A 
ATOM     10  C   UNL     1       0.234  -2.752   0.107  0.00  0.00    +0.040 A 
ATOM     11  C   UNL     1      -0.752  -2.130   0.874  0.00  0.00    -0.038 A 
ATOM     12  C   UNL     1      -0.954  -0.770   0.761  0.00  0.00    +0.007 A 
ATOM     13  C   UNL     1      -1.591  -2.942   1.827  0.00  0.00    +0.044 C 
ENDBRANCH   1  10
BRANCH   3  14
ATOM     14  C   UNL     1       0.974  -7.540  -1.080  0.00  0.00    +0.184 C 
BRANCH  14  15
ATOM     15  N   UNL     1      -0.333  -8.095  -1.442  0.00  0.00    -0.293 N 
ATOM     16  C   UNL     1      -0.941  -8.981  -0.611  0.00  0.00    +0.203 A 
ATOM     17  N   UNL     1      -2.097  -9.516  -0.861  0.00  0.00    -0.237 NA
ATOM     18  C   UNL     1      -2.788  -9.221  -1.990  0.00  0.00    +0.078 A 
ATOM     19  C   UNL     1      -4.032  -9.796  -2.260  0.00  0.00    +0.029 A 
ATOM     20  C   UNL     1      -4.698  -9.468  -3.419  0.00  0.00    +0.005 A 
ATOM     21  C   UNL     1      -4.149  -8.570  -4.325  0.00  0.00    -0.050 A 
ATOM     22  C   UNL     1      -2.924  -7.990  -4.082  0.00  0.00    +0.018 A 
ATOM     23  C   UNL     1      -2.233  -8.309  -2.914  0.00  0.00    +0.065 A 
ATOM     24  C   UNL     1      -0.924  -7.717  -2.598  0.00  0.00    +0.262 A 
ATOM     25  O   UNL     1      -0.393  -6.920  -3.350  0.00  0.00    -0.267 OA
ATOM     26  C   UNL     1      -4.900  -8.229  -5.587  0.00  0.00    +0.044 C 
ENDBRANCH  14  15
ENDBRANCH   3  14
TORSDOF 3
