REMARK  Name = ZINC36744462
REMARK  5 active torsions:
REMARK  status: ('A' for Active; 'I' for Inactive)
REMARK    1  A    between atoms: C_1  and  C_2
REMARK    2  A    between atoms: C_2  and  C_4
REMARK    3  A    between atoms: C_2  and  N_10
REMARK    4  A    between atoms: N_16  and  S_19
REMARK    5  A    between atoms: S_19  and  C_22
REMARK                            x       y       z     vdW  Elec       q    Type
REMARK                         _______ _______ _______ _____ _____    ______ ____
ROOT
ATOM      1  N   UNL     1      -1.306  -0.306  -2.405  0.00  0.00    -0.294 N 
ATOM      2  C   UNL     1       0.006  -0.608  -2.358  0.00  0.00    +0.303 C 
ATOM      3  O   UNL     1       0.642  -0.403  -1.343  0.00  0.00    -0.253 OA
ATOM      4  N   UNL     1       0.614  -1.138  -3.439  0.00  0.00    -0.283 N 
ATOM      5  C   UNL     1       2.014  -1.580  -3.367  0.00  0.00    +0.126 C 
ATOM      6  C   UNL     1       2.087  -3.047  -3.808  0.00  0.00    +0.128 C 
ATOM      7  N   UNL     1       1.362  -3.193  -5.077  0.00  0.00    -0.174 NA
ATOM      8  C   UNL     1      -0.038  -2.751  -5.149  0.00  0.00    +0.128 C 
ATOM      9  C   UNL     1      -0.113  -1.289  -4.707  0.00  0.00    +0.126 C 
ATOM     10  H   UNL     1      -1.797  -0.401  -3.236  0.00  0.00    +0.151 HD
ENDROOT
BRANCH   7  11
ATOM     11  S   UNL     1       2.109  -3.844  -6.404  0.00  0.00    +0.064 S 
ATOM     12  O   UNL     1       1.413  -3.356  -7.543  0.00  0.00    -0.153 OA
ATOM     13  O   UNL     1       3.505  -3.647  -6.223  0.00  0.00    -0.153 OA
BRANCH  11  14
ATOM     14  C   UNL     1       1.836  -5.584  -6.355  0.00  0.00    +0.143 A 
ATOM     15  C   UNL     1       1.086  -6.194  -7.343  0.00  0.00    +0.069 A 
ATOM     16  C   UNL     1       0.871  -7.561  -7.304  0.00  0.00    +0.125 A 
ATOM     17  C   UNL     1       1.409  -8.317  -6.276  0.00  0.00    +0.041 A 
ATOM     18  C   UNL     1       2.159  -7.708  -5.289  0.00  0.00    +0.043 A 
ATOM     19  C   UNL     1       2.378  -6.341  -5.330  0.00  0.00    +0.150 A 
ATOM     20  F   UNL     1       3.115  -5.745  -4.368  0.00  0.00    -0.203 F 
ATOM     21  F   UNL     1       0.138  -8.157  -8.269  0.00  0.00    -0.205 F 
ENDBRANCH  11  14
ENDBRANCH   7  11
BRANCH   1  23
ATOM     22  C   UNL     1      -2.448  -1.037  -0.369  0.00  0.00    +0.030 C 
ATOM     23  C   UNL     1      -1.992   0.165  -1.199  0.00  0.00    +0.100 C 
BRANCH  23  24
ATOM     24  C   UNL     1      -3.211   1.000  -1.598  0.00  0.00    +0.138 C 
ATOM     25  C   UNL     1      -2.792   2.130  -2.571  0.00  0.00    +0.035 C 
ATOM     26  C   UNL     1      -4.131   2.390  -3.314  0.00  0.00    +0.031 C 
ATOM     27  C   UNL     1      -4.755   0.980  -3.369  0.00  0.00    +0.160 C 
ATOM     28  O   UNL     1      -4.146   0.196  -2.334  0.00  0.00    -0.375 OA
ENDBRANCH  23  24
ENDBRANCH   1  23
TORSDOF 4
