REMARK  Name = ZINC08193445
REMARK  4 active torsions:
REMARK  status: ('A' for Active; 'I' for Inactive)
REMARK    1  A    between atoms: C_1  and  C_2
REMARK    2  A    between atoms: C_8  and  N_10
REMARK    3  A    between atoms: N_10  and  S_11
REMARK    4  A    between atoms: S_11  and  C_14
REMARK                            x       y       z     vdW  Elec       q    Type
REMARK                         _______ _______ _______ _____ _____    ______ ____
ROOT
ATOM      1  S   UNL     1       2.864   0.392   2.655  0.00  0.00    +0.059 S 
ATOM      2  O   UNL     1       4.176   0.820   2.319  0.00  0.00    -0.153 OA
ATOM      3  O   UNL     1       1.955   1.214   3.375  0.00  0.00    -0.153 OA
ENDROOT
BRANCH   1   4
ATOM      4  C   UNL     1       3.041  -1.095   3.582  0.00  0.00    +0.106 A 
ATOM      5  C   UNL     1       2.038  -1.492   4.449  0.00  0.00    +0.030 A 
ATOM      6  C   UNL     1       2.174  -2.657   5.177  0.00  0.00    +0.025 A 
ATOM      7  C   UNL     1       3.317  -3.432   5.037  0.00  0.00    +0.037 A 
ATOM      8  C   UNL     1       4.322  -3.032   4.166  0.00  0.00    -0.024 A 
ATOM      9  C   UNL     1       4.179  -1.867   3.437  0.00  0.00    +0.034 A 
ATOM     10  C   UNL     1       5.562  -3.873   4.014  0.00  0.00    +0.046 C 
ATOM     11  C   UNL     1       5.903  -4.527   5.354  0.00  0.00    +0.101 C 
ATOM     12  C   UNL     1       4.674  -5.171   5.937  0.00  0.00    +0.218 C 
ATOM     13  O   UNL     1       4.779  -6.204   6.564  0.00  0.00    -0.275 OA
ATOM     14  N   UNL     1       3.461  -4.613   5.771  0.00  0.00    -0.285 N 
ATOM     15  H   UNL     1       2.680  -5.034   6.164  0.00  0.00    +0.155 HD
ENDBRANCH   1   4
BRANCH   1  16
ATOM     16  N   UNL     1       2.116  -0.004   1.231  0.00  0.00    -0.187 NA
ATOM     17  H   UNL     1       2.589   0.100   0.390  0.00  0.00    +0.148 HD
BRANCH  16  24
ATOM     18  C   UNL     1      -0.019   1.526   0.010  0.00  0.00    +0.009 C 
ATOM     19  C   UNL     1       0.002  -0.004   0.002  0.00  0.00    +0.005 C 
ATOM     20  C   UNL     1       0.718  -0.497  -1.257  0.00  0.00    +0.005 C 
ATOM     21  C   UNL     1       0.739  -2.027  -1.265  0.00  0.00    +0.000 C 
ATOM     22  C   UNL     1       1.479  -2.534  -0.026  0.00  0.00    +0.002 C 
ATOM     23  C   UNL     1       0.763  -2.041   1.233  0.00  0.00    +0.020 C 
ATOM     24  C   UNL     1       0.742  -0.511   1.242  0.00  0.00    +0.079 C 
ENDBRANCH  16  24
ENDBRANCH   1  16
TORSDOF 3
