REMARK  Name = ZINC48652742
REMARK  4 active torsions:
REMARK  status: ('A' for Active; 'I' for Inactive)
REMARK    1  A    between atoms: C_1  and  C_2
REMARK    2  A    between atoms: C_2  and  C_3
REMARK    3  A    between atoms: C_6  and  S_8
REMARK    4  A    between atoms: S_8  and  N_11
REMARK                            x       y       z     vdW  Elec       q    Type
REMARK                         _______ _______ _______ _____ _____    ______ ____
ROOT
ATOM      1  S   UNL     1       3.741  -1.913   4.171  0.00  0.00    +0.081 S 
ATOM      2  O   UNL     1       4.931  -1.353   3.634  0.00  0.00    -0.149 OA
ATOM      3  O   UNL     1       3.327  -1.681   5.511  0.00  0.00    -0.149 OA
ENDROOT
BRANCH   1   4
ATOM      4  N   UNL     1       3.866  -3.554   3.992  0.00  0.00    -0.202 N 
ATOM      5  C   UNL     1       3.152  -4.545   4.802  0.00  0.00    +0.136 C 
ATOM      6  C   UNL     1       3.599  -5.910   4.255  0.00  0.00    +0.058 C 
ATOM      7  C   UNL     1       4.564  -5.576   3.140  0.00  0.00    -0.023 A 
ATOM      8  C   UNL     1       4.663  -4.196   3.042  0.00  0.00    +0.054 A 
ATOM      9  C   UNL     1       5.500  -3.645   2.070  0.00  0.00    +0.025 A 
ATOM     10  C   UNL     1       6.211  -4.463   1.219  0.00  0.00    +0.002 A 
ATOM     11  C   UNL     1       6.101  -5.838   1.322  0.00  0.00    +0.000 A 
ATOM     12  C   UNL     1       5.281  -6.392   2.288  0.00  0.00    +0.005 A 
ENDBRANCH   1   4
BRANCH   1  16
ATOM     13  C   UNL     1       0.731  -0.503   1.223  0.00  0.00    -0.009 A 
ATOM     14  C   UNL     1       0.236  -0.806   2.448  0.00  0.00    +0.013 A 
ATOM     15  C   UNL     1       1.102  -1.254   3.429  0.00  0.00    +0.037 A 
ATOM     16  C   UNL     1       2.420  -1.375   3.136  0.00  0.00    +0.146 A 
ATOM     17  S   UNL     1       2.469  -0.856   1.429  0.00  0.00    -0.073 S 
BRANCH  13  19
ATOM     18  C   UNL     1      -0.019   1.526   0.010  0.00  0.00    +0.009 C 
ATOM     19  C   UNL     1       0.002  -0.004   0.002  0.00  0.00    +0.039 C 
ENDBRANCH  13  19
ENDBRANCH   1  16
TORSDOF 3
