REMARK  Name = ZINC14076625
REMARK  9 active torsions:
REMARK  status: ('A' for Active; 'I' for Inactive)
REMARK    1  A    between atoms: C_1  and  O_2
REMARK    2  A    between atoms: O_2  and  C_3
REMARK    3  A    between atoms: C_5  and  O_27
REMARK    4  A    between atoms: C_8  and  N_9
REMARK    5  A    between atoms: C_10  and  C_12
REMARK    6  A    between atoms: C_21  and  O_22
REMARK    7  A    between atoms: O_22  and  C_23
REMARK    8  A    between atoms: C_23  and  C_24
REMARK    9  A    between atoms: O_27  and  C_28
REMARK                            x       y       z     vdW  Elec       q    Type
REMARK                         _______ _______ _______ _____ _____    ______ ____
ROOT
ATOM      1  N   UNL     1       1.482   0.067   6.058  0.00  0.00    -0.278 N 
ATOM      2  C   UNL     1       0.959   0.551   7.202  0.00  0.00    +0.252 C 
ATOM      3  O   UNL     1      -0.043   1.239   7.169  0.00  0.00    -0.270 OA
ATOM      4  H   UNL     1       2.233  -0.547   6.090  0.00  0.00    +0.155 HD
ENDROOT
BRANCH   2   5
ATOM      5  C   UNL     1       1.602   0.246   8.495  0.00  0.00    +0.079 A 
ATOM      6  C   UNL     1       2.741  -0.543   8.528  0.00  0.00    +0.025 A 
ATOM      7  C   UNL     1       3.350  -0.826   9.758  0.00  0.00    -0.017 A 
ATOM      8  C   UNL     1       4.510  -1.619   9.829  0.00  0.00    +0.008 A 
ATOM      9  C   UNL     1       5.075  -1.880  11.039  0.00  0.00    +0.001 A 
ATOM     10  C   UNL     1       4.522  -1.372  12.213  0.00  0.00    +0.001 A 
ATOM     11  C   UNL     1       3.401  -0.601  12.185  0.00  0.00    +0.008 A 
ATOM     12  C   UNL     1       2.788  -0.309  10.954  0.00  0.00    -0.014 A 
ATOM     13  C   UNL     1       1.630   0.484  10.894  0.00  0.00    +0.055 A 
ATOM     14  C   UNL     1       1.051   0.755   9.689  0.00  0.00    +0.135 A 
BRANCH  14  15
ATOM     15  O   UNL     1      -0.068   1.522   9.639  0.00  0.00    -0.477 OA
BRANCH  15  16
ATOM     16  C   UNL     1      -0.578   2.008  10.883  0.00  0.00    +0.346 C 
BRANCH  16  17
ATOM     17  C   UNL     1      -1.785   2.814  10.637  0.00  0.00    +0.104 C 
ATOM     18  N   UNL     1      -2.716   3.436  10.447  0.00  0.00    -0.193 NA
ENDBRANCH  16  17
ENDBRANCH  15  16
ENDBRANCH  14  15
ENDBRANCH   2   5
BRANCH   1  24
ATOM     19  C   UNL     1       1.087  -0.377   3.711  0.00  0.00    +0.145 A 
ATOM     20  C   UNL     1       0.552   0.004   2.492  0.00  0.00    +0.094 A 
ATOM     21  C   UNL     1      -0.127   1.208   2.379  0.00  0.00    +0.142 A 
ATOM     22  C   UNL     1      -0.266   2.034   3.486  0.00  0.00    +0.084 A 
ATOM     23  C   UNL     1       0.262   1.654   4.705  0.00  0.00    +0.050 A 
ATOM     24  C   UNL     1       0.941   0.450   4.822  0.00  0.00    +0.077 A 
ATOM     25 CL   UNL     1      -1.110   3.544   3.339  0.00  0.00    -0.080 Cl
BRANCH  19  27
ATOM     26  C   UNL     1       1.862  -2.356   2.643  0.00  0.00    +0.277 C 
ATOM     27  O   UNL     1       1.752  -1.558   3.824  0.00  0.00    -0.493 OA
ENDBRANCH  19  27
BRANCH  21  28
ATOM     28  O   UNL     1      -0.652   1.582   1.181  0.00  0.00    -0.494 OA
ATOM     29  C   UNL     1      -0.466   0.686   0.084  0.00  0.00    +0.277 C 
ENDBRANCH  21  28
ENDBRANCH   1  24
TORSDOF 7
