REMARK  Name = ZINC49586952
REMARK  7 active torsions:
REMARK  status: ('A' for Active; 'I' for Inactive)
REMARK    1  A    between atoms: C_1  and  O_2
REMARK    2  A    between atoms: O_2  and  C_3
REMARK    3  A    between atoms: C_6  and  C_9
REMARK    4  A    between atoms: N_14  and  C_15
REMARK    5  A    between atoms: C_15  and  C_17
REMARK    6  A    between atoms: C_17  and  N_18
REMARK    7  A    between atoms: C_22  and  C_24
REMARK                            x       y       z     vdW  Elec       q    Type
REMARK                         _______ _______ _______ _____ _____    ______ ____
ROOT
ATOM      1  C   UNL     1      -4.951  -2.646   0.492  0.00  0.00    +0.055 A 
ATOM      2  C   UNL     1      -6.114  -1.957   0.541  0.00  0.00    +0.074 A 
ATOM      3  S   UNL     1      -7.322  -3.264   0.445  0.00  0.00    -0.060 S 
ATOM      4  C   UNL     1      -6.278  -4.577   0.351  0.00  0.00    +0.163 A 
ATOM      5  N   UNL     1      -5.045  -4.005   0.388  0.00  0.00    -0.335 N 
ATOM      6  N   UNL     1      -6.585  -5.872   0.257  0.00  0.00    -0.158 NA
ATOM      7  H   UNL     1      -4.245  -4.553   0.345  0.00  0.00    +0.168 HD
ENDROOT
BRANCH   1  11
ATOM      8  C   UNL     1      -1.187  -0.678   0.640  0.00  0.00    +0.120 A 
ATOM      9  C   UNL     1      -2.360   0.064   0.698  0.00  0.00    +0.046 A 
ATOM     10  C   UNL     1      -3.583  -0.571   0.650  0.00  0.00    +0.013 A 
ATOM     11  C   UNL     1      -3.641  -1.961   0.543  0.00  0.00    -0.001 A 
ATOM     12  C   UNL     1      -2.461  -2.703   0.485  0.00  0.00    +0.013 A 
ATOM     13  C   UNL     1      -1.242  -2.060   0.529  0.00  0.00    +0.046 A 
BRANCH   8  15
ATOM     14  C   UNL     1      -0.001   1.376   0.803  0.00  0.00    +0.277 C 
ATOM     15  O   UNL     1       0.016  -0.048   0.688  0.00  0.00    -0.495 OA
ENDBRANCH   8  15
ENDBRANCH   1  11
BRANCH   6  16
ATOM     16  C   UNL     1      -7.856  -6.252   0.228  0.00  0.00    +0.222 C 
ATOM     17  O   UNL     1      -8.741  -5.420   0.287  0.00  0.00    -0.276 OA
BRANCH  16  18
ATOM     18  C   UNL     1      -8.204  -7.715   0.122  0.00  0.00    +0.022 C 
BRANCH  18  19
ATOM     19  N   UNL     1      -9.664  -7.872   0.109  0.00  0.00    +0.390 N 
ATOM     20  C   UNL     1     -10.217  -7.492   1.427  0.00  0.00    -0.077 C 
ATOM     21  C   UNL     1     -11.394  -8.473   1.659  0.00  0.00    -0.020 C 
ATOM     22  C   UNL     1     -10.836  -9.783   1.045  0.00  0.00    -0.012 C 
ATOM     23  C   UNL     1     -10.010  -9.280  -0.157  0.00  0.00    -0.030 C 
ATOM     24  H   UNL     1     -10.063  -7.283  -0.606  0.00  0.00    -0.080 HD
BRANCH  23  25
ATOM     25  C   UNL     1      -8.752 -10.099  -0.294  0.00  0.00    -0.024 A 
ATOM     26  C   UNL     1      -8.286 -10.773  -1.374  0.00  0.00    +0.009 A 
ATOM     27  C   UNL     1      -7.093 -11.464  -1.269  0.00  0.00    +0.008 A 
ATOM     28  C   UNL     1      -6.426 -11.448  -0.089  0.00  0.00    +0.045 A 
ATOM     29  S   UNL     1      -7.486 -10.427   0.921  0.00  0.00    -0.103 S 
ENDBRANCH  23  25
ENDBRANCH  18  19
ENDBRANCH  16  18
ENDBRANCH   6  16
TORSDOF 6
