REMARK  Name = ZINC57992056
REMARK  4 active torsions:
REMARK  status: ('A' for Active; 'I' for Inactive)
REMARK    1  A    between atoms: C_1  and  C_2
REMARK    2  A    between atoms: C_5  and  C_30
REMARK    3  A    between atoms: C_6  and  N_8
REMARK    4  A    between atoms: C_9  and  C_11
REMARK                            x       y       z     vdW  Elec       q    Type
REMARK                         _______ _______ _______ _____ _____    ______ ____
ROOT
ATOM      1  C   UNL     1       0.065  -2.707   4.970  0.00  0.00    +0.111 C 
ATOM      2  C   UNL     1      -1.196  -3.592   5.165  0.00  0.00    +0.034 C 
ATOM      3  C   UNL     1      -1.347  -3.589   6.705  0.00  0.00    +0.059 C 
ATOM      4  C   UNL     1      -2.826  -3.790   7.069  0.00  0.00    +0.020 C 
ATOM      5  C   UNL     1      -3.263  -2.466   7.737  0.00  0.00    +0.017 C 
ATOM      6  C   UNL     1      -2.242  -1.444   7.179  0.00  0.00    +0.086 C 
ATOM      7  N   UNL     1      -0.954  -2.217   7.123  0.00  0.00    -0.282 NA
ATOM      8  C   UNL     1      -0.068  -1.663   6.088  0.00  0.00    +0.137 C 
ATOM      9  C   UNL     1       1.282  -1.307   6.652  0.00  0.00    +0.004 A 
ATOM     10  C   UNL     1       2.265  -2.037   7.281  0.00  0.00    +0.008 A 
ATOM     11  C   UNL     1       3.429  -1.416   7.699  0.00  0.00    +0.000 A 
ATOM     12  C   UNL     1       3.600  -0.060   7.483  0.00  0.00    +0.002 A 
ATOM     13  C   UNL     1       2.617   0.675   6.854  0.00  0.00    +0.023 A 
ATOM     14  C   UNL     1       1.443   0.057   6.430  0.00  0.00    +0.039 A 
ATOM     15  N   UNL     1       0.321   0.576   5.781  0.00  0.00    -0.283 N 
ATOM     16  C   UNL     1      -0.611  -0.366   5.545  0.00  0.00    +0.243 C 
ATOM     17  O   UNL     1      -1.682  -0.202   5.000  0.00  0.00    -0.273 OA
ATOM     18  H   UNL     1       0.224   1.508   5.531  0.00  0.00    +0.155 HD
ENDROOT
BRANCH   1  20
ATOM     19  N   UNL     1       1.207  -1.727   3.006  0.00  0.00    -0.285 N 
ATOM     20  C   UNL     1       0.048  -2.044   3.616  0.00  0.00    +0.223 C 
ATOM     21  O   UNL     1      -1.010  -1.797   3.076  0.00  0.00    -0.275 OA
ATOM     22  H   UNL     1       2.051  -1.997   3.399  0.00  0.00    +0.155 HD
BRANCH  19  28
ATOM     23  C   UNL     1      -1.077   1.396  -0.028  0.00  0.00    +0.044 C 
ATOM     24  C   UNL     1       0.097   0.513   0.310  0.00  0.00    -0.049 A 
ATOM     25  C   UNL     1       1.161   0.413  -0.568  0.00  0.00    +0.004 A 
ATOM     26  C   UNL     1       2.240  -0.395  -0.262  0.00  0.00    +0.005 A 
ATOM     27  C   UNL     1       2.258  -1.106   0.922  0.00  0.00    -0.029 A 
ATOM     28  C   UNL     1       1.191  -1.008   1.806  0.00  0.00    +0.037 A 
ATOM     29  C   UNL     1       0.111  -0.191   1.498  0.00  0.00    +0.027 A 
ATOM     30  C   UNL     1       3.434  -1.987   1.255  0.00  0.00    +0.045 C 
ENDBRANCH  19  28
ENDBRANCH   1  20
TORSDOF 2
