REMARK  Name = ZINC53846150
REMARK  3 active torsions:
REMARK  status: ('A' for Active; 'I' for Inactive)
REMARK    1  A    between atoms: C_11  and  C_13
REMARK    2  A    between atoms: C_13  and  C_14
REMARK    3  A    between atoms: C_17  and  N_20
REMARK                            x       y       z     vdW  Elec       q    Type
REMARK                         _______ _______ _______ _____ _____    ______ ____
ROOT
ATOM      1  C   UNL     1      -0.017   1.373   0.010  0.00  0.00    +0.001 A 
ATOM      2  C   UNL     1       1.169   2.096   0.002  0.00  0.00    +0.002 A 
ATOM      3  C   UNL     1       2.387   1.453  -0.013  0.00  0.00    +0.028 A 
ATOM      4  C   UNL     1       2.432   0.058  -0.021  0.00  0.00    +0.078 A 
ATOM      5  C   UNL     1       1.224  -0.674  -0.013  0.00  0.00    +0.065 A 
ATOM      6  C   UNL     1       0.002  -0.004   0.002  0.00  0.00    +0.015 A 
ATOM      7  C   UNL     1       1.306  -2.142  -0.022  0.00  0.00    +0.259 A 
ATOM      8  O   UNL     1       0.302  -2.832  -0.017  0.00  0.00    -0.267 OA
ATOM      9  N   UNL     1       2.540  -2.697  -0.038  0.00  0.00    -0.310 N 
ATOM     10  H   UNL     1       2.633  -3.663  -0.045  0.00  0.00    +0.170 HD
ATOM     11  C   UNL     1       3.650  -1.914  -0.045  0.00  0.00    +0.115 A 
ATOM     12  N   UNL     1       3.609  -0.616  -0.037  0.00  0.00    -0.233 NA
ENDROOT
BRANCH  11  13
ATOM     13  C   UNL     1       4.999  -2.586  -0.063  0.00  0.00    +0.109 C 
BRANCH  13  14
ATOM     14  C   UNL     1       6.082  -1.539  -0.069  0.00  0.00    -0.040 A 
ATOM     15  C   UNL     1       6.562  -1.048  -1.270  0.00  0.00    +0.006 A 
ATOM     16  C   UNL     1       7.555  -0.088  -1.278  0.00  0.00    +0.028 A 
ATOM     17  C   UNL     1       8.072   0.384  -0.079  0.00  0.00    +0.065 A 
ATOM     18  C   UNL     1       7.588  -0.110   1.125  0.00  0.00    +0.028 A 
ATOM     19  C   UNL     1       6.591  -1.066   1.127  0.00  0.00    +0.006 A 
BRANCH  17  20
ATOM     20  N   UNL     1       9.080   1.358  -0.084  0.00  0.00    -0.240 N 
ATOM     21  C   UNL     1       9.671   1.897   1.006  0.00  0.00    +0.114 A 
ATOM     22  C   UNL     1      10.588   2.794   0.576  0.00  0.00    +0.041 A 
ATOM     23  C   UNL     1      10.557   2.804  -0.823  0.00  0.00    +0.135 A 
ATOM     24  N   UNL     1       9.658   1.940  -1.219  0.00  0.00    -0.175 NA
ENDBRANCH  17  20
ENDBRANCH  13  14
ENDBRANCH  11  13
TORSDOF 3
