REMARK  Name = ZINC36532869
REMARK  3 active torsions:
REMARK  status: ('A' for Active; 'I' for Inactive)
REMARK    1  A    between atoms: C_1  and  C_2
REMARK    2  A    between atoms: C_5  and  N_10
REMARK    3  A    between atoms: C_7  and  N_8
REMARK                            x       y       z     vdW  Elec       q    Type
REMARK                         _______ _______ _______ _____ _____    ______ ____
ROOT
ATOM      1  C   UNL     1      -0.018   1.503   0.010  0.00  0.00    +0.046 C 
ATOM      2  C   UNL     1       0.002  -0.004   0.002  0.00  0.00    -0.028 A 
ATOM      3  C   UNL     1       0.006  -0.689  -1.198  0.00  0.00    +0.022 A 
ATOM      4  C   UNL     1       0.025  -2.072  -1.207  0.00  0.00    +0.049 A 
ATOM      5  C   UNL     1       0.041  -2.774  -0.014  0.00  0.00    +0.156 A 
ATOM      6  C   UNL     1       0.036  -2.095   1.189  0.00  0.00    +0.070 A 
ATOM      7  C   UNL     1       0.023  -0.705   1.200  0.00  0.00    +0.044 A 
ATOM      8 BR   UNL     1       0.057  -3.055   2.818  0.00  0.00    -0.046 Br
ATOM      9 BR   UNL     1       0.029  -3.005  -2.852  0.00  0.00    -0.048 Br
ENDROOT
BRANCH   7  10
ATOM     10  N   UNL     1       0.025  -0.015   2.416  0.00  0.00    -0.357 N 
ATOM     11  H   UNL     1       0.012   0.955   2.423  0.00  0.00    +0.142 HD
ATOM     12  H   UNL     1       0.040  -0.506   3.252  0.00  0.00    +0.142 HD
ENDBRANCH   7  10
BRANCH   5  13
ATOM     13  N   UNL     1       0.061  -4.254  -0.028  0.00  0.00    +0.059 N 
ATOM     14  O   UNL     1       1.117  -4.844  -0.039  0.00  0.00    -0.126 OA
ATOM     15  O   UNL     1      -0.977  -4.873  -0.029  0.00  0.00    -0.126 OA
ENDBRANCH   5  13
TORSDOF 2
