REMARK  Name = ZINC12748148
REMARK  7 active torsions:
REMARK  status: ('A' for Active; 'I' for Inactive)
REMARK    1  A    between atoms: C_1  and  C_2
REMARK    2  A    between atoms: C_2  and  C_3
REMARK    3  A    between atoms: C_2  and  C_4
REMARK    4  A    between atoms: C_4  and  N_5
REMARK    5  A    between atoms: N_5  and  C_6
REMARK    6  A    between atoms: C_7  and  C_9
REMARK    7  A    between atoms: C_14  and  N_63
REMARK                            x       y       z     vdW  Elec       q    Type
REMARK                         _______ _______ _______ _____ _____    ______ ____
ROOT
ATOM      1  C   UNL     1       1.783  -0.906  -2.884  0.00  0.00    -0.066 C 
ATOM      2  C   UNL     1       1.378  -2.380  -2.971  0.00  0.00    +0.004 C 
ATOM      3  C   UNL     1       2.049  -3.017  -4.191  0.00  0.00    +0.108 C 
ATOM      4  N   UNL     1       3.507  -2.896  -4.070  0.00  0.00    -0.285 N 
ATOM      5  C   UNL     1       3.922  -1.487  -4.033  0.00  0.00    +0.108 C 
ATOM      6  C   UNL     1       3.309  -0.806  -2.808  0.00  0.00    +0.004 C 
ATOM      7  C   UNL     1       4.144  -3.571  -5.087  0.00  0.00    +0.291 A 
ATOM      8  N   UNL     1       3.976  -4.838  -5.365  0.00  0.00    -0.195 NA
ATOM      9  C   UNL     1       4.764  -5.159  -6.428  0.00  0.00    +0.111 A 
ATOM     10  C   UNL     1       4.987  -6.338  -7.141  0.00  0.00    +0.031 A 
ATOM     11  C   UNL     1       5.870  -6.341  -8.198  0.00  0.00    +0.002 A 
ATOM     12  C   UNL     1       6.537  -5.179  -8.558  0.00  0.00    +0.004 A 
ATOM     13  C   UNL     1       6.326  -4.007  -7.861  0.00  0.00    +0.048 A 
ATOM     14  C   UNL     1       5.441  -3.987  -6.795  0.00  0.00    +0.157 A 
ATOM     15  O   UNL     1       5.026  -3.023  -5.941  0.00  0.00    -0.424 OA
ENDROOT
BRANCH   1  21
ATOM     16  C   UNL     1      -0.407   1.562  -0.165  0.00  0.00    +0.072 C 
ATOM     17  C   UNL     1       1.123   1.627  -0.177  0.00  0.00    -0.006 C 
ATOM     18  C   UNL     1       1.641   1.082  -1.510  0.00  0.00    -0.078 C 
ATOM     19  C   UNL     1      -0.275  -0.387  -1.720  0.00  0.00    -0.078 C 
ATOM     20  C   UNL     1      -0.850   0.115  -0.393  0.00  0.00    -0.006 C 
ATOM     21  N   UNL     1       1.200  -0.321  -1.659  0.00  0.00    +0.382 N 
ATOM     22  H   UNL     1       1.524  -0.860  -0.846  0.00  0.00    -0.081 HD
BRANCH  16  25
ATOM     23  N   UNL     1      -0.772   3.333   1.523  0.00  0.00    -0.304 N 
ATOM     24  C   UNL     1      -0.240   4.301   0.560  0.00  0.00    +0.132 C 
ATOM     25  C   UNL     1      -0.920   2.042   1.169  0.00  0.00    +0.218 C 
ATOM     26  O   UNL     1      -1.467   1.265   1.923  0.00  0.00    -0.275 OA
BRANCH  23  27
ATOM     27  C   UNL     1      -1.143   3.770   2.871  0.00  0.00    +0.110 C 
BRANCH  27  29
ATOM     28  C   UNL     1       1.161   4.612   3.347  0.00  0.00    +0.009 C 
ATOM     29  C   UNL     1       0.067   3.643   3.800  0.00  0.00    +0.000 C 
ATOM     30  C   UNL     1      -0.352   3.980   5.232  0.00  0.00    +0.009 C 
ENDBRANCH  27  29
ENDBRANCH  23  27
ENDBRANCH  16  25
ENDBRANCH   1  21
TORSDOF 4
