REMARK  Name = ZINC40330359
REMARK  3 active torsions:
REMARK  status: ('A' for Active; 'I' for Inactive)
REMARK    1  A    between atoms: C_3  and  S_9
REMARK    2  A    between atoms: C_4  and  N_8
REMARK    3  A    between atoms: S_9  and  N_12
REMARK                            x       y       z     vdW  Elec       q    Type
REMARK                         _______ _______ _______ _____ _____    ______ ____
ROOT
ATOM      1  S   UNL     1       3.866   2.298   0.084  0.00  0.00    +0.063 S 
ATOM      2  O   UNL     1       4.897   1.988  -0.843  0.00  0.00    -0.153 OA
ATOM      3  O   UNL     1       3.198   3.552   0.089  0.00  0.00    -0.153 OA
ENDROOT
BRANCH   1   4
ATOM      4  N   UNL     1       4.513   2.101   1.595  0.00  0.00    -0.169 NA
ATOM      5  C   UNL     1       4.103   2.956   2.723  0.00  0.00    +0.138 C 
ATOM      6  C   UNL     1       5.357   3.506   3.409  0.00  0.00    +0.177 C 
ATOM      7  O   UNL     1       6.257   2.433   3.708  0.00  0.00    -0.374 OA
ATOM      8  C   UNL     1       6.715   1.736   2.552  0.00  0.00    +0.137 C 
ATOM      9  C   UNL     1       5.514   1.062   1.868  0.00  0.00    +0.109 C 
ATOM     10  C   UNL     1       5.984   0.404   0.573  0.00  0.00    +0.023 C 
ATOM     11  C   UNL     1       7.024  -0.669   0.911  0.00  0.00    +0.002 C 
ATOM     12  C   UNL     1       8.212  -0.036   1.636  0.00  0.00    +0.003 C 
ATOM     13  C   UNL     1       7.730   0.656   2.919  0.00  0.00    +0.033 C 
ENDBRANCH   1   4
BRANCH   1  16
ATOM     14  C   UNL     1       1.809  -0.902  -1.211  0.00  0.00    +0.022 A 
ATOM     15  C   UNL     1       2.784   0.066  -1.054  0.00  0.00    +0.032 A 
ATOM     16  C   UNL     1       2.622   1.066  -0.116  0.00  0.00    +0.126 A 
ATOM     17  C   UNL     1       1.478   1.099   0.672  0.00  0.00    +0.053 A 
ATOM     18  C   UNL     1       0.500   0.126   0.512  0.00  0.00    +0.044 A 
ATOM     19  C   UNL     1       0.668  -0.872  -0.429  0.00  0.00    +0.043 A 
ATOM     20 CL   UNL     1      -0.553  -2.090  -0.630  0.00  0.00    -0.083 Cl
BRANCH  17  21
ATOM     21  N   UNL     1       1.311   2.110   1.622  0.00  0.00    -0.356 N 
ATOM     22  H   UNL     1       1.944   2.844   1.665  0.00  0.00    +0.142 HD
ATOM     23  H   UNL     1       0.564   2.077   2.239  0.00  0.00    +0.142 HD
ENDBRANCH  17  21
ENDBRANCH   1  16
TORSDOF 3
