REMARK  Name = ZINC58157613
REMARK  4 active torsions:
REMARK  status: ('A' for Active; 'I' for Inactive)
REMARK    1  A    between atoms: N_5  and  C_10
REMARK    2  A    between atoms: C_10  and  C_11
REMARK    3  A    between atoms: N_13  and  C_14
REMARK    4  A    between atoms: N_22  and  C_23
REMARK                            x       y       z     vdW  Elec       q    Type
REMARK                         _______ _______ _______ _____ _____    ______ ____
ROOT
ATOM      1  C   UNL     1      -0.047   1.440  -7.697  0.00  0.00    +0.076 C 
ATOM      2  C   UNL     1       1.169   2.260  -8.134  0.00  0.00    +0.041 C 
ATOM      3  C   UNL     1       1.722   1.687  -9.443  0.00  0.00    +0.111 C 
ATOM      4  N   UNL     1       0.637   1.639 -10.434  0.00  0.00    -0.286 N 
ATOM      5  C   UNL     1      -0.613   0.953 -10.080  0.00  0.00    +0.111 C 
ATOM      6  C   UNL     1      -1.139   1.535  -8.764  0.00  0.00    +0.041 C 
ATOM      7  C   UNL     1       0.787   2.215 -11.643  0.00  0.00    +0.302 C 
ATOM      8  O   UNL     1       1.787   2.861 -11.890  0.00  0.00    -0.253 OA
ATOM      9  N   UNL     1      -0.173   2.074 -12.580  0.00  0.00    -0.296 N 
ATOM     10  H   UNL     1      -1.002   1.621 -12.360  0.00  0.00    +0.151 HD
ENDROOT
BRANCH   9  11
ATOM     11  C   UNL     1       0.037   2.605 -13.929  0.00  0.00    +0.074 C 
ATOM     12  C   UNL     1       0.801   1.580 -14.768  0.00  0.00    +0.022 C 
ATOM     13  C   UNL     1       1.020   2.135 -16.177  0.00  0.00    +0.002 C 
ATOM     14  C   UNL     1      -0.335   2.419 -16.829  0.00  0.00    +0.000 C 
ATOM     15  C   UNL     1      -1.099   3.445 -15.989  0.00  0.00    +0.002 C 
ATOM     16  C   UNL     1      -1.318   2.890 -14.581  0.00  0.00    +0.022 C 
ENDBRANCH   9  11
BRANCH   1  19
ATOM     17  C   UNL     1      -0.020   1.553  -5.263  0.00  0.00    +0.231 C 
ATOM     18  O   UNL     1       0.886   0.747  -5.264  0.00  0.00    -0.274 OA
ATOM     19  N   UNL     1      -0.558   1.965  -6.428  0.00  0.00    -0.311 N 
ATOM     20  H   UNL     1      -1.283   2.610  -6.426  0.00  0.00    +0.149 HD
BRANCH  17  21
ATOM     21  C   UNL     1      -0.546   2.093  -3.958  0.00  0.00    +0.203 C 
BRANCH  21  26
ATOM     22  C   UNL     1      -0.002   1.520   0.011  0.00  0.00    +0.001 C 
ATOM     23  C   UNL     1       1.442   1.978  -0.002  0.00  0.00    +0.002 C 
ATOM     24  C   UNL     1       2.133   1.619  -1.320  0.00  0.00    +0.019 C 
ATOM     25  C   UNL     1       1.368   2.265  -2.479  0.00  0.00    +0.108 C 
ATOM     26  N   UNL     1       0.198   1.494  -2.846  0.00  0.00    -0.293 N 
ATOM     27  C   UNL     1      -0.353   0.376  -2.410  0.00  0.00    +0.216 C 
ATOM     28  O   UNL     1      -1.444   0.067  -2.841  0.00  0.00    -0.276 OA
ATOM     29  C   UNL     1       0.304  -0.538  -1.402  0.00  0.00    +0.096 C 
ATOM     30  C   UNL     1       0.013  -0.004   0.003  0.00  0.00    +0.009 C 
ENDBRANCH  21  26
ENDBRANCH  17  21
ENDBRANCH   1  19
TORSDOF 4
