REMARK  Name = ZINC13149259
REMARK  8 active torsions:
REMARK  status: ('A' for Active; 'I' for Inactive)
REMARK    1  A    between atoms: C_1  and  C_2
REMARK    2  A    between atoms: C_5  and  C_30
REMARK    3  A    between atoms: C_6  and  S_8
REMARK    4  A    between atoms: S_8  and  N_11
REMARK    5  A    between atoms: C_15  and  O_29
REMARK    6  A    between atoms: N_25  and  C_26
REMARK    7  A    between atoms: C_26  and  C_27
REMARK    8  A    between atoms: C_27  and  O_28
REMARK                            x       y       z     vdW  Elec       q    Type
REMARK                         _______ _______ _______ _____ _____    ______ ____
ROOT
ATOM      1  N   UNL     1      -1.366  -3.816   2.801  0.00  0.00    -0.128 NA
ATOM      2  C   UNL     1      -1.614  -4.569   3.843  0.00  0.00    +0.095 C 
ATOM      3  C   UNL     1      -0.667  -4.709   4.978  0.00  0.00    +0.054 C 
ATOM      4  C   UNL     1      -0.570  -5.945   5.532  0.00  0.00    +0.073 C 
ATOM      5  C   UNL     1      -1.363  -7.077   4.954  0.00  0.00    +0.235 C 
ATOM      6  C   UNL     1      -2.741  -6.632   4.569  0.00  0.00    +0.026 A 
ATOM      7  C   UNL     1      -2.874  -5.355   3.991  0.00  0.00    +0.011 A 
ATOM      8  C   UNL     1      -4.110  -4.882   3.593  0.00  0.00    +0.010 A 
ATOM      9  C   UNL     1      -5.229  -5.674   3.784  0.00  0.00    +0.001 A 
ATOM     10  C   UNL     1      -5.107  -6.922   4.367  0.00  0.00    +0.000 A 
ATOM     11  C   UNL     1      -3.859  -7.408   4.756  0.00  0.00    +0.010 A 
ATOM     12  O   UNL     1      -1.339  -8.261   5.699  0.00  0.00    -0.339 OA
ATOM     13  C   UNL     1      -0.894  -8.243   7.040  0.00  0.00    +0.183 C 
ATOM     14  C   UNL     1       0.403  -7.459   7.197  0.00  0.00    +0.133 C 
ATOM     15  N   UNL     1       0.247  -6.126   6.616  0.00  0.00    -0.324 N 
ENDROOT
BRANCH   1  16
ATOM     16  S   UNL     1       0.057  -2.973   2.709  0.00  0.00    +0.099 S 
ATOM     17  O   UNL     1       1.094  -3.938   2.602  0.00  0.00    -0.146 OA
ATOM     18  O   UNL     1       0.022  -2.003   3.747  0.00  0.00    -0.146 OA
BRANCH  16  24
ATOM     19  C   UNL     1      -0.018   1.503   0.010  0.00  0.00    +0.044 C 
ATOM     20  C   UNL     1       0.002  -0.004   0.002  0.00  0.00    -0.049 A 
ATOM     21  C   UNL     1       0.006  -0.689  -1.199  0.00  0.00    +0.004 A 
ATOM     22  C   UNL     1       0.025  -2.071  -1.207  0.00  0.00    +0.005 A 
ATOM     23  C   UNL     1       0.040  -2.768  -0.013  0.00  0.00    -0.024 A 
ATOM     24  C   UNL     1       0.037  -2.084   1.188  0.00  0.00    +0.116 A 
ATOM     25  C   UNL     1       0.023  -0.702   1.195  0.00  0.00    +0.032 A 
ATOM     26  C   UNL     1       0.059  -4.275  -0.021  0.00  0.00    +0.046 C 
ENDBRANCH  16  24
ENDBRANCH   1  16
BRANCH   5  27
ATOM     27  O   UNL     1      -0.714  -7.406   3.724  0.00  0.00    -0.356 OA
ATOM     28  H   UNL     1      -1.131  -8.133   3.242  0.00  0.00    +0.213 HD
ENDBRANCH   5  27
BRANCH  15  29
ATOM     29  C   UNL     1       0.964  -4.986   7.193  0.00  0.00    +0.133 C 
BRANCH  29  30
ATOM     30  C   UNL     1       0.100  -4.335   8.275  0.00  0.00    +0.174 C 
BRANCH  30  31
ATOM     31  O   UNL     1      -0.083  -5.253   9.355  0.00  0.00    -0.393 OA
ATOM     32  H   UNL     1      -0.622  -4.906  10.079  0.00  0.00    +0.209 HD
ENDBRANCH  30  31
ENDBRANCH  29  30
ENDBRANCH  15  29
TORSDOF 6
