REMARK  Name = ZINC08312656
REMARK  12 active torsions:
REMARK  status: ('A' for Active; 'I' for Inactive)
REMARK    1  A    between atoms: C_1  and  C_2
REMARK    2  A    between atoms: C_5  and  S_23
REMARK    3  A    between atoms: C_7  and  N_8
REMARK    4  A    between atoms: C_9  and  C_11
REMARK    5  A    between atoms: C_11  and  C_13
REMARK    6  A    between atoms: C_11  and  N_14
REMARK    7  A    between atoms: N_14  and  C_15
REMARK    8  A    between atoms: C_15  and  C_17
REMARK    9  A    between atoms: C_15  and  C_18
REMARK   10  A    between atoms: S_23  and  N_26
REMARK   11  A    between atoms: N_26  and  C_27
REMARK   12  A    between atoms: N_26  and  C_28
REMARK                            x       y       z     vdW  Elec       q    Type
REMARK                         _______ _______ _______ _____ _____    ______ ____
ROOT
ATOM      1  N   UNL     1      -0.271  -0.017   2.393  0.00  0.00    -0.287 N 
ATOM      2  C   UNL     1      -0.254  -0.690   3.560  0.00  0.00    +0.203 C 
ATOM      3  O   UNL     1      -0.205  -1.902   3.560  0.00  0.00    -0.277 OA
ATOM      4  H   UNL     1      -0.233   0.953   2.392  0.00  0.00    +0.155 HD
ENDROOT
BRANCH   1  11
ATOM      5  C   UNL     1      -1.710   1.165   0.242  0.00  0.00    +0.045 C 
ATOM      6  C   UNL     1      -1.034  -0.175   0.107  0.00  0.00    -0.029 A 
ATOM      7  C   UNL     1      -1.098  -0.865  -1.088  0.00  0.00    +0.007 A 
ATOM      8  C   UNL     1      -0.478  -2.095  -1.212  0.00  0.00    +0.029 A 
ATOM      9  C   UNL     1       0.208  -2.638  -0.141  0.00  0.00    +0.107 A 
ATOM     10  C   UNL     1       0.276  -1.953   1.056  0.00  0.00    +0.052 A 
ATOM     11  C   UNL     1      -0.342  -0.715   1.183  0.00  0.00    +0.038 A 
BRANCH   9  12
ATOM     12  S   UNL     1       0.995  -4.205  -0.304  0.00  0.00    +0.060 S 
ATOM     13  O   UNL     1       1.108  -4.742   1.007  0.00  0.00    -0.153 OA
ATOM     14  O   UNL     1       0.324  -4.890  -1.353  0.00  0.00    -0.153 OA
BRANCH  12  15
ATOM     15  N   UNL     1       2.539  -3.925  -0.835  0.00  0.00    -0.183 NA
ATOM     16  C   UNL     1       3.621  -3.725   0.132  0.00  0.00    +0.131 C 
ATOM     17  C   UNL     1       2.822  -3.876  -2.272  0.00  0.00    +0.131 C 
ENDBRANCH  12  15
ENDBRANCH   9  12
ENDBRANCH   1  11
BRANCH   2  18
ATOM     18  C   UNL     1      -0.295   0.062   4.865  0.00  0.00    +0.014 C 
ATOM     19  C   UNL     1      -1.579   0.891   4.935  0.00  0.00    -0.004 C 
BRANCH  18  20
ATOM     20  N   UNL     1      -0.267  -0.892   5.982  0.00  0.00    +0.391 N 
ATOM     21  H   UNL     1      -1.110  -1.447   5.971  0.00  0.00    -0.084 HD
ATOM     22  H   UNL     1       0.535  -1.496   5.887  0.00  0.00    -0.084 HD
BRANCH  20  23
ATOM     23  C   UNL     1      -0.181  -0.158   7.251  0.00  0.00    -0.036 C 
ATOM     24  C   UNL     1      -0.285  -1.142   8.418  0.00  0.00    -0.008 C 
BRANCH  23  25
ATOM     25  C   UNL     1       1.138   0.569   7.322  0.00  0.00    -0.024 A 
ATOM     26  C   UNL     1       1.405   1.809   7.800  0.00  0.00    +0.009 A 
ATOM     27  C   UNL     1       2.705   2.275   7.766  0.00  0.00    +0.008 A 
ATOM     28  C   UNL     1       3.676   1.478   7.255  0.00  0.00    +0.045 A 
ATOM     29  S   UNL     1       2.755   0.016   6.807  0.00  0.00    -0.103 S 
ENDBRANCH  23  25
ENDBRANCH  20  23
ENDBRANCH  18  20
ENDBRANCH   2  18
TORSDOF 7
