REMARK  Name = ZINC39928456
REMARK  7 active torsions:
REMARK  status: ('A' for Active; 'I' for Inactive)
REMARK    1  A    between atoms: C_1  and  C_2
REMARK    2  A    between atoms: C_9  and  C_14
REMARK    3  A    between atoms: C_14  and  N_15
REMARK    4  A    between atoms: N_15  and  C_16
REMARK    5  A    between atoms: C_20  and  O_22
REMARK    6  A    between atoms: O_22  and  C_23
REMARK    7  A    between atoms: C_24  and  C_26
REMARK                            x       y       z     vdW  Elec       q    Type
REMARK                         _______ _______ _______ _____ _____    ______ ____
ROOT
ATOM      1  N   UNL     1      -0.464  -6.170   2.344  0.00  0.00    -0.268 N 
ATOM      2  C   UNL     1      -1.266  -7.060   1.727  0.00  0.00    +0.249 C 
ATOM      3  O   UNL     1      -2.383  -6.734   1.385  0.00  0.00    -0.272 OA
ENDROOT
BRANCH   1   4
ATOM      4  C   UNL     1       0.552  -6.617   3.196  0.00  0.00    +0.040 A 
ATOM      5  C   UNL     1       1.516  -5.728   3.655  0.00  0.00    +0.024 A 
ATOM      6  C   UNL     1       2.519  -6.170   4.496  0.00  0.00    +0.005 A 
ATOM      7  C   UNL     1       2.566  -7.495   4.883  0.00  0.00    +0.046 A 
ATOM      8  C   UNL     1       1.606  -8.387   4.428  0.00  0.00    +0.122 A 
ATOM      9  C   UNL     1       0.595  -7.947   3.588  0.00  0.00    +0.069 A 
BRANCH   8  10
ATOM     10  O   UNL     1       1.653  -9.691   4.810  0.00  0.00    -0.495 OA
ATOM     11  C   UNL     1       2.720 -10.073   5.681  0.00  0.00    +0.277 C 
ENDBRANCH   8  10
ENDBRANCH   1   4
BRANCH   2  12
ATOM     12  C   UNL     1      -0.775  -8.460   1.462  0.00  0.00    +0.204 C 
ATOM     13  C   UNL     1      -1.653  -9.489   2.217  0.00  0.00    +0.043 C 
ATOM     14  C   UNL     1      -1.434 -10.758   1.348  0.00  0.00    +0.031 C 
ATOM     15  C   UNL     1      -1.297 -10.163  -0.070  0.00  0.00    +0.161 C 
ATOM     16  O   UNL     1      -0.924  -8.786   0.071  0.00  0.00    -0.367 OA
ENDBRANCH   2  12
BRANCH   1  17
ATOM     17  C   UNL     1      -0.655  -4.734   2.122  0.00  0.00    +0.130 C 
BRANCH  17  26
ATOM     18  C   UNL     1       0.083   1.544  -1.200  0.00  0.00    +0.044 C 
ATOM     19  C   UNL     1       0.167   0.041  -1.128  0.00  0.00    -0.050 A 
ATOM     20  C   UNL     1       0.149  -0.701  -2.309  0.00  0.00    +0.005 A 
ATOM     21  C   UNL     1       0.221  -2.058  -2.324  0.00  0.00    +0.024 A 
ATOM     22  C   UNL     1       0.319  -2.780  -1.120  0.00  0.00    +0.040 A 
ATOM     23  N   UNL     1       0.390  -4.111  -1.146  0.00  0.00    -0.284 N 
ATOM     24  C   UNL     1       0.483  -4.851  -0.054  0.00  0.00    +0.226 C 
ATOM     25  O   UNL     1       0.545  -6.063  -0.141  0.00  0.00    -0.275 OA
ATOM     26  C   UNL     1       0.514  -4.185   1.303  0.00  0.00    +0.116 C 
ATOM     27  C   UNL     1       0.434  -2.671   1.338  0.00  0.00    -0.003 C 
ATOM     28  C   UNL     1       0.341  -2.022   0.142  0.00  0.00    -0.007 A 
ATOM     29  C   UNL     1       0.265  -0.562   0.085  0.00  0.00    +0.012 A 
ATOM     30  H   UNL     1       0.372  -4.558  -2.007  0.00  0.00    +0.155 HD
ENDBRANCH  17  26
ENDBRANCH   1  17
TORSDOF 5
