REMARK  Name = ZINC60864101
REMARK  6 active torsions:
REMARK  status: ('A' for Active; 'I' for Inactive)
REMARK    1  A    between atoms: C_1  and  C_2
REMARK    2  A    between atoms: C_2  and  C_3
REMARK    3  A    between atoms: C_5  and  S_20
REMARK    4  A    between atoms: C_8  and  N_9
REMARK    5  A    between atoms: N_9  and  C_10
REMARK    6  A    between atoms: S_20  and  C_21
REMARK                            x       y       z     vdW  Elec       q    Type
REMARK                         _______ _______ _______ _____ _____    ______ ____
ROOT
ATOM      1  N   UNL     1       2.840  -0.192  -0.146  0.00  0.00    -0.319 N 
ATOM      2  H   UNL     1       2.407   0.309   0.562  0.00  0.00    +0.152 HD
ENDROOT
BRANCH   1   3
ATOM      3  C   UNL     1       4.176  -0.378  -0.123  0.00  0.00    +0.090 C 
ATOM      4  C   UNL     1       4.914   0.052   0.964  0.00  0.00    +0.113 C 
ATOM      5  C   UNL     1       4.262   0.530   2.197  0.00  0.00    +0.256 C 
ATOM      6  O   UNL     1       3.049   0.558   2.292  0.00  0.00    -0.270 OA
ATOM      7  N   UNL     1       5.046   0.934   3.218  0.00  0.00    -0.263 N 
ATOM      8  C   UNL     1       6.383   0.908   3.127  0.00  0.00    +0.143 C 
ATOM      9  S   UNL     1       7.298   1.441   4.473  0.00  0.00    -0.018 S 
ATOM     10  N   UNL     1       7.042   0.488   2.038  0.00  0.00    -0.263 N 
ATOM     11  C   UNL     1       6.388   0.048   0.943  0.00  0.00    +0.256 C 
ATOM     12  O   UNL     1       6.998  -0.336  -0.037  0.00  0.00    -0.270 OA
ATOM     13  H   UNL     1       4.633   1.251   4.036  0.00  0.00    +0.157 HD
ATOM     14  H   UNL     1       8.012   0.495   2.039  0.00  0.00    +0.157 HD
ENDBRANCH   1   3
BRANCH   1  20
ATOM     15  C   UNL     1       0.703  -0.532  -1.218  0.00  0.00    -0.025 A 
ATOM     16  C   UNL     1      -0.048  -1.050  -2.254  0.00  0.00    +0.021 A 
ATOM     17  C   UNL     1       0.572  -1.767  -3.269  0.00  0.00    +0.023 A 
ATOM     18  C   UNL     1       1.947  -1.963  -3.242  0.00  0.00    +0.017 A 
ATOM     19  C   UNL     1       2.697  -1.445  -2.206  0.00  0.00    +0.024 A 
ATOM     20  C   UNL     1       2.078  -0.723  -1.193  0.00  0.00    +0.034 A 
BRANCH  15  22
ATOM     21  C   UNL     1       0.096   1.741  -0.434  0.00  0.00    +0.009 C 
ATOM     22  C   UNL     1       0.030   0.246  -0.116  0.00  0.00    +0.033 C 
ENDBRANCH  15  22
BRANCH  17  23
ATOM     23  S   UNL     1      -0.386  -2.429  -4.592  0.00  0.00    -0.010 S 
BRANCH  23  24
ATOM     24  C   UNL     1       0.811  -3.245  -5.624  0.00  0.00    +0.138 C 
ATOM     25  N   UNL     1       1.576  -3.766  -6.283  0.00  0.00    -0.183 NA
ENDBRANCH  23  24
ENDBRANCH  17  23
ENDBRANCH   1  20
TORSDOF 5
