REMARK  Name = ZINC14456451
REMARK  3 active torsions:
REMARK  status: ('A' for Active; 'I' for Inactive)
REMARK    1  A    between atoms: C_1  and  C_2
REMARK    2  A    between atoms: C_5  and  C_7
REMARK    3  A    between atoms: C_18  and  N_23
REMARK                            x       y       z     vdW  Elec       q    Type
REMARK                         _______ _______ _______ _____ _____    ______ ____
ROOT
ATOM      1  C   UNL     1       1.268   1.709  -0.001  0.00  0.00    +0.111 C 
ATOM      2  C   UNL     1       1.117   2.959   0.849  0.00  0.00    +0.029 C 
ATOM      3  C   UNL     1       2.307   3.927   0.885  0.00  0.00    +0.033 C 
ATOM      4  C   UNL     1       1.585   5.273   1.110  0.00  0.00    -0.030 C 
ATOM      5  C   UNL     1       0.332   5.206   0.676  0.00  0.00    -0.023 C 
ATOM      6  C   UNL     1       0.108   3.864   0.081  0.00  0.00    +0.049 C 
ATOM      7  C   UNL     1      -1.218   3.212   0.132  0.00  0.00    -0.017 A 
ATOM      8  C   UNL     1      -2.393   3.930   0.207  0.00  0.00    +0.038 A 
ATOM      9  C   UNL     1      -3.610   3.274   0.235  0.00  0.00    +0.127 A 
ATOM     10  C   UNL     1      -3.652   1.893   0.187  0.00  0.00    +0.034 A 
ATOM     11  C   UNL     1      -2.482   1.165   0.119  0.00  0.00    +0.025 A 
ATOM     12  C   UNL     1      -1.239   1.804   0.061  0.00  0.00    +0.032 A 
ATOM     13  N   UNL     1      -0.058   1.053   0.018  0.00  0.00    -0.336 N 
ATOM     14  H   UNL     1      -0.110   0.085  -0.005  0.00  0.00    +0.147 HD
ENDROOT
BRANCH   1  19
ATOM     15  C   UNL     1       1.717   3.201  -5.447  0.00  0.00    +0.051 C 
ATOM     16  C   UNL     1       1.860   2.788  -4.005  0.00  0.00    -0.013 A 
ATOM     17  C   UNL     1       2.987   2.515  -3.303  0.00  0.00    +0.011 A 
ATOM     18  C   UNL     1       2.877   2.152  -1.974  0.00  0.00    +0.013 A 
ATOM     19  C   UNL     1       1.646   2.079  -1.412  0.00  0.00    +0.010 A 
ATOM     20  S   UNL     1       0.589   2.525  -2.779  0.00  0.00    -0.097 S 
ENDBRANCH   1  19
BRANCH   9  21
ATOM     21  N   UNL     1      -4.867   4.051   0.317  0.00  0.00    +0.056 N 
ATOM     22  O   UNL     1      -4.830   5.268   0.358  0.00  0.00    -0.126 OA
ATOM     23  O   UNL     1      -5.939   3.474   0.342  0.00  0.00    -0.126 OA
ENDBRANCH   9  21
TORSDOF 2
