REMARK  Name = ZINC22930855
REMARK  6 active torsions:
REMARK  status: ('A' for Active; 'I' for Inactive)
REMARK    1  A    between atoms: C_1  and  O_2
REMARK    2  A    between atoms: O_2  and  C_3
REMARK    3  A    between atoms: C_8  and  N_9
REMARK    4  A    between atoms: C_13  and  N_17
REMARK    5  A    between atoms: N_20  and  C_23
REMARK    6  A    between atoms: C_23  and  C_24
REMARK                            x       y       z     vdW  Elec       q    Type
REMARK                         _______ _______ _______ _____ _____    ______ ____
ROOT
ATOM      1  N   UNL     1       0.094  -2.778  -0.110  0.00  0.00    -0.205 N 
ATOM      2  C   UNL     1      -1.178  -3.196  -0.141  0.00  0.00    +0.228 C 
ATOM      3  O   UNL     1      -1.973  -2.960  -1.025  0.00  0.00    -0.275 OA
ATOM      4  C   UNL     1      -1.464  -4.009   1.102  0.00  0.00    +0.125 C 
ATOM      5  C   UNL     1      -0.124  -3.989   1.865  0.00  0.00    +0.153 C 
ATOM      6  C   UNL     1       0.781  -3.171   0.970  0.00  0.00    +0.244 C 
ATOM      7  O   UNL     1       1.943  -2.910   1.196  0.00  0.00    -0.273 OA
ENDROOT
BRANCH   1  13
ATOM      8  C   UNL     1       0.606  -0.607  -1.056  0.00  0.00    +0.142 A 
ATOM      9  C   UNL     1       1.173   0.159  -2.062  0.00  0.00    +0.049 A 
ATOM     10  C   UNL     1       1.787  -0.455  -3.137  0.00  0.00    +0.024 A 
ATOM     11  C   UNL     1       1.837  -1.836  -3.213  0.00  0.00    +0.043 A 
ATOM     12  C   UNL     1       1.274  -2.607  -2.213  0.00  0.00    +0.047 A 
ATOM     13  C   UNL     1       0.662  -1.997  -1.129  0.00  0.00    +0.087 A 
ATOM     14 CL   UNL     1       2.609  -2.601  -4.567  0.00  0.00    -0.083 Cl
BRANCH   8  16
ATOM     15  C   UNL     1      -0.017   1.425   0.010  0.00  0.00    +0.277 C 
ATOM     16  O   UNL     1       0.002  -0.004   0.002  0.00  0.00    -0.493 OA
ENDBRANCH   8  16
ENDBRANCH   1  13
BRANCH   5  17
ATOM     17  N   UNL     1       0.402  -5.351   2.022  0.00  0.00    -0.289 NA
ATOM     18  C   UNL     1      -0.576  -6.219   2.694  0.00  0.00    +0.100 C 
ATOM     19  C   UNL     1      -0.023  -7.644   2.768  0.00  0.00    +0.100 C 
ATOM     20  N   UNL     1       1.254  -7.635   3.494  0.00  0.00    -0.295 NA
ATOM     21  C   UNL     1       2.232  -6.767   2.822  0.00  0.00    +0.100 C 
ATOM     22  C   UNL     1       1.679  -5.342   2.748  0.00  0.00    +0.100 C 
BRANCH  20  23
ATOM     23  C   UNL     1       1.780  -8.997   3.651  0.00  0.00    +0.127 C 
BRANCH  23  24
ATOM     24  C   UNL     1       2.950  -8.978   4.602  0.00  0.00    +0.005 A 
ATOM     25  C   UNL     1       2.957  -9.131   5.949  0.00  0.00    +0.013 A 
ATOM     26  C   UNL     1       4.163  -9.075   6.623  0.00  0.00    +0.023 A 
ATOM     27  C   UNL     1       5.302  -8.869   5.916  0.00  0.00    +0.055 A 
ATOM     28  S   UNL     1       4.684  -8.754   4.245  0.00  0.00    -0.085 S 
ATOM     29 BR   UNL     1       7.084  -8.744   6.538  0.00  0.00    -0.043 Br
ENDBRANCH  23  24
ENDBRANCH  20  23
ENDBRANCH   5  17
TORSDOF 5
