REMARK  Name = ZINC08858705
REMARK  7 active torsions:
REMARK  status: ('A' for Active; 'I' for Inactive)
REMARK    1  A    between atoms: C_1  and  C_2
REMARK    2  A    between atoms: C_5  and  S_8
REMARK    3  A    between atoms: S_8  and  C_11
REMARK    4  A    between atoms: C_12  and  N_23
REMARK    5  A    between atoms: C_14  and  C_16
REMARK    6  A    between atoms: N_23  and  C_24
REMARK    7  A    between atoms: N_23  and  C_25
REMARK                            x       y       z     vdW  Elec       q    Type
REMARK                         _______ _______ _______ _____ _____    ______ ____
ROOT
ATOM      1  C   UNL     1       0.073  -0.354   1.548  0.00  0.00    +0.243 A 
ATOM      2  C   UNL     1       1.092  -0.860   2.285  0.00  0.00    +0.235 A 
ATOM      3  O   UNL     1       0.550  -1.397   3.396  0.00  0.00    -0.420 OA
ATOM      4  C   UNL     1      -0.784  -1.223   3.325  0.00  0.00    +0.232 A 
ATOM      5  N   UNL     1      -1.068  -0.594   2.210  0.00  0.00    -0.188 NA
ENDROOT
BRANCH   4   6
ATOM      6  C   UNL     1      -1.765  -1.667   4.337  0.00  0.00    +0.050 A 
ATOM      7  C   UNL     1      -3.127  -1.421   4.149  0.00  0.00    +0.014 A 
ATOM      8  C   UNL     1      -4.037  -1.843   5.095  0.00  0.00    +0.001 A 
ATOM      9  C   UNL     1      -3.604  -2.499   6.234  0.00  0.00    +0.001 A 
ATOM     10  C   UNL     1      -2.256  -2.742   6.429  0.00  0.00    +0.015 A 
ATOM     11  C   UNL     1      -1.334  -2.330   5.488  0.00  0.00    +0.026 A 
ATOM     12  I   UNL     1       0.707  -2.698   5.786  0.00  0.00    -0.043 I 
ENDBRANCH   4   6
BRANCH   1  13
ATOM     13  S   UNL     1       0.221   0.465  -0.005  0.00  0.00    +0.047 S 
ATOM     14  O   UNL     1      -1.056   0.394  -0.625  0.00  0.00    -0.163 OA
ATOM     15  O   UNL     1       1.397  -0.042  -0.622  0.00  0.00    -0.163 OA
BRANCH  13  20
ATOM     16  C   UNL     1       1.256   6.297   1.146  0.00  0.00    +0.044 C 
ATOM     17  C   UNL     1       0.998   4.840   0.858  0.00  0.00    -0.050 A 
ATOM     18  C   UNL     1       2.058   3.963   0.728  0.00  0.00    +0.005 A 
ATOM     19  C   UNL     1       1.821   2.627   0.465  0.00  0.00    +0.028 A 
ATOM     20  C   UNL     1       0.523   2.168   0.331  0.00  0.00    +0.095 A 
ATOM     21  C   UNL     1      -0.537   3.047   0.456  0.00  0.00    +0.028 A 
ATOM     22  C   UNL     1      -0.300   4.382   0.723  0.00  0.00    +0.005 A 
ENDBRANCH  13  20
ENDBRANCH   1  13
BRANCH   2  23
ATOM     23  N   UNL     1       2.443  -0.828   1.957  0.00  0.00    -0.305 N 
ATOM     24  C   UNL     1       3.202  -0.032   2.931  0.00  0.00    +0.132 C 
ATOM     25  C   UNL     1       2.990  -2.187   1.848  0.00  0.00    +0.132 C 
ENDBRANCH   2  23
TORSDOF 4
