REMARK  Name = ZINC66285045
REMARK  8 active torsions:
REMARK  status: ('A' for Active; 'I' for Inactive)
REMARK    1  A    between atoms: C_1  and  C_2
REMARK    2  A    between atoms: C_3  and  C_24
REMARK    3  A    between atoms: C_4  and  C_23
REMARK    4  A    between atoms: C_7  and  C_8
REMARK    5  A    between atoms: N_10  and  C_11
REMARK    6  A    between atoms: C_13  and  N_19
REMARK    7  A    between atoms: C_20  and  C_22
REMARK    8  A    between atoms: C_24  and  C_26
REMARK                            x       y       z     vdW  Elec       q    Type
REMARK                         _______ _______ _______ _____ _____    ______ ____
ROOT
ATOM      1  C   UNL     1      -0.045  -0.310   2.455  0.00  0.00    +0.265 C 
ATOM      2  O   UNL     1      -0.052   0.873   2.742  0.00  0.00    -0.268 OA
ATOM      3  N   UNL     1      -0.016  -1.239   3.431  0.00  0.00    -0.278 N 
ATOM      4  H   UNL     1       0.057  -2.179   3.203  0.00  0.00    +0.155 HD
ENDROOT
BRANCH   1  11
ATOM      5  C   UNL     1      -0.113   1.619   0.006  0.00  0.00    +0.047 C 
ATOM      6  C   UNL     1      -0.096   0.112  -0.029  0.00  0.00    -0.010 A 
ATOM      7  C   UNL     1      -0.102  -0.704  -1.186  0.00  0.00    +0.041 A 
ATOM      8  C   UNL     1      -0.082  -2.020  -0.753  0.00  0.00    +0.024 A 
ATOM      9  N   UNL     1      -0.064  -2.023   0.588  0.00  0.00    -0.354 N 
ATOM     10  H   UNL     1      -0.048  -2.816   1.148  0.00  0.00    +0.166 HD
ATOM     11  C   UNL     1      -0.067  -0.723   1.047  0.00  0.00    +0.106 A 
ATOM     12  C   UNL     1      -0.081  -3.240  -1.638  0.00  0.00    +0.064 C 
BRANCH   7  13
ATOM     13  C   UNL     1      -0.127  -0.244  -2.578  0.00  0.00    +0.162 C 
ATOM     14  O   UNL     1      -1.183  -0.152  -3.168  0.00  0.00    -0.292 OA
ATOM     15  C   UNL     1       1.160   0.116  -3.275  0.00  0.00    +0.091 C 
ENDBRANCH   7  13
ENDBRANCH   1  11
BRANCH   3  16
ATOM     16  C   UNL     1      -0.092  -0.848   4.774  0.00  0.00    +0.071 A 
ATOM     17  C   UNL     1       0.498   0.338   5.185  0.00  0.00    +0.052 A 
ATOM     18  C   UNL     1       0.422   0.723   6.516  0.00  0.00    +0.071 A 
ATOM     19  C   UNL     1      -0.245  -0.081   7.434  0.00  0.00    +0.147 A 
ATOM     20  C   UNL     1      -0.833  -1.263   7.021  0.00  0.00    +0.080 A 
ATOM     21  C   UNL     1      -0.763  -1.646   5.694  0.00  0.00    +0.147 A 
ATOM     22  F   UNL     1      -1.343  -2.798   5.292  0.00  0.00    -0.203 F 
ATOM     23  F   UNL     1      -0.319   0.294   8.730  0.00  0.00    -0.203 F 
BRANCH  18  24
ATOM     24  N   UNL     1       1.018   1.920   6.934  0.00  0.00    -0.283 N 
ATOM     25  C   UNL     1       2.057   2.433   6.246  0.00  0.00    +0.214 C 
ATOM     26  O   UNL     1       2.430   1.897   5.224  0.00  0.00    -0.276 OA
ATOM     27  C   UNL     1       2.755   3.671   6.746  0.00  0.00    +0.109 C 
ATOM     28  H   UNL     1       0.682   2.380   7.720  0.00  0.00    +0.155 HD
ENDBRANCH  18  24
ENDBRANCH   3  16
TORSDOF 4
