REMARK  Name = ZINC07339397
REMARK  4 active torsions:
REMARK  status: ('A' for Active; 'I' for Inactive)
REMARK    1  A    between atoms: N_9  and  C_12
REMARK    2  A    between atoms: C_12  and  C_13
REMARK    3  A    between atoms: N_15  and  C_16
REMARK    4  A    between atoms: N_15  and  C_19
REMARK                            x       y       z     vdW  Elec       q    Type
REMARK                         _______ _______ _______ _____ _____    ______ ____
ROOT
ATOM      1  C   UNL     1       0.286   0.043   0.092  0.00  0.00    +0.213 C 
ENDROOT
BRANCH   1  10
ATOM      2  C   UNL     1       1.396   6.016   0.425  0.00  0.00    +0.001 A 
ATOM      3  C   UNL     1       0.021   6.117   0.333  0.00  0.00    +0.001 A 
ATOM      4  C   UNL     1      -0.762   4.978   0.230  0.00  0.00    +0.014 A 
ATOM      5  C   UNL     1      -0.160   3.730   0.219  0.00  0.00    +0.049 A 
ATOM      6  C   UNL     1       1.242   3.627   0.312  0.00  0.00    +0.049 A 
ATOM      7  C   UNL     1       2.012   4.774   0.415  0.00  0.00    +0.014 A 
ATOM      8  C   UNL     1       1.546   2.181   0.272  0.00  0.00    +0.254 C 
ATOM      9  O   UNL     1       2.654   1.687   0.328  0.00  0.00    -0.270 OA
ATOM     10  N   UNL     1       0.389   1.503   0.162  0.00  0.00    -0.225 N 
ATOM     11  C   UNL     1      -0.662   2.343   0.120  0.00  0.00    +0.254 C 
ATOM     12  O   UNL     1      -1.827   2.016   0.019  0.00  0.00    -0.270 OA
ENDBRANCH   1  10
BRANCH   1  13
ATOM     13  C   UNL     1       0.153  -0.518   1.484  0.00  0.00    +0.238 C 
ATOM     14  O   UNL     1       0.237   0.217   2.445  0.00  0.00    -0.274 OA
ATOM     15  N   UNL     1      -0.059  -1.837   1.661  0.00  0.00    -0.271 N 
BRANCH  15  16
ATOM     16  C   UNL     1      -0.298  -2.339   2.938  0.00  0.00    +0.010 C 
ATOM     17  C   UNL     1      -0.616  -3.599   3.052  0.00  0.00    -0.008 C 
ATOM     18  C   UNL     1      -0.909  -4.274   4.360  0.00  0.00    +0.029 C 
ATOM     19  C   UNL     1      -0.381  -3.427   5.520  0.00  0.00    +0.004 C 
ATOM     20  C   UNL     1      -0.868  -1.985   5.331  0.00  0.00    +0.006 C 
ATOM     21  C   UNL     1      -0.169  -1.399   4.101  0.00  0.00    +0.051 C 
ENDBRANCH  15  16
BRANCH  15  22
ATOM     22  C   UNL     1      -0.038  -2.744   0.511  0.00  0.00    +0.081 C 
ATOM     23  C   UNL     1       0.805  -4.015   0.628  0.00  0.00    +0.025 C 
ATOM     24  C   UNL     1       1.274  -2.866  -0.268  0.00  0.00    +0.025 C 
ENDBRANCH  15  22
ENDBRANCH   1  13
TORSDOF 4
