REMARK  Name = ZINC47327213
REMARK  4 active torsions:
REMARK  status: ('A' for Active; 'I' for Inactive)
REMARK    1  A    between atoms: C_4  and  N_18
REMARK    2  A    between atoms: C_5  and  N_7
REMARK    3  A    between atoms: C_8  and  C_10
REMARK    4  A    between atoms: C_11  and  C_12
REMARK                            x       y       z     vdW  Elec       q    Type
REMARK                         _______ _______ _______ _____ _____    ______ ____
ROOT
ATOM      1  N   UNL     1       1.049  -1.973  -0.090  0.00  0.00    -0.280 N 
ATOM      2  C   UNL     1      -0.161  -2.551  -0.222  0.00  0.00    +0.241 C 
ATOM      3  O   UNL     1      -1.151  -1.861  -0.393  0.00  0.00    -0.270 OA
ATOM      4  H   UNL     1       1.845  -2.523  -0.021  0.00  0.00    +0.155 HD
ENDROOT
BRANCH   1   9
ATOM      5  C   UNL     1       0.371   1.585  -0.723  0.00  0.00    +0.002 A 
ATOM      6  C   UNL     1       1.372   2.183   0.022  0.00  0.00    +0.002 A 
ATOM      7  C   UNL     1       2.268   1.407   0.732  0.00  0.00    +0.030 A 
ATOM      8  C   UNL     1       2.166   0.024   0.699  0.00  0.00    +0.090 A 
ATOM      9  C   UNL     1       1.157  -0.579  -0.052  0.00  0.00    +0.059 A 
ATOM     10  C   UNL     1       0.262   0.209  -0.762  0.00  0.00    +0.025 A 
BRANCH   8  11
ATOM     11  N   UNL     1       3.075  -0.766   1.419  0.00  0.00    -0.198 N 
ATOM     12  C   UNL     1       4.157  -0.347   2.110  0.00  0.00    +0.250 A 
ATOM     13  N   UNL     1       4.721  -1.407   2.627  0.00  0.00    -0.116 NA
ATOM     14  N   UNL     1       4.070  -2.467   2.309  0.00  0.00    -0.023 NA
ATOM     15  N   UNL     1       3.052  -2.163   1.580  0.00  0.00    -0.039 NA
ENDBRANCH   8  11
ENDBRANCH   1   9
BRANCH   2  16
ATOM     16  C   UNL     1      -0.282  -3.958  -0.162  0.00  0.00    +0.068 C 
ATOM     17  C   UNL     1      -1.501  -4.541  -0.295  0.00  0.00    +0.020 C 
BRANCH  17  18
ATOM     18  C   UNL     1      -1.622  -5.949  -0.235  0.00  0.00    +0.013 A 
ATOM     19  C   UNL     1      -2.763  -6.737  -0.352  0.00  0.00    +0.016 A 
ATOM     20  C   UNL     1      -2.563  -8.092  -0.250  0.00  0.00    +0.023 A 
ATOM     21  C   UNL     1      -1.304  -8.560  -0.048  0.00  0.00    +0.055 A 
ATOM     22  S   UNL     1      -0.352  -7.177   0.002  0.00  0.00    -0.082 S 
ATOM     23 BR   UNL     1      -0.750 -10.359   0.129  0.00  0.00    -0.043 Br
ENDBRANCH  17  18
ENDBRANCH   2  16
TORSDOF 4
