REMARK  Name = ZINC11482172
REMARK  8 active torsions:
REMARK  status: ('A' for Active; 'I' for Inactive)
REMARK    1  A    between atoms: C_3  and  N_11
REMARK    2  A    between atoms: C_5  and  S_7
REMARK    3  A    between atoms: S_7  and  N_10
REMARK    4  A    between atoms: C_12  and  C_14
REMARK    5  A    between atoms: C_14  and  O_15
REMARK    6  A    between atoms: O_15  and  C_16
REMARK    7  A    between atoms: C_16  and  C_18
REMARK    8  A    between atoms: C_18  and  C_19
REMARK                            x       y       z     vdW  Elec       q    Type
REMARK                         _______ _______ _______ _____ _____    ______ ____
ROOT
ATOM      1  N   UNL     1      -1.191   1.867   0.018  0.00  0.00    -0.283 N 
ATOM      2  C   UNL     1      -0.014   1.209   0.007  0.00  0.00    +0.255 C 
ATOM      3  O   UNL     1       0.002  -0.004  -0.008  0.00  0.00    -0.272 OA
ATOM      4  H   UNL     1      -1.205   2.833   0.098  0.00  0.00    +0.155 HD
ENDROOT
BRANCH   1   7
ATOM      5  C   UNL     1      -4.650   0.997  -0.875  0.00  0.00    +0.004 A 
ATOM      6  C   UNL     1      -3.468   1.704  -0.769  0.00  0.00    +0.023 A 
ATOM      7  C   UNL     1      -2.391   1.155  -0.086  0.00  0.00    +0.035 A 
ATOM      8  C   UNL     1      -2.510  -0.099   0.499  0.00  0.00    +0.051 A 
ATOM      9  C   UNL     1      -3.696  -0.798   0.395  0.00  0.00    +0.107 A 
ATOM     10  C   UNL     1      -4.765  -0.252  -0.291  0.00  0.00    +0.028 A 
BRANCH   9  11
ATOM     11  S   UNL     1      -3.847  -2.389   1.137  0.00  0.00    +0.056 S 
ATOM     12  O   UNL     1      -4.876  -3.070   0.432  0.00  0.00    -0.153 OA
ATOM     13  O   UNL     1      -2.530  -2.910   1.254  0.00  0.00    -0.153 OA
BRANCH  11  14
ATOM     14  N   UNL     1      -4.404  -2.159   2.680  0.00  0.00    -0.204 NA
ATOM     15  H   UNL     1      -4.578  -1.261   3.003  0.00  0.00    +0.144 HD
ATOM     16  H   UNL     1      -4.555  -2.921   3.260  0.00  0.00    +0.144 HD
ENDBRANCH  11  14
ENDBRANCH   9  11
ENDBRANCH   1   7
BRANCH   2  17
ATOM     17  C   UNL     1       1.280   1.980   0.007  0.00  0.00    +0.328 C 
BRANCH  17  18
ATOM     18  O   UNL     1       2.397   1.052  -0.012  0.00  0.00    -0.455 OA
BRANCH  18  19
ATOM     19  C   UNL     1       3.630   1.582  -0.014  0.00  0.00    +0.312 C 
ATOM     20  O   UNL     1       3.772   2.782  -0.001  0.00  0.00    -0.250 OA
BRANCH  19  21
ATOM     21  C   UNL     1       4.838   0.680  -0.034  0.00  0.00    +0.157 C 
BRANCH  21  22
ATOM     22  C   UNL     1       6.090   1.518  -0.033  0.00  0.00    -0.018 A 
ATOM     23  C   UNL     1       6.788   1.715   1.144  0.00  0.00    +0.007 A 
ATOM     24  C   UNL     1       7.937   2.483   1.146  0.00  0.00    +0.020 A 
ATOM     25  C   UNL     1       8.389   3.056  -0.030  0.00  0.00    +0.042 A 
ATOM     26  C   UNL     1       7.691   2.859  -1.207  0.00  0.00    +0.040 A 
ATOM     27  C   UNL     1       6.544   2.086  -1.210  0.00  0.00    +0.046 A 
ATOM     28 CL   UNL     1       5.670   1.833  -2.689  0.00  0.00    -0.083 Cl
ATOM     29 CL   UNL     1       9.832   4.021  -0.027  0.00  0.00    -0.083 Cl
ENDBRANCH  21  22
ENDBRANCH  19  21
ENDBRANCH  18  19
ENDBRANCH  17  18
ENDBRANCH   2  17
TORSDOF 8
