REMARK  Name = ZINC67423755
REMARK  6 active torsions:
REMARK  status: ('A' for Active; 'I' for Inactive)
REMARK    1  A    between atoms: C_1  and  C_2
REMARK    2  A    between atoms: C_5  and  N_9
REMARK    3  A    between atoms: C_10  and  C_12
REMARK    4  A    between atoms: C_12  and  C_13
REMARK    5  A    between atoms: C_13  and  N_14
REMARK    6  A    between atoms: C_23  and  C_25
REMARK                            x       y       z     vdW  Elec       q    Type
REMARK                         _______ _______ _______ _____ _____    ______ ____
ROOT
ATOM      1  N   UNL     1      -0.330  -8.309  -2.633  0.00  0.00    -0.299 N 
ATOM      2  C   UNL     1      -0.429  -8.977  -3.799  0.00  0.00    +0.302 C 
ATOM      3  O   UNL     1      -0.350  -8.375  -4.853  0.00  0.00    -0.253 OA
ATOM      4  N   UNL     1      -0.614 -10.312  -3.798  0.00  0.00    -0.283 N 
ATOM      5  C   UNL     1      -0.607 -11.066  -2.536  0.00  0.00    +0.128 C 
ATOM      6  C   UNL     1      -1.918 -11.856  -2.430  0.00  0.00    +0.127 C 
ATOM      7  N   UNL     1      -2.131 -12.583  -3.689  0.00  0.00    -0.298 N 
ATOM      8  C   UNL     1      -2.138 -11.829  -4.951  0.00  0.00    +0.127 C 
ATOM      9  C   UNL     1      -0.833 -11.038  -5.056  0.00  0.00    +0.128 C 
ATOM     10  C   UNL     1      -2.317 -13.918  -3.688  0.00  0.00    +0.219 C 
ATOM     11  O   UNL     1      -2.308 -14.530  -2.641  0.00  0.00    -0.275 OA
ATOM     12  H   UNL     1      -0.320  -8.796  -1.794  0.00  0.00    +0.150 HD
ENDROOT
BRANCH  10  13
ATOM     13  C   UNL     1      -2.534 -14.650  -4.987  0.00  0.00    +0.075 C 
ATOM     14  C   UNL     1      -3.920 -15.247  -5.238  0.00  0.00    +0.013 C 
ATOM     15  C   UNL     1      -2.739 -16.165  -4.918  0.00  0.00    +0.013 C 
ENDBRANCH  10  13
BRANCH   1  16
ATOM     16  C   UNL     1      -0.240  -6.846  -2.632  0.00  0.00    +0.115 C 
BRANCH  16  17
ATOM     17  C   UNL     1      -0.138  -6.343  -1.191  0.00  0.00    +0.115 C 
BRANCH  17  19
ATOM     18  N   UNL     1       0.053  -4.171  -0.023  0.00  0.00    -0.284 N 
ATOM     19  C   UNL     1      -0.045  -4.839  -1.190  0.00  0.00    +0.219 C 
ATOM     20  O   UNL     1      -0.059  -4.230  -2.238  0.00  0.00    -0.275 OA
ATOM     21  H   UNL     1       0.145  -4.660   0.810  0.00  0.00    +0.155 HD
BRANCH  18  26
ATOM     22  C   UNL     1      -0.071   1.502   0.016  0.00  0.00    +0.044 C 
ATOM     23  C   UNL     1      -0.038  -0.004   0.006  0.00  0.00    -0.049 A 
ATOM     24  C   UNL     1      -0.628  -0.701  -1.033  0.00  0.00    +0.005 A 
ATOM     25  C   UNL     1      -0.599  -2.082  -1.046  0.00  0.00    +0.025 A 
ATOM     26  C   UNL     1       0.023  -2.771  -0.014  0.00  0.00    +0.052 A 
ATOM     27  C   UNL     1       0.616  -2.069   1.029  0.00  0.00    +0.062 A 
ATOM     28  C   UNL     1       0.588  -0.687   1.032  0.00  0.00    +0.025 A 
ATOM     29 CL   UNL     1       1.395  -2.926   2.322  0.00  0.00    -0.082 Cl
ENDBRANCH  18  26
ENDBRANCH  17  19
ENDBRANCH  16  17
ENDBRANCH   1  16
TORSDOF 5
