REMARK  Name = ZINC63400872
REMARK  7 active torsions:
REMARK  status: ('A' for Active; 'I' for Inactive)
REMARK    1  A    between atoms: C_2  and  C_3
REMARK    2  A    between atoms: C_3  and  N_4
REMARK    3  A    between atoms: N_4  and  C_5
REMARK    4  A    between atoms: C_5  and  C_6
REMARK    5  A    between atoms: N_13  and  C_14
REMARK    6  A    between atoms: N_17  and  C_20
REMARK    7  A    between atoms: C_20  and  C_21
REMARK                            x       y       z     vdW  Elec       q    Type
REMARK                         _______ _______ _______ _____ _____    ______ ____
ROOT
ATOM      1  C   UNL     1       2.078   2.209   3.597  0.00  0.00    +0.071 C 
ATOM      2  C   UNL     1       2.914   0.981   3.968  0.00  0.00    +0.004 C 
ATOM      3  C   UNL     1       3.578   1.214   5.327  0.00  0.00    -0.077 C 
ATOM      4  N   UNL     1       2.547   1.433   6.349  0.00  0.00    +0.382 N 
ATOM      5  C   UNL     1       1.788   2.650   6.037  0.00  0.00    -0.077 C 
ATOM      6  C   UNL     1       1.055   2.472   4.706  0.00  0.00    +0.004 C 
ATOM      7  H   UNL     1       1.921   0.642   6.367  0.00  0.00    -0.081 HD
ENDROOT
BRANCH   1  11
ATOM      8  N   UNL     1       1.357   1.975  -0.000  0.00  0.00    -0.267 N 
ATOM      9  C   UNL     1       2.000   2.202   1.162  0.00  0.00    +0.304 C 
ATOM     10  O   UNL     1       3.140   2.623   1.153  0.00  0.00    -0.253 OA
ATOM     11  N   UNL     1       1.379   1.962   2.334  0.00  0.00    -0.297 N 
ATOM     12  H   UNL     1       0.469   1.627   2.341  0.00  0.00    +0.151 HD
BRANCH   8  13
ATOM     13  C   UNL     1      -0.018   1.468   0.010  0.00  0.00    +0.198 C 
BRANCH  13  15
ATOM     14  C   UNL     1       0.018  -1.178  -0.004  0.00  0.00    +0.005 C 
ATOM     15  C   UNL     1       0.002  -0.004   0.002  0.00  0.00    -0.086 C 
ENDBRANCH  13  15
ENDBRANCH   8  13
BRANCH   8  16
ATOM     16  C   UNL     1       2.032   2.235  -1.274  0.00  0.00    +0.184 C 
BRANCH  16  17
ATOM     17  C   UNL     1       1.771   3.658  -1.699  0.00  0.00    +0.122 A 
ATOM     18  C   UNL     1       2.530   4.723  -1.387  0.00  0.00    +0.046 A 
ATOM     19  C   UNL     1       1.923   5.849  -1.988  0.00  0.00    +0.041 A 
ATOM     20  C   UNL     1       0.829   5.404  -2.633  0.00  0.00    +0.195 A 
ATOM     21  O   UNL     1       0.746   4.075  -2.459  0.00  0.00    -0.466 OA
ENDBRANCH  16  17
ENDBRANCH   8  16
ENDBRANCH   1  11
BRANCH   4  22
ATOM     22  C   UNL     1       3.186   1.579   7.663  0.00  0.00    -0.043 C 
BRANCH  22  23
ATOM     23  C   UNL     1       2.125   1.681   8.729  0.00  0.00    -0.064 A 
ATOM     24  C   UNL     1       1.622   2.917   9.087  0.00  0.00    +0.003 A 
ATOM     25  C   UNL     1       0.649   3.011  10.064  0.00  0.00    +0.020 A 
ATOM     26  C   UNL     1       0.178   1.867  10.684  0.00  0.00    +0.041 A 
ATOM     27  C   UNL     1       0.682   0.630  10.325  0.00  0.00    +0.020 A 
ATOM     28  C   UNL     1       1.651   0.537   9.343  0.00  0.00    +0.003 A 
ATOM     29 CL   UNL     1      -1.043   1.985  11.911  0.00  0.00    -0.084 Cl
ENDBRANCH  22  23
ENDBRANCH   4  22
TORSDOF 7
