REMARK  Name = ZINC66952763
REMARK  6 active torsions:
REMARK  status: ('A' for Active; 'I' for Inactive)
REMARK    1  A    between atoms: C_1  and  C_2
REMARK    2  A    between atoms: C_5  and  C_26
REMARK    3  A    between atoms: C_7  and  N_8
REMARK    4  A    between atoms: C_14  and  N_17
REMARK    5  A    between atoms: C_18  and  C_20
REMARK    6  A    between atoms: C_20  and  C_21
REMARK                            x       y       z     vdW  Elec       q    Type
REMARK                         _______ _______ _______ _____ _____    ______ ____
ROOT
ATOM      1  N   UNL     1       0.030  -0.007   2.418  0.00  0.00    -0.269 N 
ATOM      2  C   UNL     1      -0.057  -0.682   3.581  0.00  0.00    +0.306 C 
ATOM      3  O   UNL     1      -0.044  -1.898   3.581  0.00  0.00    -0.252 OA
ATOM      4  N   UNL     1      -0.156  -0.009   4.745  0.00  0.00    -0.285 N 
ATOM      5  C   UNL     1      -0.293   1.453   4.755  0.00  0.00    +0.111 C 
ATOM      6  C   UNL     1      -1.528   1.827   5.581  0.00  0.00    +0.041 C 
ATOM      7  C   UNL     1      -1.416   1.197   6.971  0.00  0.00    +0.076 C 
ATOM      8  C   UNL     1      -1.366  -0.327   6.840  0.00  0.00    +0.041 C 
ATOM      9  C   UNL     1      -0.136  -0.726   6.027  0.00  0.00    +0.111 C 
ATOM     10  H   UNL     1       0.083   0.962   2.422  0.00  0.00    +0.156 HD
ENDROOT
BRANCH   1  17
ATOM     11  C   UNL     1      -1.010   1.297   0.117  0.00  0.00    +0.045 C 
ATOM     12  C   UNL     1      -0.456  -0.103   0.054  0.00  0.00    -0.029 A 
ATOM     13  C   UNL     1      -0.441  -0.785  -1.149  0.00  0.00    +0.006 A 
ATOM     14  C   UNL     1       0.063  -2.067  -1.215  0.00  0.00    +0.019 A 
ATOM     15  C   UNL     1       0.562  -2.681  -0.064  0.00  0.00    +0.054 A 
ATOM     16  C   UNL     1       0.547  -1.993   1.150  0.00  0.00    +0.042 A 
ATOM     17  C   UNL     1       0.042  -0.703   1.204  0.00  0.00    +0.039 A 
BRANCH  15  18
ATOM     18  C   UNL     1       1.086  -4.012  -0.129  0.00  0.00    +0.099 C 
ATOM     19  N   UNL     1       1.501  -5.068  -0.180  0.00  0.00    -0.191 NA
ENDBRANCH  15  18
ENDBRANCH   1  17
BRANCH   7  20
ATOM     20  N   UNL     1      -2.579   1.580   7.776  0.00  0.00    -0.312 N 
ATOM     21  C   UNL     1      -2.492   1.595   9.121  0.00  0.00    +0.214 C 
ATOM     22  O   UNL     1      -1.452   1.291   9.665  0.00  0.00    -0.276 OA
ATOM     23  H   UNL     1      -3.411   1.823   7.341  0.00  0.00    +0.149 HD
BRANCH  21  24
ATOM     24  C   UNL     1      -3.689   1.988   9.948  0.00  0.00    +0.099 C 
BRANCH  24  25
ATOM     25  C   UNL     1      -3.326   1.922  11.433  0.00  0.00    -0.002 C 
ATOM     26  C   UNL     1      -3.089   0.457  11.855  0.00  0.00    +0.004 C 
ATOM     27  C   UNL     1      -3.672   0.375  13.287  0.00  0.00    +0.000 C 
ATOM     28  C   UNL     1      -4.931   1.273  13.195  0.00  0.00    +0.000 C 
ATOM     29  C   UNL     1      -4.497   2.441  12.286  0.00  0.00    +0.004 C 
ENDBRANCH  24  25
ENDBRANCH  21  24
ENDBRANCH   7  20
TORSDOF 5
