REMARK  Name = ZINC15728499
REMARK  4 active torsions:
REMARK  status: ('A' for Active; 'I' for Inactive)
REMARK    1  A    between atoms: C_6  and  S_7
REMARK    2  A    between atoms: S_7  and  N_10
REMARK    3  A    between atoms: C_14  and  C_17
REMARK    4  A    between atoms: N_19  and  C_20
REMARK                            x       y       z     vdW  Elec       q    Type
REMARK                         _______ _______ _______ _____ _____    ______ ____
ROOT
ATOM      1  S   UNL     1      -4.284   2.164   0.055  0.00  0.00    +0.061 S 
ATOM      2  O   UNL     1      -4.370   2.834   1.305  0.00  0.00    -0.153 OA
ATOM      3  O   UNL     1      -4.393   2.848  -1.185  0.00  0.00    -0.153 OA
ENDROOT
BRANCH   1   9
ATOM      4  C   UNL     1      -6.052   0.449  -1.132  0.00  0.00    +0.030 A 
ATOM      5  C   UNL     1      -7.024  -0.522  -1.111  0.00  0.00    +0.025 A 
ATOM      6  C   UNL     1      -7.520  -1.037   0.099  0.00  0.00    +0.037 A 
ATOM      7  C   UNL     1      -7.016  -0.545   1.285  0.00  0.00    -0.024 A 
ATOM      8  C   UNL     1      -6.023   0.434   1.251  0.00  0.00    +0.034 A 
ATOM      9  C   UNL     1      -5.540   0.927   0.060  0.00  0.00    +0.106 A 
ATOM     10  C   UNL     1      -7.457  -0.969   2.648  0.00  0.00    +0.037 C 
ATOM     11  C   UNL     1      -8.912  -1.289   2.792  0.00  0.00    +0.014 C 
ATOM     12  C   UNL     1      -9.287  -2.644   2.242  0.00  0.00    +0.096 C 
ATOM     13  C   UNL     1      -9.285  -2.659   0.756  0.00  0.00    +0.217 C 
ATOM     14  O   UNL     1     -10.131  -3.345   0.222  0.00  0.00    -0.275 OA
ATOM     15  N   UNL     1      -8.475  -2.018  -0.037  0.00  0.00    -0.285 N 
ATOM     16  H   UNL     1      -8.569  -2.304  -0.959  0.00  0.00    +0.155 HD
ENDBRANCH   1   9
BRANCH   1  17
ATOM     17  N   UNL     1      -2.826   1.380   0.037  0.00  0.00    -0.176 NA
ATOM     18  C   UNL     1      -2.178   1.033  -1.236  0.00  0.00    +0.109 C 
ATOM     19  C   UNL     1      -0.752   1.593  -1.232  0.00  0.00    +0.018 C 
ATOM     20  C   UNL     1      -0.013   1.086   0.008  0.00  0.00    +0.015 C 
ATOM     21  C   UNL     1      -0.729   1.579   1.268  0.00  0.00    +0.091 C 
ATOM     22  C   UNL     1      -2.154   1.019   1.293  0.00  0.00    +0.122 C 
BRANCH  21  23
ATOM     23  C   UNL     1       0.018   1.107   2.488  0.00  0.00    +0.218 C 
ATOM     24  O   UNL     1      -0.534   0.395   3.300  0.00  0.00    -0.275 OA
ATOM     25  N   UNL     1       1.301   1.475   2.678  0.00  0.00    -0.312 N 
ATOM     26  H   UNL     1       1.743   2.044   2.029  0.00  0.00    +0.149 HD
BRANCH  25  27
ATOM     27  C   UNL     1       2.027   1.016   3.864  0.00  0.00    +0.073 C 
ATOM     28  C   UNL     1       1.786   1.985   5.040  0.00  0.00    +0.022 C 
ATOM     29  C   UNL     1       3.149   2.036   5.775  0.00  0.00    +0.002 C 
ATOM     30  C   UNL     1       4.169   1.997   4.610  0.00  0.00    +0.002 C 
ATOM     31  C   UNL     1       3.542   1.023   3.591  0.00  0.00    +0.022 C 
ENDBRANCH  25  27
ENDBRANCH  21  23
ENDBRANCH   1  17
TORSDOF 4
