REMARK  Name = ZINC58823031
REMARK  4 active torsions:
REMARK  status: ('A' for Active; 'I' for Inactive)
REMARK    1  A    between atoms: C_5  and  C_7
REMARK    2  A    between atoms: C_7  and  O_8
REMARK    3  A    between atoms: O_8  and  C_9
REMARK    4  A    between atoms: C_14  and  C_15
REMARK                            x       y       z     vdW  Elec       q    Type
REMARK                         _______ _______ _______ _____ _____    ______ ____
ROOT
ATOM      1  C   UNL     1      -0.332  -4.225   0.381  0.00  0.00    +0.128 A 
ATOM      2  C   UNL     1       0.747  -5.089   0.268  0.00  0.00    +0.048 A 
ATOM      3  C   UNL     1       0.585  -6.326  -0.324  0.00  0.00    +0.023 A 
ATOM      4  C   UNL     1      -0.655  -6.718  -0.811  0.00  0.00    +0.042 A 
ATOM      5  C   UNL     1      -1.740  -5.876  -0.710  0.00  0.00    +0.031 A 
ATOM      6  C   UNL     1      -1.593  -4.618  -0.105  0.00  0.00    +0.019 A 
ATOM      7 CL   UNL     1      -0.838  -8.277  -1.552  0.00  0.00    -0.084 Cl
ENDROOT
BRANCH   6   8
ATOM      8  C   UNL     1      -2.706  -3.747   0.010  0.00  0.00    +0.030 C 
ATOM      9  C   UNL     1      -3.905  -4.218   0.521  0.00  0.00    +0.101 C 
ATOM     10  C   UNL     1      -4.003  -5.540   1.158  0.00  0.00    +0.276 C 
ATOM     11  O   UNL     1      -2.919  -6.338   1.264  0.00  0.00    -0.268 OA
ATOM     12  N   UNL     1      -5.176  -5.929   1.625  0.00  0.00    -0.123 NA
ATOM     13  C   UNL     1      -6.262  -5.165   1.536  0.00  0.00    +0.333 C 
ATOM     14  O   UNL     1      -7.307  -5.593   1.991  0.00  0.00    -0.250 OA
ATOM     15  N   UNL     1      -6.268  -3.947   0.973  0.00  0.00    -0.234 N 
ATOM     16  C   UNL     1      -5.141  -3.413   0.456  0.00  0.00    +0.257 C 
ATOM     17  O   UNL     1      -5.145  -2.306  -0.051  0.00  0.00    -0.270 OA
ATOM     18  H   UNL     1      -7.095  -3.441   0.940  0.00  0.00    +0.159 HD
ENDBRANCH   6   8
BRANCH   1  19
ATOM     19  O   UNL     1      -0.173  -3.010   0.962  0.00  0.00    -0.487 OA
BRANCH  19  20
ATOM     20  C   UNL     1       1.136  -2.681   1.432  0.00  0.00    +0.266 C 
BRANCH  20  25
ATOM     21  C   UNL     1      -0.071   0.688   2.635  0.00  0.00    +0.000 A 
ATOM     22  C   UNL     1       1.089   1.225   3.161  0.00  0.00    +0.001 A 
ATOM     23  C   UNL     1       2.264   0.500   3.128  0.00  0.00    +0.020 A 
ATOM     24  C   UNL     1       2.280  -0.766   2.568  0.00  0.00    +0.047 A 
ATOM     25  C   UNL     1       1.119  -1.303   2.042  0.00  0.00    +0.008 A 
ATOM     26  C   UNL     1      -0.056  -0.576   2.075  0.00  0.00    +0.008 A 
ATOM     27 CL   UNL     1       3.757  -1.678   2.525  0.00  0.00    -0.083 Cl
ENDBRANCH  20  25
ENDBRANCH  19  20
ENDBRANCH   1  19
TORSDOF 4
