REMARK  Name = ZINC50818233
REMARK  4 active torsions:
REMARK  status: ('A' for Active; 'I' for Inactive)
REMARK    1  A    between atoms: C_1  and  C_2
REMARK    2  A    between atoms: C_2  and  N_3
REMARK    3  A    between atoms: N_6  and  C_11
REMARK    4  A    between atoms: C_11  and  C_12
REMARK                            x       y       z     vdW  Elec       q    Type
REMARK                         _______ _______ _______ _____ _____    ______ ____
ROOT
ATOM      1  C   UNL     1       3.009  -0.310   5.753  0.00  0.00    +0.150 A 
ATOM      2  N   UNL     1       4.022   0.535   5.685  0.00  0.00    -0.215 NA
ATOM      3  C   UNL     1       4.174   1.524   6.549  0.00  0.00    +0.128 A 
ATOM      4  C   UNL     1       3.218   1.690   7.589  0.00  0.00    +0.047 A 
ATOM      5  C   UNL     1       3.159   2.682   8.648  0.00  0.00    +0.021 A 
ATOM      6  C   UNL     1       2.147   2.641   9.528  0.00  0.00    +0.048 A 
ATOM      7  S   UNL     1       1.183   1.242   8.989  0.00  0.00    -0.077 S 
ATOM      8  C   UNL     1       2.164   0.750   7.597  0.00  0.00    +0.114 A 
ATOM      9  N   UNL     1       2.088  -0.205   6.691  0.00  0.00    -0.223 NA
ATOM     10  N   UNL     1       5.250   2.388   6.444  0.00  0.00    -0.343 N 
ATOM     11  H   UNL     1       5.899   2.269   5.733  0.00  0.00    +0.144 HD
ATOM     12  H   UNL     1       5.355   3.111   7.081  0.00  0.00    +0.144 HD
ENDROOT
BRANCH   1  13
ATOM     13  C   UNL     1       2.900  -1.414   4.733  0.00  0.00    +0.184 C 
BRANCH  13  17
ATOM     14  N   UNL     1       0.711  -0.489   1.189  0.00  0.00    -0.293 N 
ATOM     15  C   UNL     1       2.157  -0.707   1.137  0.00  0.00    +0.127 C 
ATOM     16  C   UNL     1       2.807  -0.302   2.457  0.00  0.00    +0.127 C 
ATOM     17  N   UNL     1       2.125  -0.942   3.583  0.00  0.00    -0.285 N 
ATOM     18  C   UNL     1       0.786  -1.099   3.564  0.00  0.00    +0.302 C 
ATOM     19  O   UNL     1       0.204  -1.529   4.537  0.00  0.00    -0.265 OA
ATOM     20  C   UNL     1       0.030  -0.729   2.327  0.00  0.00    +0.302 C 
ATOM     21  O   UNL     1      -1.181  -0.650   2.348  0.00  0.00    -0.265 OA
BRANCH  14  23
ATOM     22  C   UNL     1      -0.019   1.526   0.010  0.00  0.00    +0.024 C 
ATOM     23  C   UNL     1       0.002  -0.004   0.002  0.00  0.00    +0.105 C 
ENDBRANCH  14  23
ENDBRANCH  13  17
ENDBRANCH   1  13
TORSDOF 3
