REMARK  Name = ZINC04676843
REMARK  5 active torsions:
REMARK  status: ('A' for Active; 'I' for Inactive)
REMARK    1  A    between atoms: C_1  and  N_2
REMARK    2  A    between atoms: N_2  and  C_3
REMARK    3  A    between atoms: N_2  and  C_4
REMARK    4  A    between atoms: C_7  and  N_10
REMARK    5  A    between atoms: C_14  and  C_15
REMARK                            x       y       z     vdW  Elec       q    Type
REMARK                         _______ _______ _______ _____ _____    ______ ____
ROOT
ATOM      1  N   UNL     1       0.874   3.318   0.712  0.00  0.00    -0.316 N 
ATOM      2  C   UNL     1      -0.464   3.387   0.915  0.00  0.00    +0.092 A 
ATOM      3  C   UNL     1      -1.055   2.304   0.345  0.00  0.00    +0.020 A 
ATOM      4  C   UNL     1      -0.057   1.519  -0.229  0.00  0.00    +0.027 A 
ATOM      5  C   UNL     1       1.153   2.165   0.003  0.00  0.00    +0.047 A 
ENDROOT
BRANCH   5   6
ATOM      6  C   UNL     1       2.422   1.727  -0.407  0.00  0.00    +0.044 C 
ATOM      7  C   UNL     1       3.181   2.507  -1.273  0.00  0.00    +0.101 C 
ATOM      8  C   UNL     1       2.628   3.721  -1.898  0.00  0.00    +0.257 C 
ATOM      9  O   UNL     1       1.487   4.076  -1.671  0.00  0.00    -0.270 OA
ATOM     10  N   UNL     1       3.424   4.432  -2.723  0.00  0.00    -0.236 N 
ATOM     11  C   UNL     1       4.682   4.049  -2.985  0.00  0.00    +0.313 C 
ATOM     12  O   UNL     1       5.345   4.731  -3.742  0.00  0.00    -0.252 OA
ATOM     13  N   UNL     1       5.246   2.954  -2.457  0.00  0.00    -0.236 N 
ATOM     14  C   UNL     1       4.570   2.151  -1.609  0.00  0.00    +0.257 C 
ATOM     15  O   UNL     1       5.094   1.160  -1.136  0.00  0.00    -0.270 OA
ATOM     16  H   UNL     1       3.077   5.236  -3.140  0.00  0.00    +0.159 HD
ATOM     17  H   UNL     1       6.162   2.734  -2.689  0.00  0.00    +0.159 HD
ENDBRANCH   5   6
BRANCH   1  21
ATOM     18  C   UNL     1       3.682   6.117   2.011  0.00  0.00    +0.029 A 
ATOM     19  C   UNL     1       2.611   6.521   1.223  0.00  0.00    +0.025 A 
ATOM     20  C   UNL     1       1.682   5.595   0.793  0.00  0.00    +0.028 A 
ATOM     21  C   UNL     1       1.818   4.259   1.149  0.00  0.00    +0.047 A 
ATOM     22  C   UNL     1       2.885   3.856   1.941  0.00  0.00    +0.028 A 
ATOM     23  C   UNL     1       3.817   4.781   2.366  0.00  0.00    +0.025 A 
BRANCH  18  25
ATOM     24  C   UNL     1       4.479   8.464   2.072  0.00  0.00    +0.129 C 
ATOM     25  N   UNL     1       4.622   7.055   2.446  0.00  0.00    -0.336 N 
ATOM     26  C   UNL     1       5.751   6.629   3.277  0.00  0.00    +0.129 C 
ENDBRANCH  18  25
ENDBRANCH   1  21
TORSDOF 3
