REMARK  Name = ZINC65842211
REMARK  6 active torsions:
REMARK  status: ('A' for Active; 'I' for Inactive)
REMARK    1  A    between atoms: C_3  and  N_22
REMARK    2  A    between atoms: C_6  and  N_7
REMARK    3  A    between atoms: C_8  and  C_10
REMARK    4  A    between atoms: N_12  and  C_13
REMARK    5  A    between atoms: C_16  and  C_20
REMARK    6  A    between atoms: N_25  and  C_26
REMARK                            x       y       z     vdW  Elec       q    Type
REMARK                         _______ _______ _______ _____ _____    ______ ____
ROOT
ATOM      1  N   UNL     1      -0.993  -0.600   0.100  0.00  0.00    -0.278 N 
ATOM      2  C   UNL     1      -2.000  -0.093  -0.638  0.00  0.00    +0.303 C 
ATOM      3  O   UNL     1      -1.803   0.865  -1.358  0.00  0.00    -0.265 OA
ATOM      4  H   UNL     1      -1.131  -1.409   0.617  0.00  0.00    +0.155 HD
ENDROOT
BRANCH   1  10
ATOM      5  C   UNL     1       0.320   1.425   0.015  0.00  0.00    +0.025 A 
ATOM      6  C   UNL     1       1.546   2.057   0.036  0.00  0.00    +0.025 A 
ATOM      7  C   UNL     1       2.710   1.311   0.164  0.00  0.00    +0.035 A 
ATOM      8  C   UNL     1       2.640  -0.072   0.270  0.00  0.00    +0.025 A 
ATOM      9  C   UNL     1       1.414  -0.705   0.248  0.00  0.00    +0.025 A 
ATOM     10  C   UNL     1       0.249   0.041   0.121  0.00  0.00    +0.034 A 
BRANCH   7  11
ATOM     11  N   UNL     1       3.955   1.953   0.186  0.00  0.00    -0.269 N 
ATOM     12  C   UNL     1       4.073   3.176   0.740  0.00  0.00    +0.304 C 
ATOM     13  O   UNL     1       3.122   3.682   1.303  0.00  0.00    -0.253 OA
ATOM     14  N   UNL     1       5.245   3.838   0.668  0.00  0.00    -0.296 N 
ATOM     15  H   UNL     1       4.732   1.517  -0.198  0.00  0.00    +0.156 HD
ATOM     16  H   UNL     1       6.003   3.434   0.218  0.00  0.00    +0.151 HD
BRANCH  14  17
ATOM     17  C   UNL     1       5.373   5.167   1.270  0.00  0.00    +0.075 C 
ATOM     18  C   UNL     1       6.101   6.242   0.460  0.00  0.00    +0.024 C 
ATOM     19  C   UNL     1       6.773   5.622   1.687  0.00  0.00    +0.024 C 
ENDBRANCH  14  17
ENDBRANCH   7  11
ENDBRANCH   1  10
BRANCH   2  20
ATOM     20  C   UNL     1      -3.358  -0.709  -0.572  0.00  0.00    +0.303 C 
ATOM     21  O   UNL     1      -3.555  -1.667   0.147  0.00  0.00    -0.265 OA
ATOM     22  N   UNL     1      -4.365  -0.203  -1.311  0.00  0.00    -0.278 N 
ATOM     23  H   UNL     1      -4.225   0.602  -1.834  0.00  0.00    +0.155 HD
BRANCH  22  24
ATOM     24  C   UNL     1      -5.607  -0.835  -1.323  0.00  0.00    +0.035 A 
ATOM     25  C   UNL     1      -6.093  -1.433  -0.163  0.00  0.00    +0.024 A 
ATOM     26  C   UNL     1      -7.319  -2.058  -0.171  0.00  0.00    +0.022 A 
ATOM     27  C   UNL     1      -8.077  -2.093  -1.345  0.00  0.00    +0.070 A 
ATOM     28  C   UNL     1      -7.586  -1.492  -2.508  0.00  0.00    +0.060 A 
ATOM     29  C   UNL     1      -6.360  -0.862  -2.492  0.00  0.00    +0.044 A 
ATOM     30 CL   UNL     1      -8.523  -1.532  -3.970  0.00  0.00    -0.082 Cl
BRANCH  27  31
ATOM     31  C   UNL     1      -9.353  -2.744  -1.356  0.00  0.00    +0.101 C 
ATOM     32  N   UNL     1     -10.365  -3.260  -1.365  0.00  0.00    -0.191 NA
ENDBRANCH  27  31
ENDBRANCH  22  24
ENDBRANCH   2  20
TORSDOF 6
