REMARK  Name = ZINC08569149
REMARK  8 active torsions:
REMARK  status: ('A' for Active; 'I' for Inactive)
REMARK    1  A    between atoms: C_1  and  C_2
REMARK    2  A    between atoms: C_2  and  O_3
REMARK    3  A    between atoms: O_3  and  C_4
REMARK    4  A    between atoms: C_4  and  C_6
REMARK    5  A    between atoms: C_6  and  C_8
REMARK    6  A    between atoms: C_6  and  S_9
REMARK    7  A    between atoms: S_9  and  C_10
REMARK    8  A    between atoms: N_18  and  C_21
REMARK                            x       y       z     vdW  Elec       q    Type
REMARK                         _______ _______ _______ _____ _____    ______ ____
ROOT
ATOM      1  C   UNL     1      -2.667  -3.024   0.748  0.00  0.00    +0.172 A 
ATOM      2  N   UNL     1      -2.902  -4.279   1.231  0.00  0.00    -0.301 N 
ATOM      3  H   UNL     1      -2.066  -4.894   1.594  0.00  0.00    +0.171 HD
ATOM      4  C   UNL     1      -4.160  -4.772   1.265  0.00  0.00    +0.263 A 
ATOM      5  O   UNL     1      -4.382  -5.890   1.694  0.00  0.00    -0.267 OA
ATOM      6  C   UNL     1      -5.215  -3.953   0.789  0.00  0.00    +0.103 A 
ATOM      7  C   UNL     1      -6.610  -4.119   0.671  0.00  0.00    +0.150 A 
ATOM      8  N   UNL     1      -7.113  -3.030   0.158  0.00  0.00    -0.172 NA
ATOM      9  N   UNL     1      -6.087  -2.108  -0.083  0.00  0.00    -0.214 N 
ATOM     10  C   UNL     1      -4.908  -2.671   0.305  0.00  0.00    +0.171 A 
ATOM     11  N   UNL     1      -3.636  -2.252   0.308  0.00  0.00    -0.204 NA
ENDROOT
BRANCH   9  12
ATOM     12  C   UNL     1      -6.246  -0.828  -0.628  0.00  0.00    +0.068 A 
ATOM     13  C   UNL     1      -5.442   0.218  -0.193  0.00  0.00    +0.029 A 
ATOM     14  C   UNL     1      -5.597   1.478  -0.736  0.00  0.00    +0.022 A 
ATOM     15  C   UNL     1      -6.559   1.702  -1.705  0.00  0.00    +0.041 A 
ATOM     16  C   UNL     1      -7.365   0.663  -2.137  0.00  0.00    +0.022 A 
ATOM     17  C   UNL     1      -7.210  -0.600  -1.601  0.00  0.00    +0.029 A 
ATOM     18 CL   UNL     1      -6.756   3.289  -2.381  0.00  0.00    -0.084 Cl
ENDBRANCH   9  12
BRANCH   1  19
ATOM     19  S   UNL     1      -1.013  -2.417   0.720  0.00  0.00    -0.073 S 
BRANCH  19  20
ATOM     20  C   UNL     1      -1.293  -0.775   0.010  0.00  0.00    +0.160 C 
ATOM     21  C   UNL     1      -1.809  -0.920  -1.423  0.00  0.00    +0.031 C 
BRANCH  20  22
ATOM     22  C   UNL     1       0.002  -0.004   0.002  0.00  0.00    +0.320 C 
ATOM     23  O   UNL     1       1.056  -0.594  -0.011  0.00  0.00    -0.250 OA
BRANCH  22  24
ATOM     24  O   UNL     1      -0.016   1.338   0.009  0.00  0.00    -0.464 OA
BRANCH  24  26
ATOM     25  C   UNL     1       1.048   3.529   0.011  0.00  0.00    +0.048 C 
ATOM     26  C   UNL     1       1.268   2.015   0.001  0.00  0.00    +0.229 C 
ENDBRANCH  24  26
ENDBRANCH  22  24
ENDBRANCH  20  22
ENDBRANCH  19  20
ENDBRANCH   1  19
TORSDOF 6
