REMARK  Name = ZINC47331686
REMARK  3 active torsions:
REMARK  status: ('A' for Active; 'I' for Inactive)
REMARK    1  A    between atoms: C_6  and  S_7
REMARK    2  A    between atoms: S_7  and  N_10
REMARK    3  A    between atoms: N_10  and  C_11
REMARK                            x       y       z     vdW  Elec       q    Type
REMARK                         _______ _______ _______ _____ _____    ______ ____
ROOT
ATOM      1  C   UNL     1      -0.017   1.378   0.010  0.00  0.00    +0.037 A 
ATOM      2  C   UNL     1       1.169   2.086   0.002  0.00  0.00    -0.024 A 
ATOM      3  C   UNL     1       2.382   1.410  -0.013  0.00  0.00    +0.039 A 
ATOM      4  C   UNL     1       2.400   0.022  -0.022  0.00  0.00    +0.064 A 
ATOM      5  C   UNL     1       1.210  -0.683  -0.015  0.00  0.00    +0.151 A 
ATOM      6  C   UNL     1       0.002  -0.004   0.002  0.00  0.00    +0.141 A 
ATOM      7  F   UNL     1       1.225  -2.034  -0.024  0.00  0.00    -0.203 F 
ATOM      8  N   UNL     1       3.581   2.128  -0.019  0.00  0.00    -0.285 N 
ATOM      9  C   UNL     1       3.605   3.420   0.357  0.00  0.00    +0.218 C 
ATOM     10  O   UNL     1       4.651   4.033   0.332  0.00  0.00    -0.275 OA
ATOM     11  C   UNL     1       2.348   4.113   0.810  0.00  0.00    +0.101 C 
ATOM     12  C   UNL     1       1.151   3.593   0.011  0.00  0.00    +0.046 C 
ATOM     13  H   UNL     1       4.402   1.692  -0.296  0.00  0.00    +0.155 HD
ENDROOT
BRANCH   6  14
ATOM     14  S   UNL     1      -1.513  -0.904   0.012  0.00  0.00    +0.061 S 
ATOM     15  O   UNL     1      -1.394  -1.887   1.031  0.00  0.00    -0.153 OA
ATOM     16  O   UNL     1      -2.557   0.059  -0.000  0.00  0.00    -0.153 OA
BRANCH  14  17
ATOM     17  N   UNL     1      -1.606  -1.721  -1.426  0.00  0.00    -0.187 NA
ATOM     18  H   UNL     1      -2.302  -1.501  -2.064  0.00  0.00    +0.148 HD
BRANCH  17  19
ATOM     19  C   UNL     1      -0.637  -2.776  -1.732  0.00  0.00    +0.077 C 
ATOM     20  C   UNL     1       0.510  -2.191  -2.559  0.00  0.00    +0.020 C 
ATOM     21  C   UNL     1       1.522  -3.293  -2.879  0.00  0.00    +0.002 C 
ATOM     22  C   UNL     1       0.833  -4.402  -3.677  0.00  0.00    +0.000 C 
ATOM     23  C   UNL     1      -0.314  -4.987  -2.851  0.00  0.00    +0.002 C 
ATOM     24  C   UNL     1      -1.326  -3.885  -2.530  0.00  0.00    +0.020 C 
ENDBRANCH  17  19
ENDBRANCH  14  17
ENDBRANCH   6  14
TORSDOF 3
