REMARK  Name = ZINC15016525
REMARK  3 active torsions:
REMARK  status: ('A' for Active; 'I' for Inactive)
REMARK    1  A    between atoms: C_1  and  C_2
REMARK    2  A    between atoms: C_3  and  N_9
REMARK    3  A    between atoms: C_15  and  C_16
REMARK                            x       y       z     vdW  Elec       q    Type
REMARK                         _______ _______ _______ _____ _____    ______ ____
ROOT
ATOM      1  N   UNL     1      -0.009  -0.012  -2.394  0.00  0.00    -0.225 NA
ATOM      2  C   UNL     1       0.093  -0.663  -3.532  0.00  0.00    +0.166 C 
ATOM      3  N   UNL     1       0.123  -2.024  -3.741  0.00  0.00    -0.260 N 
ATOM      4  C   UNL     1       0.232  -2.515  -4.964  0.00  0.00    +0.257 C 
ATOM      5  O   UNL     1       0.259  -3.716  -5.167  0.00  0.00    -0.269 OA
ATOM      6  C   UNL     1       0.316  -1.547  -6.070  0.00  0.00    +0.081 C 
ATOM      7  C   UNL     1       0.432  -1.772  -7.409  0.00  0.00    +0.066 C 
ATOM      8  S   UNL     1       0.220   0.002  -5.184  0.00  0.00    -0.049 S 
ATOM      9  H   UNL     1       0.065  -2.628  -2.985  0.00  0.00    +0.157 HD
ENDROOT
BRANCH   1  12
ATOM     10  C   UNL     1       1.664   0.601  -0.180  0.00  0.00    +0.047 C 
ATOM     11  C   UNL     1       0.575  -0.439  -0.110  0.00  0.00    -0.007 A 
ATOM     12  C   UNL     1      -0.218  -0.699  -1.230  0.00  0.00    +0.071 A 
ATOM     13  C   UNL     1      -1.225  -1.664  -1.156  0.00  0.00    +0.028 A 
ATOM     14  C   UNL     1      -1.431  -2.353   0.022  0.00  0.00    +0.004 A 
ATOM     15  C   UNL     1      -0.643  -2.091   1.128  0.00  0.00    +0.020 A 
ATOM     16  C   UNL     1       0.362  -1.139   1.060  0.00  0.00    +0.046 A 
ATOM     17 CL   UNL     1       1.350  -0.823   2.452  0.00  0.00    -0.083 Cl
ENDBRANCH   1  12
BRANCH   7  18
ATOM     18  C   UNL     1       0.498  -0.681  -8.306  0.00  0.00    +0.129 A 
ATOM     19  C   UNL     1       0.610  -0.763  -9.680  0.00  0.00    +0.049 A 
ATOM     20  C   UNL     1       0.640   0.557 -10.157  0.00  0.00    +0.042 A 
ATOM     21  C   UNL     1       0.549   1.372  -9.084  0.00  0.00    +0.195 A 
ATOM     22  O   UNL     1       0.457   0.626  -7.973  0.00  0.00    -0.463 OA
ENDBRANCH   7  18
TORSDOF 2
