REMARK  Name = ZINC02915128
REMARK  6 active torsions:
REMARK  status: ('A' for Active; 'I' for Inactive)
REMARK    1  A    between atoms: C_1  and  O_2
REMARK    2  A    between atoms: O_2  and  C_3
REMARK    3  A    between atoms: C_6  and  C_9
REMARK    4  A    between atoms: C_20  and  C_22
REMARK    5  A    between atoms: C_27  and  O_28
REMARK    6  A    between atoms: O_28  and  C_29
REMARK                            x       y       z     vdW  Elec       q    Type
REMARK                         _______ _______ _______ _____ _____    ______ ____
ROOT
ATOM      1  C   UNL     1      -5.016  -2.578   0.043  0.00  0.00    +0.159 C 
ATOM      2  C   UNL     1      -5.394  -2.873  -1.392  0.00  0.00    +0.027 C 
ATOM      3  C   UNL     1      -5.599  -4.159  -1.742  0.00  0.00    +0.083 C 
ATOM      4  C   UNL     1      -5.979  -4.432  -3.151  0.00  0.00    +0.042 A 
ATOM      5  C   UNL     1      -5.901  -5.710  -3.688  0.00  0.00    +0.013 A 
ATOM      6  C   UNL     1      -6.264  -5.920  -5.005  0.00  0.00    +0.001 A 
ATOM      7  C   UNL     1      -6.702  -4.863  -5.784  0.00  0.00    +0.004 A 
ATOM      8  C   UNL     1      -6.783  -3.588  -5.256  0.00  0.00    +0.046 A 
ATOM      9  C   UNL     1      -6.424  -3.363  -3.938  0.00  0.00    +0.131 A 
ATOM     10  O   UNL     1      -6.502  -2.123  -3.393  0.00  0.00    -0.479 OA
ATOM     11  C   UNL     1      -5.531  -1.773  -2.404  0.00  0.00    +0.238 C 
ATOM     12  N   UNL     1      -5.465  -5.168  -0.846  0.00  0.00    -0.213 NA
ATOM     13  C   UNL     1      -5.141  -5.000   0.414  0.00  0.00    +0.237 C 
ATOM     14  N   UNL     1      -4.901  -3.744   0.927  0.00  0.00    -0.208 N 
ATOM     15  N   UNL     1      -4.585  -3.919   2.276  0.00  0.00    -0.251 N 
ATOM     16  C   UNL     1      -4.641  -5.258   2.515  0.00  0.00    +0.203 C 
ATOM     17  N   UNL     1      -4.968  -5.879   1.426  0.00  0.00    -0.205 NA
ATOM     18  H   UNL     1      -4.367  -3.223   2.916  0.00  0.00    +0.171 HD
ENDROOT
BRANCH   1  22
ATOM     19  C   UNL     1      -1.263  -0.534   0.040  0.00  0.00    +0.120 A 
ATOM     20  C   UNL     1      -2.444   0.182   0.168  0.00  0.00    +0.046 A 
ATOM     21  C   UNL     1      -3.656  -0.480   0.169  0.00  0.00    +0.009 A 
ATOM     22  C   UNL     1      -3.692  -1.857   0.042  0.00  0.00    -0.021 A 
ATOM     23  C   UNL     1      -2.517  -2.573  -0.086  0.00  0.00    +0.009 A 
ATOM     24  C   UNL     1      -1.302  -1.914  -0.093  0.00  0.00    +0.046 A 
BRANCH  19  26
ATOM     25  C   UNL     1      -0.105   1.538   0.180  0.00  0.00    +0.277 C 
ATOM     26  O   UNL     1      -0.069   0.116   0.039  0.00  0.00    -0.495 OA
ENDBRANCH  19  26
ENDBRANCH   1  22
BRANCH  11  27
ATOM     27  C   UNL     1      -4.200  -1.543  -3.072  0.00  0.00    +0.039 A 
ATOM     28  C   UNL     1      -3.322  -2.596  -3.246  0.00  0.00    +0.011 A 
ATOM     29  C   UNL     1      -2.101  -2.386  -3.858  0.00  0.00    +0.001 A 
ATOM     30  C   UNL     1      -1.754  -1.122  -4.299  0.00  0.00    +0.004 A 
ATOM     31  C   UNL     1      -2.628  -0.066  -4.128  0.00  0.00    +0.046 A 
ATOM     32  C   UNL     1      -3.857  -0.276  -3.519  0.00  0.00    +0.127 A 
BRANCH  32  33
ATOM     33  O   UNL     1      -4.721   0.761  -3.355  0.00  0.00    -0.495 OA
ATOM     34  C   UNL     1      -4.355   2.010  -3.943  0.00  0.00    +0.277 C 
ENDBRANCH  32  33
ENDBRANCH  11  27
TORSDOF 4
