REMARK  Name = ZINC40214992
REMARK  4 active torsions:
REMARK  status: ('A' for Active; 'I' for Inactive)
REMARK    1  A    between atoms: C_6  and  S_7
REMARK    2  A    between atoms: S_7  and  N_10
REMARK    3  A    between atoms: N_10  and  C_11
REMARK    4  A    between atoms: C_11  and  C_17
REMARK                            x       y       z     vdW  Elec       q    Type
REMARK                         _______ _______ _______ _____ _____    ______ ____
ROOT
ATOM      1  S   UNL     1      -1.502  -0.892   0.008  0.00  0.00    +0.060 S 
ATOM      2  O   UNL     1      -2.578  -0.106   0.502  0.00  0.00    -0.153 OA
ATOM      3  O   UNL     1      -0.148  -0.468   0.090  0.00  0.00    -0.153 OA
ENDROOT
BRANCH   1   9
ATOM      4  C   UNL     1      -0.441  -3.170   1.074  0.00  0.00    +0.030 A 
ATOM      5  C   UNL     1      -0.512  -4.389   1.721  0.00  0.00    +0.023 A 
ATOM      6  C   UNL     1      -1.736  -4.886   2.129  0.00  0.00    +0.059 A 
ATOM      7  C   UNL     1      -2.892  -4.161   1.888  0.00  0.00    +0.061 A 
ATOM      8  C   UNL     1      -2.819  -2.941   1.240  0.00  0.00    +0.050 A 
ATOM      9  C   UNL     1      -1.594  -2.446   0.833  0.00  0.00    +0.107 A 
ATOM     10 CL   UNL     1      -4.430  -4.783   2.398  0.00  0.00    -0.082 Cl
ATOM     11 CL   UNL     1      -1.826  -6.417   2.941  0.00  0.00    -0.082 Cl
ENDBRANCH   1   9
BRANCH   1  12
ATOM     12  N   UNL     1      -1.815  -1.169  -1.594  0.00  0.00    -0.170 NA
ATOM     13  H   UNL     1      -2.574  -0.742  -2.021  0.00  0.00    +0.150 HD
BRANCH  12  14
ATOM     14  C   UNL     1      -0.945  -2.058  -2.368  0.00  0.00    +0.126 C 
ATOM     15  C   UNL     1       0.506  -1.588  -2.243  0.00  0.00    +0.039 C 
ATOM     16  C   UNL     1       1.415  -2.517  -3.050  0.00  0.00    +0.003 C 
ATOM     17  C   UNL     1       0.995  -2.489  -4.521  0.00  0.00    +0.000 C 
ATOM     18  C   UNL     1      -0.456  -2.960  -4.646  0.00  0.00    +0.003 C 
ATOM     19  C   UNL     1      -1.365  -2.031  -3.838  0.00  0.00    +0.039 C 
BRANCH  14  20
ATOM     20  C   UNL     1      -1.061  -3.431  -1.849  0.00  0.00    +0.086 C 
ATOM     21  N   UNL     1      -1.151  -4.491  -1.450  0.00  0.00    -0.195 NA
ENDBRANCH  14  20
ENDBRANCH  12  14
ENDBRANCH   1  12
TORSDOF 4
