REMARK  Name = ZINC21050676
REMARK  3 active torsions:
REMARK  status: ('A' for Active; 'I' for Inactive)
REMARK    1  A    between atoms: C_1  and  C_2
REMARK    2  A    between atoms: C_5  and  N_9
REMARK    3  A    between atoms: C_10  and  C_12
REMARK                            x       y       z     vdW  Elec       q    Type
REMARK                         _______ _______ _______ _____ _____    ______ ____
ROOT
ATOM      1  C   UNL     1      -0.021   1.486   0.018  0.00  0.00    +0.247 C 
ATOM      2  N   UNL     1       1.356   1.972   0.004  0.00  0.00    -0.319 N 
ATOM      3  C   UNL     1       2.322   1.510  -0.886  0.00  0.00    +0.055 A 
ATOM      4  C   UNL     1       3.443   2.301  -1.132  0.00  0.00    +0.025 A 
ATOM      5  C   UNL     1       4.434   1.856  -1.981  0.00  0.00    +0.002 A 
ATOM      6  C   UNL     1       4.324   0.622  -2.596  0.00  0.00    +0.002 A 
ATOM      7  C   UNL     1       3.211  -0.166  -2.363  0.00  0.00    +0.030 A 
ATOM      8  C   UNL     1       2.216   0.278  -1.517  0.00  0.00    +0.126 A 
ATOM      9  S   UNL     1       0.789  -0.727  -1.233  0.00  0.00    +0.062 S 
ATOM     10  O   UNL     1       1.255  -1.984  -0.761  0.00  0.00    -0.153 OA
ATOM     11  O   UNL     1      -0.046  -0.594  -2.374  0.00  0.00    -0.153 OA
ATOM     12  N   UNL     1      -0.001   0.009   0.039  0.00  0.00    -0.161 NA
ATOM     13  H   UNL     1       1.675   2.743   0.721  0.00  0.00    +0.148 HD
ATOM     14  H   UNL     1      -0.340  -0.533   0.934  0.00  0.00    +0.151 HD
ENDROOT
BRANCH   1  16
ATOM     15  N   UNL     1      -2.074   1.808  -1.324  0.00  0.00    -0.282 N 
ATOM     16  C   UNL     1      -0.740   1.964  -1.217  0.00  0.00    +0.254 C 
ATOM     17  O   UNL     1      -0.117   2.490  -2.115  0.00  0.00    -0.272 OA
ATOM     18  H   UNL     1      -2.647   1.388  -0.484  0.00  0.00    +0.155 HD
BRANCH  15  23
ATOM     19  C   UNL     1      -4.734   3.315  -6.104  0.00  0.00    +0.044 C 
ATOM     20  C   UNL     1      -4.027   2.914  -4.835  0.00  0.00    -0.049 A 
ATOM     21  C   UNL     1      -2.829   3.513  -4.493  0.00  0.00    +0.005 A 
ATOM     22  C   UNL     1      -2.182   3.153  -3.327  0.00  0.00    +0.025 A 
ATOM     23  C   UNL     1      -2.730   2.179  -2.503  0.00  0.00    +0.052 A 
ATOM     24  C   UNL     1      -3.935   1.579  -2.849  0.00  0.00    +0.062 A 
ATOM     25  C   UNL     1      -4.580   1.948  -4.014  0.00  0.00    +0.025 A 
ATOM     26 CL   UNL     1      -4.628   0.366  -1.818  0.00  0.00    -0.082 Cl
ENDBRANCH  15  23
ENDBRANCH   1  16
TORSDOF 2
