REMARK  Name = ZINC36734373
REMARK  8 active torsions:
REMARK  status: ('A' for Active; 'I' for Inactive)
REMARK    1  A    between atoms: C_1  and  C_2
REMARK    2  A    between atoms: C_4  and  C_8
REMARK    3  A    between atoms: C_5  and  C_7
REMARK    4  A    between atoms: C_8  and  C_10
REMARK    5  A    between atoms: C_8  and  N_11
REMARK    6  A    between atoms: N_11  and  C_12
REMARK    7  A    between atoms: C_13  and  C_19
REMARK    8  A    between atoms: C_17  and  C_18
REMARK                            x       y       z     vdW  Elec       q    Type
REMARK                         _______ _______ _______ _____ _____    ______ ____
ROOT
ATOM      1  N   UNL     1      -2.669  -2.976  -0.566  0.00  0.00    -0.334 N 
ATOM      2  H   UNL     1      -3.095  -2.105  -0.540  0.00  0.00    +0.147 HD
ENDROOT
BRANCH   1   3
ATOM      3  C   UNL     1      -3.340  -4.071  -1.144  0.00  0.00    +0.071 A 
ATOM      4  C   UNL     1      -4.294  -4.006  -2.107  0.00  0.00    +0.054 A 
ATOM      5  N   UNL     1      -4.682  -5.279  -2.386  0.00  0.00    -0.280 N 
ATOM      6  H   UNL     1      -5.352  -5.542  -3.036  0.00  0.00    +0.189 HD
ATOM      7  N   UNL     1      -3.942  -6.143  -1.568  0.00  0.00    -0.177 NA
ATOM      8  C   UNL     1      -3.137  -5.423  -0.830  0.00  0.00    +0.081 A 
ATOM      9  C   UNL     1      -2.160  -5.955   0.187  0.00  0.00    +0.069 C 
ATOM     10  C   UNL     1      -4.826  -2.752  -2.750  0.00  0.00    +0.067 C 
ENDBRANCH   1   3
BRANCH   1  11
ATOM     11  C   UNL     1      -1.327  -3.153  -0.005  0.00  0.00    +0.101 C 
ATOM     12  C   UNL     1      -1.438  -3.491   1.483  0.00  0.00    +0.033 C 
BRANCH  11  16
ATOM     13  C   UNL     1      -0.100   1.757  -0.590  0.00  0.00    +0.086 C 
ATOM     14  C   UNL     1      -0.021   0.261  -0.427  0.00  0.00    +0.103 A 
ATOM     15  C   UNL     1      -1.069  -0.573  -0.299  0.00  0.00    +0.050 A 
ATOM     16  C   UNL     1      -0.541  -1.878  -0.173  0.00  0.00    +0.013 A 
ATOM     17  C   UNL     1       0.798  -1.764  -0.231  0.00  0.00    +0.107 A 
ATOM     18  O   UNL     1       1.107  -0.467  -0.391  0.00  0.00    -0.465 OA
ATOM     19  C   UNL     1       1.784  -2.900  -0.138  0.00  0.00    +0.086 C 
ENDBRANCH  11  16
ENDBRANCH   1  11
TORSDOF 3
