REMARK  Name = ZINC20995096
REMARK  7 active torsions:
REMARK  status: ('A' for Active; 'I' for Inactive)
REMARK    1  A    between atoms: C_1  and  O_2
REMARK    2  A    between atoms: O_2  and  C_3
REMARK    3  A    between atoms: C_6  and  C_10
REMARK    4  A    between atoms: C_10  and  N_11
REMARK    5  A    between atoms: C_17  and  C_19
REMARK    6  A    between atoms: C_19  and  C_20
REMARK    7  A    between atoms: N_22  and  C_23
REMARK                            x       y       z     vdW  Elec       q    Type
REMARK                         _______ _______ _______ _____ _____    ______ ____
ROOT
ATOM      1  N   UNL     1      -3.060  -0.865   3.543  0.00  0.00    +0.391 N 
ATOM      2  C   UNL     1      -4.199  -1.728   3.896  0.00  0.00    -0.058 C 
ATOM      3  C   UNL     1      -4.824  -1.210   5.193  0.00  0.00    +0.085 C 
ATOM      4  N   UNL     1      -5.079   0.223   5.087  0.00  0.00    -0.318 N 
ATOM      5  C   UNL     1      -4.491   1.001   4.172  0.00  0.00    +0.200 C 
ATOM      6  O   UNL     1      -4.737   2.188   4.174  0.00  0.00    -0.278 OA
ATOM      7  C   UNL     1      -3.539   0.465   3.141  0.00  0.00    +0.028 C 
ATOM      8  H   UNL     1      -5.782   0.709   5.779  0.00  0.00    +0.149 HD
ATOM      9  H   UNL     1      -2.418  -0.750   4.429  0.00  0.00    -0.080 HD
ENDROOT
BRANCH   1  10
ATOM     10  C   UNL     1      -2.247  -1.474   2.482  0.00  0.00    -0.039 C 
BRANCH  10  14
ATOM     11  C   UNL     1      -0.192  -4.883   4.043  0.00  0.00    +0.123 A 
ATOM     12  C   UNL     1      -1.291  -5.052   3.213  0.00  0.00    +0.046 A 
ATOM     13  C   UNL     1      -1.953  -3.949   2.710  0.00  0.00    +0.008 A 
ATOM     14  C   UNL     1      -1.522  -2.676   3.032  0.00  0.00    -0.028 A 
ATOM     15  C   UNL     1      -0.422  -2.503   3.856  0.00  0.00    +0.128 A 
ATOM     16  C   UNL     1       0.240  -3.605   4.366  0.00  0.00    +0.084 A 
ATOM     17  F   UNL     1       0.001  -1.258   4.165  0.00  0.00    -0.205 F 
BRANCH  11  19
ATOM     18  C   UNL     1       1.583  -5.718   5.386  0.00  0.00    +0.277 C 
ATOM     19  O   UNL     1       0.460  -5.967   4.539  0.00  0.00    -0.495 OA
ENDBRANCH  11  19
ENDBRANCH  10  14
ENDBRANCH   1  10
BRANCH   7  20
ATOM     20  C   UNL     1      -2.347   1.415   3.008  0.00  0.00    +0.089 C 
BRANCH  20  21
ATOM     21  C   UNL     1      -1.597   1.465   4.314  0.00  0.00    +0.212 C 
ATOM     22  O   UNL     1      -2.005   0.844   5.272  0.00  0.00    -0.276 OA
ATOM     23  N   UNL     1      -0.472   2.201   4.418  0.00  0.00    -0.312 N 
ATOM     24  H   UNL     1      -0.102   2.765   3.549  0.00  0.00    +0.149 HD
BRANCH  23  25
ATOM     25  C   UNL     1       0.257   2.251   5.687  0.00  0.00    +0.082 C 
ATOM     26  C   UNL     1       1.302   1.118   5.769  0.00  0.00    +0.058 C 
ATOM     27  C   UNL     1       2.473   1.713   6.521  0.00  0.00    -0.042 A 
ATOM     28  C   UNL     1       3.538   1.097   7.156  0.00  0.00    +0.004 A 
ATOM     29  C   UNL     1       4.505   1.855   7.787  0.00  0.00    +0.000 A 
ATOM     30  C   UNL     1       4.409   3.235   7.786  0.00  0.00    +0.000 A 
ATOM     31  C   UNL     1       3.347   3.851   7.153  0.00  0.00    +0.004 A 
ATOM     32  C   UNL     1       2.377   3.092   6.520  0.00  0.00    -0.042 A 
ATOM     33  C   UNL     1       1.135   3.518   5.767  0.00  0.00    +0.058 C 
ENDBRANCH  23  25
ENDBRANCH  20  21
ENDBRANCH   7  20
TORSDOF 6
