REMARK  Name = ZINC03333256
REMARK  0 active torsions:
REMARK  status: ('A' for Active; 'I' for Inactive)
REMARK                            x       y       z     vdW  Elec       q    Type
REMARK                         _______ _______ _______ _____ _____    ______ ____
ROOT
ATOM      1  C   UNL     1      -0.022  -2.682  -0.047  0.00  0.00    +0.039 A 
ATOM      2  C   UNL     1      -1.222  -1.989  -0.100  0.00  0.00    +0.116 A 
ATOM      3  N   UNL     1      -1.205  -0.667  -0.091  0.00  0.00    -0.223 NA
ATOM      4  C   UNL     1      -0.059  -0.005  -0.032  0.00  0.00    +0.218 A 
ATOM      5  N   UNL     1       1.105  -0.636   0.015  0.00  0.00    -0.223 NA
ATOM      6  C   UNL     1       1.158  -1.958   0.015  0.00  0.00    +0.116 A 
ATOM      7  N   UNL     1      -0.077   1.379  -0.024  0.00  0.00    -0.297 N 
ATOM      8  C   UNL     1      -0.792   1.903  -1.197  0.00  0.00    +0.127 C 
ATOM      9  C   UNL     1      -0.859   3.429  -1.111  0.00  0.00    +0.125 C 
ATOM     10  N   UNL     1       0.504   3.974  -1.041  0.00  0.00    -0.312 N 
ATOM     11  C   UNL     1       1.218   3.451   0.132  0.00  0.00    +0.125 C 
ATOM     12  C   UNL     1       1.286   1.924   0.045  0.00  0.00    +0.127 C 
ATOM     13  C   UNL     1       0.485   5.357  -1.034  0.00  0.00    +0.133 A 
ATOM     14  C   UNL     1       1.101   6.091  -2.085  0.00  0.00    +0.048 A 
ATOM     15  C   UNL     1       1.804   5.614  -3.263  0.00  0.00    +0.021 A 
ATOM     16  C   UNL     1       2.309   6.505  -4.129  0.00  0.00    +0.048 A 
ATOM     17  S   UNL     1       1.869   8.078  -3.414  0.00  0.00    -0.077 S 
ATOM     18  C   UNL     1       1.019   7.496  -1.970  0.00  0.00    +0.113 A 
ATOM     19  N   UNL     1       0.409   8.069  -0.951  0.00  0.00    -0.228 NA
ATOM     20  C   UNL     1      -0.144   7.333  -0.006  0.00  0.00    +0.224 A 
ATOM     21  N   UNL     1      -0.110   6.013  -0.051  0.00  0.00    -0.220 NA
ENDROOT
TORSDOF 0
