REMARK  Name = ZINC65259943
REMARK  6 active torsions:
REMARK  status: ('A' for Active; 'I' for Inactive)
REMARK    1  A    between atoms: C_1  and  N_2
REMARK    2  A    between atoms: N_2  and  C_3
REMARK    3  A    between atoms: N_2  and  S_4
REMARK    4  A    between atoms: S_4  and  N_7
REMARK    5  A    between atoms: N_22  and  C_23
REMARK    6  A    between atoms: C_23  and  C_24
REMARK                            x       y       z     vdW  Elec       q    Type
REMARK                         _______ _______ _______ _____ _____    ______ ____
ROOT
ATOM      1  N   UNL     1       1.581  -1.045  -1.877  0.00  0.00    -0.164 NA
ATOM      2  C   UNL     1       2.277  -0.044  -2.697  0.00  0.00    +0.111 C 
ATOM      3  C   UNL     1       2.876  -0.739  -3.924  0.00  0.00    +0.020 C 
ATOM      4  C   UNL     1       3.764  -1.898  -3.465  0.00  0.00    +0.036 C 
ATOM      5  C   UNL     1       2.925  -2.911  -2.688  0.00  0.00    +0.100 C 
ATOM      6  C   UNL     1       2.317  -2.244  -1.450  0.00  0.00    +0.143 C 
ATOM      7  C   UNL     1       3.796  -4.074  -2.261  0.00  0.00    +0.098 C 
ATOM      8  N   UNL     1       3.140  -5.179  -1.750  0.00  0.00    -0.301 N 
ATOM      9  C   UNL     1       1.919  -5.544  -2.341  0.00  0.00    +0.053 A 
ATOM     10  C   UNL     1       1.347  -6.771  -2.044  0.00  0.00    +0.025 A 
ATOM     11  C   UNL     1       0.142  -7.129  -2.621  0.00  0.00    +0.002 A 
ATOM     12  C   UNL     1      -0.495  -6.265  -3.493  0.00  0.00    +0.002 A 
ATOM     13  C   UNL     1       0.070  -5.040  -3.796  0.00  0.00    +0.025 A 
ATOM     14  C   UNL     1       1.280  -4.676  -3.225  0.00  0.00    +0.049 A 
ATOM     15  N   UNL     1       1.859  -3.440  -3.549  0.00  0.00    -0.329 N 
ATOM     16  N   UNL     1       5.084  -4.036  -2.369  0.00  0.00    -0.371 N 
ATOM     17  H   UNL     1       1.562  -2.944  -4.327  0.00  0.00    +0.147 HD
ATOM     18  H   UNL     1       5.518  -3.248  -2.732  0.00  0.00    +0.161 HD
ATOM     19  H   UNL     1       3.510  -5.685  -1.009  0.00  0.00    +0.153 HD
ENDROOT
BRANCH   1  20
ATOM     20  S   UNL     1      -0.000  -0.824  -1.437  0.00  0.00    +0.099 S 
ATOM     21  O   UNL     1      -0.531  -2.115  -1.167  0.00  0.00    -0.141 OA
ATOM     22  O   UNL     1      -0.572   0.049  -2.401  0.00  0.00    -0.141 OA
BRANCH  20  24
ATOM     23  C   UNL     1      -0.018   1.461   0.010  0.00  0.00    +0.132 C 
ATOM     24  N   UNL     1       0.002  -0.004   0.002  0.00  0.00    -0.172 NA
ATOM     25  C   UNL     1       0.024  -0.743   1.267  0.00  0.00    +0.132 C 
ENDBRANCH  20  24
ENDBRANCH   1  20
BRANCH  16  26
ATOM     26  C   UNL     1       5.889  -5.184  -1.944  0.00  0.00    +0.149 C 
BRANCH  26  27
ATOM     27  C   UNL     1       7.349  -4.887  -2.173  0.00  0.00    -0.028 A 
ATOM     28  C   UNL     1       7.938  -5.209  -3.382  0.00  0.00    +0.005 A 
ATOM     29  C   UNL     1       9.277  -4.936  -3.592  0.00  0.00    +0.000 A 
ATOM     30  C   UNL     1      10.026  -4.342  -2.594  0.00  0.00    +0.000 A 
ATOM     31  C   UNL     1       9.437  -4.019  -1.386  0.00  0.00    +0.000 A 
ATOM     32  C   UNL     1       8.097  -4.287  -1.177  0.00  0.00    +0.005 A 
ENDBRANCH  26  27
ENDBRANCH  16  26
TORSDOF 4
