REMARK  Name = ZINC30554498
REMARK  5 active torsions:
REMARK  status: ('A' for Active; 'I' for Inactive)
REMARK    1  A    between atoms: C_1  and  C_2
REMARK    2  A    between atoms: C_2  and  O_3
REMARK    3  A    between atoms: O_3  and  C_4
REMARK    4  A    between atoms: C_10  and  C_13
REMARK    5  A    between atoms: C_18  and  C_21
REMARK                            x       y       z     vdW  Elec       q    Type
REMARK                         _______ _______ _______ _____ _____    ______ ____
ROOT
ATOM      1  C   UNL     1      -4.145  -5.678   1.128  0.00  0.00    +0.220 C 
ATOM      2  O   UNL     1      -5.160  -6.060   0.585  0.00  0.00    -0.275 OA
ATOM      3  N   UNL     1      -3.293  -6.570   1.670  0.00  0.00    -0.301 N 
ATOM      4  C   UNL     1      -2.116  -6.119   2.424  0.00  0.00    +0.108 C 
ATOM      5  C   UNL     1      -0.868  -6.785   1.835  0.00  0.00    +0.032 C 
ATOM      6  C   UNL     1      -1.062  -8.303   1.822  0.00  0.00    +0.078 C 
ATOM      7  C   UNL     1      -2.261  -8.658   0.940  0.00  0.00    +0.032 C 
ATOM      8  C   UNL     1      -3.528  -8.013   1.524  0.00  0.00    +0.108 C 
ENDROOT
BRANCH   1  15
ATOM      9  C   UNL     1      -1.493  -1.828   0.042  0.00  0.00    +0.403 C 
ATOM     10  O   UNL     1      -0.518  -2.553   0.038  0.00  0.00    -0.226 OA
ATOM     11  N   UNL     1      -2.731  -2.362   0.037  0.00  0.00    -0.267 N 
ATOM     12  C   UNL     1      -3.919  -1.499   0.037  0.00  0.00    +0.111 C 
ATOM     13  C   UNL     1      -4.827  -1.909   1.201  0.00  0.00    +0.020 C 
ATOM     14  C   UNL     1      -5.137  -3.404   1.098  0.00  0.00    +0.016 C 
ATOM     15  C   UNL     1      -3.836  -4.204   1.196  0.00  0.00    +0.093 C 
ATOM     16  C   UNL     1      -2.916  -3.820   0.026  0.00  0.00    +0.123 C 
BRANCH   9  17
ATOM     17  O   UNL     1      -1.338  -0.490   0.053  0.00  0.00    -0.451 OA
BRANCH  17  19
ATOM     18  C   UNL     1      -0.022   1.537   0.069  0.00  0.00    +0.048 C 
ATOM     19  C   UNL     1       0.002   0.007   0.058  0.00  0.00    +0.230 C 
ENDBRANCH  17  19
ENDBRANCH   9  17
ENDBRANCH   1  15
BRANCH   6  20
ATOM     20  C   UNL     1       0.177  -8.963   1.274  0.00  0.00    +0.214 C 
ATOM     21  O   UNL     1       1.122  -8.286   0.929  0.00  0.00    -0.276 OA
ATOM     22  N   UNL     1       0.235 -10.305   1.169  0.00  0.00    -0.329 N 
ATOM     23  H   UNL     1      -0.521 -10.846   1.445  0.00  0.00    +0.145 HD
ATOM     24  H   UNL     1       1.032 -10.730   0.816  0.00  0.00    +0.145 HD
ENDBRANCH   6  20
TORSDOF 4
