REMARK  Name = ZINC04300208
REMARK  6 active torsions:
REMARK  status: ('A' for Active; 'I' for Inactive)
REMARK    1  A    between atoms: C_6  and  S_7
REMARK    2  A    between atoms: S_7  and  O_10
REMARK    3  A    between atoms: O_10  and  N_11
REMARK    4  A    between atoms: C_12  and  C_13
REMARK    5  A    between atoms: C_13  and  C_14
REMARK    6  A    between atoms: N_16  and  C_17
REMARK                            x       y       z     vdW  Elec       q    Type
REMARK                         _______ _______ _______ _____ _____    ______ ____
ROOT
ATOM      1  N   UNL     1      -1.165  -2.136  -2.094  0.00  0.00    -0.041 NA
ATOM      2  C   UNL     1      -1.412  -2.422  -3.329  0.00  0.00    +0.143 C 
ATOM      3  N   UNL     1      -2.419  -1.765  -4.000  0.00  0.00    -0.344 N 
ATOM      4  H   UNL     1      -2.943  -1.087  -3.545  0.00  0.00    +0.144 HD
ATOM      5  H   UNL     1      -2.605  -1.980  -4.927  0.00  0.00    +0.144 HD
ENDROOT
BRANCH   1   6
ATOM      6  O   UNL     1      -1.929  -1.147  -1.429  0.00  0.00    -0.224 OA
BRANCH   6   7
ATOM      7  S   UNL     1      -1.523  -0.920   0.020  0.00  0.00    +0.170 S 
ATOM      8  O   UNL     1      -1.218  -2.197   0.561  0.00  0.00    -0.130 OA
ATOM      9  O   UNL     1      -2.506  -0.066   0.589  0.00  0.00    -0.130 OA
BRANCH   7  15
ATOM     10  C   UNL     1      -0.043   1.374   0.007  0.00  0.00    +0.032 A 
ATOM     11  C   UNL     1       1.139   2.090  -0.007  0.00  0.00    +0.022 A 
ATOM     12  C   UNL     1       2.351   1.423  -0.027  0.00  0.00    +0.041 A 
ATOM     13  C   UNL     1       2.378   0.039  -0.033  0.00  0.00    +0.022 A 
ATOM     14  C   UNL     1       1.195  -0.675  -0.019  0.00  0.00    +0.032 A 
ATOM     15  C   UNL     1      -0.015  -0.008   0.001  0.00  0.00    +0.130 A 
ATOM     16 CL   UNL     1       3.837   2.321  -0.045  0.00  0.00    -0.084 Cl
ENDBRANCH   7  15
ENDBRANCH   6   7
ENDBRANCH   1   6
BRANCH   2  17
ATOM     17  C   UNL     1      -0.598  -3.475  -4.036  0.00  0.00    +0.170 C 
BRANCH  17  18
ATOM     18  C   UNL     1       0.430  -4.036  -3.088  0.00  0.00    +0.224 C 
ATOM     19  O   UNL     1       0.496  -3.621  -1.950  0.00  0.00    -0.275 OA
ATOM     20  N   UNL     1       1.277  -4.998  -3.504  0.00  0.00    -0.283 N 
ATOM     21  H   UNL     1       1.183  -5.375  -4.393  0.00  0.00    +0.155 HD
BRANCH  20  22
ATOM     22  C   UNL     1       2.293  -5.454  -2.653  0.00  0.00    +0.069 A 
ATOM     23  C   UNL     1       2.073  -5.528  -1.285  0.00  0.00    +0.029 A 
ATOM     24  C   UNL     1       3.075  -5.977  -0.448  0.00  0.00    +0.040 A 
ATOM     25  C   UNL     1       4.301  -6.354  -0.971  0.00  0.00    +0.126 A 
ATOM     26  C   UNL     1       4.525  -6.281  -2.336  0.00  0.00    +0.078 A 
ATOM     27  C   UNL     1       3.522  -5.838  -3.179  0.00  0.00    +0.147 A 
ATOM     28  F   UNL     1       3.738  -5.772  -4.511  0.00  0.00    -0.203 F 
ATOM     29  F   UNL     1       5.279  -6.793  -0.150  0.00  0.00    -0.205 F 
ENDBRANCH  20  22
ENDBRANCH  17  18
ENDBRANCH   2  17
TORSDOF 6
