REMARK  Name = ZINC15109334
REMARK  11 active torsions:
REMARK  status: ('A' for Active; 'I' for Inactive)
REMARK    1  A    between atoms: C_1  and  C_2
REMARK    2  A    between atoms: C_5  and  C_29
REMARK    3  A    between atoms: C_6  and  N_8
REMARK    4  A    between atoms: C_9  and  C_11
REMARK    5  A    between atoms: C_11  and  C_13
REMARK    6  A    between atoms: C_11  and  S_14
REMARK    7  A    between atoms: S_14  and  C_15
REMARK    8  A    between atoms: N_19  and  C_20
REMARK    9  A    between atoms: C_23  and  C_26
REMARK   10  A    between atoms: C_26  and  C_27
REMARK   11  A    between atoms: C_26  and  C_28
REMARK                            x       y       z     vdW  Elec       q    Type
REMARK                         _______ _______ _______ _____ _____    ______ ____
ROOT
ATOM      1  S   UNL     1       0.839  -0.958  -6.164  0.00  0.00    -0.072 S 
ENDROOT
BRANCH   1   2
ATOM      2  C   UNL     1       0.965   0.198  -7.488  0.00  0.00    +0.215 A 
ATOM      3  N   UNL     1       0.617   1.466  -7.454  0.00  0.00    -0.101 NA
ATOM      4  N   UNL     1       0.842   2.024  -8.588  0.00  0.00    -0.022 NA
ATOM      5  N   UNL     1       1.333   1.171  -9.420  0.00  0.00    -0.038 NA
ATOM      6  N   UNL     1       1.433  -0.054  -8.736  0.00  0.00    -0.187 N 
BRANCH   6   7
ATOM      7  C   UNL     1       1.912  -1.273  -9.237  0.00  0.00    +0.070 A 
ATOM      8  C   UNL     1       2.621  -2.134  -8.411  0.00  0.00    +0.028 A 
ATOM      9  C   UNL     1       3.088  -3.336  -8.906  0.00  0.00    +0.006 A 
ATOM     10  C   UNL     1       2.858  -3.677 -10.226  0.00  0.00    -0.045 A 
ATOM     11  C   UNL     1       2.156  -2.819 -11.053  0.00  0.00    +0.006 A 
ATOM     12  C   UNL     1       1.683  -1.618 -10.562  0.00  0.00    +0.028 A 
BRANCH  10  13
ATOM     13  C   UNL     1       3.373  -4.987 -10.764  0.00  0.00    +0.013 C 
ATOM     14  C   UNL     1       4.897  -5.029 -10.630  0.00  0.00    +0.012 C 
ATOM     15  C   UNL     1       2.759  -6.142  -9.971  0.00  0.00    +0.012 C 
ENDBRANCH  10  13
ENDBRANCH   6   7
ENDBRANCH   1   2
BRANCH   1  16
ATOM     16  C   UNL     1       0.146   0.110  -4.878  0.00  0.00    +0.137 C 
ATOM     17  C   UNL     1      -1.254   0.566  -5.294  0.00  0.00    +0.029 C 
BRANCH  16  19
ATOM     18  N   UNL     1      -0.033   0.011  -2.413  0.00  0.00    -0.284 N 
ATOM     19  C   UNL     1       0.061  -0.653  -3.582  0.00  0.00    +0.230 C 
ATOM     20  O   UNL     1       0.078  -1.866  -3.590  0.00  0.00    -0.274 OA
ATOM     21  H   UNL     1      -0.127   0.977  -2.410  0.00  0.00    +0.155 HD
BRANCH  18  27
ATOM     22  C   UNL     1       1.335  -3.970   0.128  0.00  0.00    +0.044 C 
ATOM     23  C   UNL     1       0.661  -2.624   0.056  0.00  0.00    -0.049 A 
ATOM     24  C   UNL     1       0.074  -2.084   1.187  0.00  0.00    +0.004 A 
ATOM     25  C   UNL     1      -0.545  -0.849   1.125  0.00  0.00    +0.005 A 
ATOM     26  C   UNL     1      -0.579  -0.151  -0.066  0.00  0.00    -0.029 A 
ATOM     27  C   UNL     1       0.005  -0.692  -1.203  0.00  0.00    +0.037 A 
ATOM     28  C   UNL     1       0.631  -1.930  -1.137  0.00  0.00    +0.027 A 
ATOM     29  C   UNL     1      -1.255   1.195  -0.132  0.00  0.00    +0.045 C 
ENDBRANCH  18  27
ENDBRANCH  16  19
ENDBRANCH   1  16
TORSDOF 6
