REMARK  Name = ZINC04978369
REMARK  6 active torsions:
REMARK  status: ('A' for Active; 'I' for Inactive)
REMARK    1  A    between atoms: C_1  and  C_2
REMARK    2  A    between atoms: C_3  and  N_9
REMARK    3  A    between atoms: C_19  and  S_20
REMARK    4  A    between atoms: S_20  and  C_21
REMARK    5  A    between atoms: C_21  and  C_23
REMARK    6  A    between atoms: C_21  and  C_24
REMARK                            x       y       z     vdW  Elec       q    Type
REMARK                         _______ _______ _______ _____ _____    ______ ____
ROOT
ATOM      1  N   UNL     1       2.438   4.675   0.193  0.00  0.00    -0.255 N 
ATOM      2  C   UNL     1       2.248   6.009   0.317  0.00  0.00    +0.267 A 
ATOM      3  O   UNL     1       3.188   6.781   0.348  0.00  0.00    -0.267 OA
ATOM      4  C   UNL     1       0.864   6.492   0.415  0.00  0.00    +0.065 A 
ATOM      5  C   UNL     1       0.564   7.847   0.545  0.00  0.00    +0.015 A 
ATOM      6  C   UNL     1      -0.743   8.243   0.631  0.00  0.00    +0.001 A 
ATOM      7  C   UNL     1      -1.771   7.310   0.590  0.00  0.00    +0.002 A 
ATOM      8  C   UNL     1      -1.506   5.976   0.463  0.00  0.00    +0.028 A 
ATOM      9  C   UNL     1      -0.180   5.540   0.373  0.00  0.00    +0.079 A 
ATOM     10  N   UNL     1       0.128   4.228   0.241  0.00  0.00    -0.223 NA
ATOM     11  C   UNL     1       1.370   3.821   0.161  0.00  0.00    +0.178 A 
ENDROOT
BRANCH   1  14
ATOM     12  C   UNL     1       3.792   3.978   2.597  0.00  0.00    +0.047 C 
ATOM     13  C   UNL     1       4.435   3.812   1.244  0.00  0.00    -0.008 A 
ATOM     14  C   UNL     1       3.739   4.165   0.096  0.00  0.00    +0.056 A 
ATOM     15  C   UNL     1       4.337   4.017  -1.148  0.00  0.00    +0.027 A 
ATOM     16  C   UNL     1       5.620   3.514  -1.241  0.00  0.00    +0.003 A 
ATOM     17  C   UNL     1       6.310   3.157  -0.097  0.00  0.00    +0.020 A 
ATOM     18  C   UNL     1       5.716   3.303   1.145  0.00  0.00    +0.046 A 
ATOM     19 CL   UNL     1       6.585   2.853   2.579  0.00  0.00    -0.083 Cl
ENDBRANCH   1  14
BRANCH  11  20
ATOM     20  S   UNL     1       1.680   2.094  -0.003  0.00  0.00    -0.069 S 
BRANCH  20  21
ATOM     21  C   UNL     1      -0.018   1.468   0.010  0.00  0.00    +0.153 C 
ATOM     22  C   UNL     1      -0.758   1.975  -1.229  0.00  0.00    +0.035 C 
BRANCH  21  23
ATOM     23  C   UNL     1       0.002  -0.004   0.002  0.00  0.00    +0.077 C 
ATOM     24  N   UNL     1       0.018  -1.140  -0.004  0.00  0.00    -0.195 NA
ENDBRANCH  21  23
ENDBRANCH  20  21
ENDBRANCH  11  20
TORSDOF 4
