REMARK  Name = ZINC65398132
REMARK  5 active torsions:
REMARK  status: ('A' for Active; 'I' for Inactive)
REMARK    1  A    between atoms: C_1  and  C_2
REMARK    2  A    between atoms: C_2  and  C_25
REMARK    3  A    between atoms: C_6  and  C_14
REMARK    4  A    between atoms: N_19  and  S_21
REMARK    5  A    between atoms: S_21  and  C_24
REMARK                            x       y       z     vdW  Elec       q    Type
REMARK                         _______ _______ _______ _____ _____    ______ ____
ROOT
ATOM      1  C   UNL     1      -0.019   1.526   0.010  0.00  0.00    +0.013 C 
ATOM      2  C   UNL     1       0.002  -0.004   0.002  0.00  0.00    -0.014 C 
ATOM      3  C   UNL     1      -1.415  -0.504  -0.091  0.00  0.00    +0.063 C 
ATOM      4  C   UNL     1      -1.504  -1.952  -0.453  0.00  0.00    +0.049 A 
ATOM      5  N   UNL     1      -2.503  -2.508  -1.187  0.00  0.00    -0.345 N 
ATOM      6  C   UNL     1      -2.253  -3.837  -1.289  0.00  0.00    +0.113 A 
ATOM      7  N   UNL     1      -1.148  -4.105  -0.662  0.00  0.00    -0.227 NA
ATOM      8  C   UNL     1      -0.640  -2.952  -0.132  0.00  0.00    +0.146 A 
ATOM      9  H   UNL     1      -3.261  -2.038  -1.569  0.00  0.00    +0.167 HD
ATOM     10  C   UNL     1       0.614  -2.886   0.615  0.00  0.00    +0.264 C 
ATOM     11  O   UNL     1       1.195  -3.945   0.759  0.00  0.00    -0.268 OA
ATOM     12  N   UNL     1       1.198  -1.841   1.152  0.00  0.00    -0.310 N 
ATOM     13  C   UNL     1       0.733  -0.482   1.227  0.00  0.00    +0.111 C 
ATOM     14  C   UNL     1       0.766  -0.475  -1.238  0.00  0.00    +0.013 C 
ATOM     15  H   UNL     1       2.065  -2.008   1.555  0.00  0.00    +0.149 HD
ENDROOT
BRANCH   6  16
ATOM     16  C   UNL     1      -3.116  -4.838  -2.011  0.00  0.00    +0.071 C 
ATOM     17  C   UNL     1      -4.588  -4.449  -1.857  0.00  0.00    +0.014 C 
ATOM     18  C   UNL     1      -5.468  -5.484  -2.563  0.00  0.00    +0.018 C 
ATOM     19  C   UNL     1      -5.127  -5.504  -4.056  0.00  0.00    +0.109 C 
ATOM     20  N   UNL     1      -3.684  -5.735  -4.209  0.00  0.00    -0.181 NA
ATOM     21  C   UNL     1      -2.748  -4.852  -3.498  0.00  0.00    +0.120 C 
BRANCH  20  22
ATOM     22  S   UNL     1      -3.123  -6.966  -5.163  0.00  0.00    +0.029 S 
ATOM     23  O   UNL     1      -1.847  -7.289  -4.625  0.00  0.00    -0.158 OA
ATOM     24  O   UNL     1      -4.170  -7.926  -5.170  0.00  0.00    -0.158 OA
ATOM     25  C   UNL     1      -2.938  -6.231  -6.811  0.00  0.00    +0.215 C 
ENDBRANCH  20  22
ENDBRANCH   6  16
TORSDOF 2
