REMARK  Name = ZINC35686232
REMARK  3 active torsions:
REMARK  status: ('A' for Active; 'I' for Inactive)
REMARK    1  A    between atoms: N_9  and  C_10
REMARK    2  A    between atoms: C_10  and  C_11
REMARK    3  A    between atoms: C_17  and  C_19
REMARK                            x       y       z     vdW  Elec       q    Type
REMARK                         _______ _______ _______ _____ _____    ______ ____
ROOT
ATOM      1  C   UNL     1       2.387  -3.401   1.375  0.00  0.00    +0.236 C 
ATOM      2  O   UNL     1       1.918  -2.775   2.301  0.00  0.00    -0.274 OA
ATOM      3  N   UNL     1       3.308  -4.359   1.606  0.00  0.00    -0.288 N 
ATOM      4  C   UNL     1       3.962  -5.188   0.577  0.00  0.00    +0.109 C 
ATOM      5  C   UNL     1       5.297  -5.637   1.221  0.00  0.00    +0.021 C 
ATOM      6  C   UNL     1       4.873  -5.858   2.697  0.00  0.00    +0.033 C 
ATOM      7  C   UNL     1       3.830  -4.745   2.925  0.00  0.00    +0.162 C 
ENDROOT
BRANCH   7   8
ATOM      8  C   UNL     1       2.709  -5.265   3.788  0.00  0.00    +0.231 C 
ATOM      9  O   UNL     1       1.579  -5.312   3.350  0.00  0.00    -0.274 OA
ATOM     10  N   UNL     1       2.963  -5.678   5.045  0.00  0.00    -0.328 N 
ATOM     11  H   UNL     1       3.867  -5.640   5.395  0.00  0.00    +0.145 HD
ATOM     12  H   UNL     1       2.242  -6.013   5.601  0.00  0.00    +0.145 HD
ENDBRANCH   7   8
BRANCH   1  13
ATOM     13  C   UNL     1       1.941  -3.109  -0.035  0.00  0.00    +0.217 C 
BRANCH  13  22
ATOM     14  C   UNL     1      -0.017   1.392   0.010  0.00  0.00    +0.011 A 
ATOM     15  C   UNL     1       1.160   2.087   0.002  0.00  0.00    +0.021 A 
ATOM     16  C   UNL     1       2.375   1.415  -0.013  0.00  0.00    +0.043 A 
ATOM     17  C   UNL     1       2.417   0.036  -0.021  0.00  0.00    +0.046 A 
ATOM     18  C   UNL     1       1.230  -0.690  -0.014  0.00  0.00    +0.051 A 
ATOM     19  C   UNL     1       0.002  -0.004   0.002  0.00  0.00    -0.000 A 
ATOM     20  C   UNL     1      -1.038  -1.036   0.006  0.00  0.00    +0.027 A 
ATOM     21  C   UNL     1      -0.412  -2.224  -0.007  0.00  0.00    +0.087 A 
ATOM     22  N   UNL     1       0.944  -2.037  -0.019  0.00  0.00    -0.338 N 
ATOM     23 CL   UNL     1       3.857   2.319  -0.022  0.00  0.00    -0.083 Cl
ENDBRANCH  13  22
ENDBRANCH   1  13
TORSDOF 3
