REMARK  Name = ZINC57351876
REMARK  3 active torsions:
REMARK  status: ('A' for Active; 'I' for Inactive)
REMARK    1  A    between atoms: C_1  and  C_2
REMARK    2  A    between atoms: C_5  and  N_9
REMARK    3  A    between atoms: C_6  and  C_8
REMARK                            x       y       z     vdW  Elec       q    Type
REMARK                         _______ _______ _______ _____ _____    ______ ____
ROOT
ATOM      1  N   UNL     1       0.058  -4.172  -0.021  0.00  0.00    -0.228 N 
ATOM      2  C   UNL     1      -1.105  -4.861  -0.025  0.00  0.00    +0.275 A 
ATOM      3  O   UNL     1      -2.172  -4.274  -0.021  0.00  0.00    -0.266 OA
ATOM      4  C   UNL     1      -1.064  -6.259  -0.032  0.00  0.00    +0.101 A 
ATOM      5  C   UNL     1       0.150  -6.951  -0.036  0.00  0.00    +0.063 A 
ATOM      6  C   UNL     1       0.005  -8.335  -0.044  0.00  0.00    +0.034 A 
ATOM      7  C   UNL     1      -1.232  -8.879  -0.046  0.00  0.00    +0.048 A 
ATOM      8  S   UNL     1      -2.270  -7.556  -0.039  0.00  0.00    -0.090 S 
ATOM      9  N   UNL     1       1.312  -6.166  -0.032  0.00  0.00    -0.306 N 
ATOM     10  H   UNL     1       2.182  -6.595  -0.035  0.00  0.00    +0.170 HD
ATOM     11  C   UNL     1       1.232  -4.826  -0.030  0.00  0.00    +0.334 A 
ATOM     12  O   UNL     1       2.261  -4.179  -0.032  0.00  0.00    -0.246 OA
ENDROOT
BRANCH   1  17
ATOM     13  C   UNL     1      -0.018   1.503   0.010  0.00  0.00    +0.044 C 
ATOM     14  C   UNL     1       0.002  -0.004   0.002  0.00  0.00    -0.050 A 
ATOM     15  C   UNL     1       0.006  -0.688  -1.200  0.00  0.00    +0.005 A 
ATOM     16  C   UNL     1       0.024  -2.068  -1.211  0.00  0.00    +0.027 A 
ATOM     17  C   UNL     1       0.040  -2.771  -0.013  0.00  0.00    +0.057 A 
ATOM     18  C   UNL     1       0.036  -2.082   1.192  0.00  0.00    -0.026 A 
ATOM     19  C   UNL     1       0.023  -0.700   1.196  0.00  0.00    +0.008 A 
ATOM     20  C   UNL     1       0.052  -2.840   2.494  0.00  0.00    +0.046 C 
ENDBRANCH   1  17
TORSDOF 1
