REMARK  Name = ZINC02534245
REMARK  6 active torsions:
REMARK  status: ('A' for Active; 'I' for Inactive)
REMARK    1  A    between atoms: C_1  and  C_2
REMARK    2  A    between atoms: C_2  and  C_3
REMARK    3  A    between atoms: C_2  and  C_4
REMARK    4  A    between atoms: C_7  and  C_10
REMARK    5  A    between atoms: C_13  and  C_23
REMARK    6  A    between atoms: C_17  and  C_20
REMARK                            x       y       z     vdW  Elec       q    Type
REMARK                         _______ _______ _______ _____ _____    ______ ____
ROOT
ATOM      1  C   UNL     1      -0.735   1.583   1.265  0.00  0.00    +0.104 C 
ATOM      2  C   UNL     1      -0.013   1.086   0.008  0.00  0.00    +0.063 C 
ATOM      3  C   UNL     1      -0.761   1.597  -1.232  0.00  0.00    +0.215 C 
ATOM      4  N   UNL     1      -2.193   1.350  -1.024  0.00  0.00    -0.238 N 
ATOM      5  C   UNL     1      -2.745   1.051   0.172  0.00  0.00    +0.132 A 
ATOM      6  C   UNL     1      -4.110   0.889  -0.034  0.00  0.00    +0.122 A 
ATOM      7  C   UNL     1      -4.345   1.107  -1.415  0.00  0.00    +0.151 A 
ATOM      8  N   UNL     1      -3.204   1.378  -1.985  0.00  0.00    -0.177 NA
ATOM      9  N   UNL     1      -2.055   0.934   1.359  0.00  0.00    -0.322 N 
ATOM     10  H   UNL     1      -2.589   1.313   2.127  0.00  0.00    +0.148 HD
ENDROOT
BRANCH   1  14
ATOM     11  C   UNL     1       1.589   0.621   4.717  0.00  0.00    -0.045 A 
ATOM     12  C   UNL     1       1.628   1.899   4.192  0.00  0.00    +0.004 A 
ATOM     13  C   UNL     1       0.876   2.210   3.075  0.00  0.00    +0.006 A 
ATOM     14  C   UNL     1       0.085   1.243   2.482  0.00  0.00    -0.027 A 
ATOM     15  C   UNL     1       0.042  -0.033   3.011  0.00  0.00    +0.006 A 
ATOM     16  C   UNL     1       0.798  -0.346   4.125  0.00  0.00    +0.004 A 
BRANCH  11  18
ATOM     17  C   UNL     1       1.483  -0.179   7.062  0.00  0.00    +0.012 C 
ATOM     18  C   UNL     1       2.410   0.281   5.935  0.00  0.00    +0.013 C 
ATOM     19  C   UNL     1       3.392  -0.840   5.592  0.00  0.00    +0.012 C 
ENDBRANCH  11  18
ENDBRANCH   1  14
BRANCH   3  20
ATOM     20  C   UNL     1      -0.279   0.845  -2.474  0.00  0.00    +0.412 C 
ATOM     21  F   UNL     1      -0.527  -0.523  -2.316  0.00  0.00    -0.168 F 
ATOM     22  F   UNL     1      -0.965   1.316  -3.599  0.00  0.00    -0.168 F 
ATOM     23  F   UNL     1       1.093   1.054  -2.643  0.00  0.00    -0.168 F 
ENDBRANCH   3  20
BRANCH   6  24
ATOM     24  C   UNL     1      -5.113   0.557   0.981  0.00  0.00    +0.391 C 
ATOM     25  O   UNL     1      -4.777   0.395   2.139  0.00  0.00    -0.240 OA
ATOM     26  O   UNL     1      -6.410   0.431   0.632  0.00  0.00    -0.240 OA
ENDBRANCH   6  24
TORSDOF 4
