REMARK  Name = ZINC17023914
REMARK  1 active torsions:
REMARK  status: ('A' for Active; 'I' for Inactive)
REMARK    1  A    between atoms: C_3  and  N_9
REMARK                            x       y       z     vdW  Elec       q    Type
REMARK                         _______ _______ _______ _____ _____    ______ ____
ROOT
ATOM      1  N   UNL     1       3.586   2.129  -0.021  0.00  0.00    -0.208 N 
ATOM      2  C   UNL     1       4.212   2.521  -1.161  0.00  0.00    +0.230 C 
ATOM      3  O   UNL     1       3.753   2.510  -2.284  0.00  0.00    -0.274 OA
ATOM      4  C   UNL     1       5.582   2.971  -0.754  0.00  0.00    +0.092 C 
ATOM      5  C   UNL     1       6.212   4.123  -1.508  0.00  0.00    +0.040 C 
ATOM      6  C   UNL     1       7.397   4.589  -0.688  0.00  0.00    -0.030 C 
ATOM      7  C   UNL     1       7.571   4.316   0.570  0.00  0.00    -0.030 C 
ATOM      8  C   UNL     1       6.603   3.511   1.412  0.00  0.00    +0.040 C 
ATOM      9  C   UNL     1       5.282   3.490   0.687  0.00  0.00    +0.092 C 
ATOM     10  C   UNL     1       4.237   2.505   1.110  0.00  0.00    +0.230 C 
ATOM     11  O   UNL     1       4.017   2.119   2.238  0.00  0.00    -0.274 OA
ENDROOT
BRANCH   1  14
ATOM     12  C   UNL     1      -0.017   1.378   0.010  0.00  0.00    +0.003 A 
ATOM     13  C   UNL     1       1.169   2.087   0.002  0.00  0.00    +0.025 A 
ATOM     14  C   UNL     1       2.381   1.411  -0.013  0.00  0.00    +0.064 A 
ATOM     15  C   UNL     1       2.399   0.022  -0.021  0.00  0.00    +0.081 A 
ATOM     16  C   UNL     1       1.208  -0.682  -0.013  0.00  0.00    +0.061 A 
ATOM     17  C   UNL     1       0.002  -0.004   0.002  0.00  0.00    +0.021 A 
ATOM     18 CL   UNL     1       1.228  -2.418  -0.023  0.00  0.00    -0.082 Cl
ATOM     19 CL   UNL     1       3.912  -0.828  -0.040  0.00  0.00    -0.080 Cl
ENDBRANCH   1  14
TORSDOF 1
