REMARK  Name = ZINC17078395
REMARK  5 active torsions:
REMARK  status: ('A' for Active; 'I' for Inactive)
REMARK    1  A    between atoms: C_1  and  C_2
REMARK    2  A    between atoms: C_2  and  N_3
REMARK    3  A    between atoms: C_4  and  C_9
REMARK    4  A    between atoms: C_15  and  C_22
REMARK    5  A    between atoms: C_17  and  C_21
REMARK                            x       y       z     vdW  Elec       q    Type
REMARK                         _______ _______ _______ _____ _____    ______ ____
ROOT
ATOM      1  C   UNL     1       3.237   2.460  -0.015  0.00  0.00    +0.202 A 
ATOM      2  N   UNL     1       2.425   3.520  -0.003  0.00  0.00    -0.204 NA
ATOM      3  C   UNL     1       1.165   3.117   0.007  0.00  0.00    +0.174 A 
ATOM      4  C   UNL     1      -0.078   3.767   0.022  0.00  0.00    +0.084 A 
ATOM      5  C   UNL     1      -1.267   3.041   0.030  0.00  0.00    +0.093 A 
ATOM      6  C   UNL     1      -2.508   3.838   0.045  0.00  0.00    +0.037 A 
ATOM      7  C   UNL     1      -3.840   3.361   0.055  0.00  0.00    -0.037 A 
ATOM      8  C   UNL     1      -4.873   4.271   0.069  0.00  0.00    +0.027 A 
ATOM      9  C   UNL     1      -4.608   5.631   0.073  0.00  0.00    +0.040 A 
ATOM     10  N   UNL     1      -3.363   6.068   0.064  0.00  0.00    -0.245 NA
ATOM     11  C   UNL     1      -2.344   5.235   0.051  0.00  0.00    +0.111 A 
ATOM     12  S   UNL     1      -0.583   5.465   0.036  0.00  0.00    -0.063 S 
ATOM     13  C   UNL     1      -5.748   6.616   0.088  0.00  0.00    +0.065 C 
ATOM     14  C   UNL     1      -4.123   1.881   0.049  0.00  0.00    +0.044 C 
ATOM     15  N   UNL     1      -1.158   1.683   0.017  0.00  0.00    -0.234 NA
ATOM     16  C   UNL     1      -0.013   1.076   0.008  0.00  0.00    +0.225 A 
ATOM     17  N   UNL     1       1.170   1.744   0.000  0.00  0.00    -0.200 N 
ATOM     18  N   UNL     1       2.514   1.355  -0.014  0.00  0.00    -0.142 NA
ENDROOT
BRANCH   1  20
ATOM     19  N   UNL     1       5.564   1.448  -0.042  0.00  0.00    -0.259 N 
ATOM     20  C   UNL     1       4.715   2.516  -0.029  0.00  0.00    +0.126 A 
ATOM     21  C   UNL     1       5.484   3.646  -0.037  0.00  0.00    +0.089 A 
ATOM     22  C   UNL     1       6.823   3.252  -0.045  0.00  0.00    +0.155 A 
ATOM     23  N   UNL     1       6.874   1.944  -0.052  0.00  0.00    -0.178 NA
ATOM     24 CL   UNL     1       4.898   5.280  -0.033  0.00  0.00    -0.080 Cl
BRANCH  19  26
ATOM     25  C   UNL     1       5.027  -0.450  -1.488  0.00  0.00    +0.029 C 
ATOM     26  C   UNL     1       5.176   0.035  -0.044  0.00  0.00    +0.141 C 
ENDBRANCH  19  26
ENDBRANCH   1  20
TORSDOF 2
