REMARK  Name = ZINC07718498
REMARK  6 active torsions:
REMARK  status: ('A' for Active; 'I' for Inactive)
REMARK    1  A    between atoms: C_1  and  C_2
REMARK    2  A    between atoms: C_2  and  C_3
REMARK    3  A    between atoms: C_6  and  N_9
REMARK    4  A    between atoms: N_21  and  C_22
REMARK    5  A    between atoms: C_22  and  C_24
REMARK    6  A    between atoms: C_28  and  C_30
REMARK                            x       y       z     vdW  Elec       q    Type
REMARK                         _______ _______ _______ _____ _____    ______ ____
ROOT
ATOM      1  N   UNL     1       4.956   5.559  -0.016  0.00  0.00    -0.276 N 
ATOM      2  C   UNL     1       6.335   5.985  -0.062  0.00  0.00    +0.116 C 
ATOM      3  C   UNL     1       6.770   7.275   0.659  0.00  0.00    +0.190 C 
ATOM      4  S   UNL     1       8.607   7.014   0.584  0.00  0.00    -0.028 S 
ATOM      5  O   UNL     1       9.108   7.590  -0.614  0.00  0.00    -0.174 OA
ATOM      6  O   UNL     1       9.179   7.381   1.832  0.00  0.00    -0.174 OA
ATOM      7  C   UNL     1       8.633   5.167   0.425  0.00  0.00    +0.182 C 
ATOM      8  C   UNL     1       7.176   4.868   0.659  0.00  0.00    +0.097 C 
ATOM      9  S   UNL     1       6.386   3.466  -0.165  0.00  0.00    -0.086 S 
ATOM     10  C   UNL     1       4.745   4.204  -0.262  0.00  0.00    +0.154 C 
ATOM     11  N   UNL     1       3.594   3.593  -0.506  0.00  0.00    -0.155 NA
ENDROOT
BRANCH   1  15
ATOM     12  C   UNL     1       1.831   8.193   0.792  0.00  0.00    -0.048 A 
ATOM     13  C   UNL     1       2.556   8.320  -0.379  0.00  0.00    +0.005 A 
ATOM     14  C   UNL     1       3.592   7.448  -0.650  0.00  0.00    +0.024 A 
ATOM     15  C   UNL     1       3.907   6.443   0.255  0.00  0.00    +0.036 A 
ATOM     16  C   UNL     1       3.174   6.315   1.428  0.00  0.00    +0.024 A 
ATOM     17  C   UNL     1       2.142   7.193   1.695  0.00  0.00    +0.005 A 
BRANCH  12  19
ATOM     18  C   UNL     1      -0.603   8.579   0.517  0.00  0.00    +0.009 C 
ATOM     19  C   UNL     1       0.701   9.145   1.084  0.00  0.00    +0.032 C 
ENDBRANCH  12  19
ENDBRANCH   1  15
BRANCH  11  20
ATOM     20  C   UNL     1       3.570   2.272  -0.722  0.00  0.00    +0.269 C 
ATOM     21  O   UNL     1       4.606   1.631  -0.694  0.00  0.00    -0.268 OA
BRANCH  20  22
ATOM     22  C   UNL     1       2.284   1.590  -0.995  0.00  0.00    +0.039 A 
ATOM     23  C   UNL     1       1.097   2.321  -1.028  0.00  0.00    +0.013 A 
ATOM     24  C   UNL     1      -0.098   1.680  -1.283  0.00  0.00    +0.001 A 
ATOM     25  C   UNL     1      -0.120   0.314  -1.506  0.00  0.00    +0.003 A 
ATOM     26  C   UNL     1       1.055  -0.416  -1.475  0.00  0.00    -0.050 A 
ATOM     27  C   UNL     1       2.256   0.214  -1.221  0.00  0.00    +0.016 A 
ATOM     28  C   UNL     1       1.022  -1.903  -1.720  0.00  0.00    +0.044 C 
ENDBRANCH  20  22
ENDBRANCH  11  20
TORSDOF 4
