REMARK  Name = ZINC67408996
REMARK  9 active torsions:
REMARK  status: ('A' for Active; 'I' for Inactive)
REMARK    1  A    between atoms: C_1  and  C_2
REMARK    2  A    between atoms: C_6  and  C_7
REMARK    3  A    between atoms: N_9  and  N_10
REMARK    4  A    between atoms: N_13  and  C_14
REMARK    5  A    between atoms: C_14  and  C_15
REMARK    6  A    between atoms: C_15  and  C_16
REMARK    7  A    between atoms: C_15  and  C_17
REMARK    8  A    between atoms: C_15  and  N_18
REMARK    9  A    between atoms: C_22  and  C_25
REMARK                            x       y       z     vdW  Elec       q    Type
REMARK                         _______ _______ _______ _____ _____    ______ ____
ROOT
ATOM      1  N   UNL     1       2.732  -2.575   9.044  0.00  0.00    -0.218 N 
ATOM      2  C   UNL     1       1.619  -2.687   8.294  0.00  0.00    +0.316 C 
ATOM      3  O   UNL     1       0.839  -1.758   8.220  0.00  0.00    -0.251 OA
ATOM      4  N   UNL     1       1.370  -3.830   7.624  0.00  0.00    -0.300 N 
ATOM      5  H   UNL     1       2.912  -1.752   9.526  0.00  0.00    +0.174 HD
ATOM      6  H   UNL     1       1.993  -4.572   7.682  0.00  0.00    +0.150 HD
ENDROOT
BRANCH   1   9
ATOM      7  C   UNL     1       4.745  -3.534   9.880  0.00  0.00    +0.267 C 
ATOM      8  O   UNL     1       4.970  -2.502  10.484  0.00  0.00    -0.268 OA
ATOM      9  N   UNL     1       3.632  -3.646   9.129  0.00  0.00    -0.229 N 
ATOM     10  H   UNL     1       3.453  -4.468   8.647  0.00  0.00    +0.173 HD
BRANCH   7  16
ATOM     11  C   UNL     1       7.396  -3.605  11.514  0.00  0.00    +0.045 C 
ATOM     12  C   UNL     1       6.875  -4.744  10.675  0.00  0.00    -0.031 A 
ATOM     13  C   UNL     1       7.545  -5.939  10.568  0.00  0.00    +0.011 A 
ATOM     14  C   UNL     1       7.020  -6.922   9.796  0.00  0.00    +0.046 A 
ATOM     15  S   UNL     1       5.600  -6.257   9.192  0.00  0.00    -0.092 S 
ATOM     16  C   UNL     1       5.686  -4.654   9.968  0.00  0.00    +0.078 A 
ENDBRANCH   7  16
ENDBRANCH   1   9
BRANCH   4  17
ATOM     17  C   UNL     1       0.160  -3.952   6.808  0.00  0.00    +0.093 C 
BRANCH  17  18
ATOM     18  C   UNL     1       0.183  -5.286   6.058  0.00  0.00    -0.055 C 
ATOM     19  C   UNL     1       0.102  -6.437   7.062  0.00  0.00    -0.008 C 
ATOM     20  C   UNL     1      -1.012  -5.355   5.105  0.00  0.00    -0.008 C 
BRANCH  18  21
ATOM     21  N   UNL     1       1.430  -5.394   5.289  0.00  0.00    +0.384 N 
ATOM     22  C   UNL     1       1.527  -4.264   4.356  0.00  0.00    -0.078 C 
ATOM     23  C   UNL     1       2.861  -4.327   3.610  0.00  0.00    -0.018 C 
ATOM     24  C   UNL     1       2.943  -5.643   2.831  0.00  0.00    -0.001 C 
ATOM     25  C   UNL     1       2.766  -6.812   3.804  0.00  0.00    -0.031 C 
ATOM     26  C   UNL     1       1.435  -6.657   4.543  0.00  0.00    -0.075 C 
ATOM     27  C   UNL     1       2.769  -8.129   3.025  0.00  0.00    +0.005 C 
ATOM     28  H   UNL     1       2.216  -5.374   5.921  0.00  0.00    -0.081 HD
ENDBRANCH  18  21
ENDBRANCH  17  18
ENDBRANCH   4  17
TORSDOF 5
