REMARK  Name = ZINC67521071
REMARK  6 active torsions:
REMARK  status: ('A' for Active; 'I' for Inactive)
REMARK    1  A    between atoms: C_1  and  C_2
REMARK    2  A    between atoms: C_2  and  O_3
REMARK    3  A    between atoms: O_3  and  C_4
REMARK    4  A    between atoms: C_11  and  C_13
REMARK    5  A    between atoms: C_14  and  C_24
REMARK    6  A    between atoms: N_20  and  C_23
REMARK                            x       y       z     vdW  Elec       q    Type
REMARK                         _______ _______ _______ _____ _____    ______ ____
ROOT
ATOM      1  C   UNL     1      -1.139  -6.165   2.127  0.00  0.00    +0.080 A 
ATOM      2  C   UNL     1      -0.472  -7.144   2.803  0.00  0.00    -0.017 A 
ATOM      3  C   UNL     1      -0.921  -8.465   2.733  0.00  0.00    +0.076 A 
ATOM      4  C   UNL     1      -2.070  -8.684   1.940  0.00  0.00    +0.116 A 
ATOM      5  S   UNL     1      -2.469  -7.060   1.343  0.00  0.00    -0.064 S 
ATOM      6  N   UNL     1      -2.599  -9.892   1.791  0.00  0.00    -0.230 NA
ATOM      7  C   UNL     1      -2.083 -10.941   2.372  0.00  0.00    +0.203 A 
ATOM      8  N   UNL     1      -0.981 -10.856   3.158  0.00  0.00    -0.302 N 
ATOM      9  C   UNL     1      -0.364  -9.678   3.375  0.00  0.00    +0.262 A 
ATOM     10  O   UNL     1       0.626  -9.612   4.082  0.00  0.00    -0.267 OA
ATOM     11  C   UNL     1      -0.450 -12.070   3.783  0.00  0.00    +0.153 C 
ATOM     12  C   UNL     1       0.746  -6.803   3.622  0.00  0.00    +0.046 C 
ENDROOT
BRANCH   1  19
ATOM     13  C   UNL     1       0.097  -2.243  -0.259  0.00  0.00    +0.136 C 
ATOM     14  C   UNL     1      -0.415  -2.854  -1.565  0.00  0.00    +0.035 C 
ATOM     15  C   UNL     1      -0.474  -4.378  -1.429  0.00  0.00    +0.021 C 
ATOM     16  C   UNL     1      -1.449  -4.748  -0.306  0.00  0.00    +0.108 C 
ATOM     17  N   UNL     1      -1.045  -4.048   0.921  0.00  0.00    -0.295 N 
ATOM     18  C   UNL     1      -0.870  -2.590   0.877  0.00  0.00    +0.139 C 
ATOM     19  C   UNL     1      -0.840  -4.730   2.065  0.00  0.00    +0.254 C 
ATOM     20  O   UNL     1      -0.406  -4.156   3.046  0.00  0.00    -0.269 OA
BRANCH  13  21
ATOM     21  O   UNL     1       0.181  -0.823  -0.397  0.00  0.00    -0.375 OA
BRANCH  21  23
ATOM     22  C   UNL     1       1.204   1.292   0.169  0.00  0.00    +0.034 C 
ATOM     23  C   UNL     1       1.206  -0.222   0.396  0.00  0.00    +0.157 C 
ENDBRANCH  21  23
ENDBRANCH  13  21
ENDBRANCH   1  19
TORSDOF 3
