REMARK  Name = ZINC21022890
REMARK  6 active torsions:
REMARK  status: ('A' for Active; 'I' for Inactive)
REMARK    1  A    between atoms: C_1  and  C_2
REMARK    2  A    between atoms: C_7  and  N_8
REMARK    3  A    between atoms: C_9  and  C_11
REMARK    4  A    between atoms: C_16  and  S_24
REMARK    5  A    between atoms: C_21  and  C_23
REMARK    6  A    between atoms: S_24  and  N_27
REMARK                            x       y       z     vdW  Elec       q    Type
REMARK                         _______ _______ _______ _____ _____    ______ ____
ROOT
ATOM      1  C   UNL     1      -2.273   0.557   0.022  0.00  0.00    +0.172 C 
ATOM      2  C   UNL     1      -1.453   1.857   0.015  0.00  0.00    +0.069 C 
ATOM      3  C   UNL     1      -0.012   1.399  -0.011  0.00  0.00    -0.022 A 
ATOM      4  C   UNL     1       1.168   2.118  -0.028  0.00  0.00    +0.034 A 
ATOM      5  C   UNL     1       2.382   1.459  -0.044  0.00  0.00    +0.106 A 
ATOM      6  C   UNL     1       2.415   0.076  -0.042  0.00  0.00    +0.030 A 
ATOM      7  C   UNL     1       1.241  -0.645  -0.025  0.00  0.00    +0.026 A 
ATOM      8  C   UNL     1       0.010   0.013  -0.009  0.00  0.00    +0.040 A 
ATOM      9  N   UNL     1      -1.282  -0.522   0.010  0.00  0.00    -0.259 N 
ATOM     10  C   UNL     1      -1.573  -1.838   0.015  0.00  0.00    +0.217 C 
ATOM     11  O   UNL     1      -2.729  -2.204   0.031  0.00  0.00    -0.276 OA
ATOM     12  C   UNL     1      -0.461  -2.856  -0.000  0.00  0.00    +0.109 C 
ENDROOT
BRANCH   1  14
ATOM     13  N   UNL     1      -4.336   1.114  -1.224  0.00  0.00    -0.284 N 
ATOM     14  C   UNL     1      -3.148   0.478  -1.202  0.00  0.00    +0.238 C 
ATOM     15  O   UNL     1      -2.782  -0.157  -2.168  0.00  0.00    -0.273 OA
ATOM     16  H   UNL     1      -4.709   1.614  -0.318  0.00  0.00    +0.155 HD
BRANCH  13  23
ATOM     17  C   UNL     1      -7.152   1.452  -0.997  0.00  0.00    +0.045 C 
ATOM     18  C   UNL     1      -6.473   1.300  -2.333  0.00  0.00    -0.029 A 
ATOM     19  C   UNL     1      -7.219   1.329  -3.496  0.00  0.00    +0.005 A 
ATOM     20  C   UNL     1      -6.597   1.185  -4.722  0.00  0.00    +0.000 A 
ATOM     21  C   UNL     1      -5.226   1.017  -4.790  0.00  0.00    +0.002 A 
ATOM     22  C   UNL     1      -4.474   0.993  -3.632  0.00  0.00    +0.023 A 
ATOM     23  C   UNL     1      -5.095   1.138  -2.399  0.00  0.00    +0.036 A 
ENDBRANCH  13  23
ENDBRANCH   1  14
BRANCH   5  24
ATOM     24  S   UNL     1       3.886   2.378  -0.066  0.00  0.00    +0.061 S 
ATOM     25  O   UNL     1       3.591   3.653   0.487  0.00  0.00    -0.153 OA
ATOM     26  O   UNL     1       4.889   1.528   0.472  0.00  0.00    -0.153 OA
BRANCH  24  27
ATOM     27  N   UNL     1       4.281   2.631  -1.654  0.00  0.00    -0.177 NA
ATOM     28  C   UNL     1       5.125   1.670  -2.378  0.00  0.00    +0.109 C 
ATOM     29  C   UNL     1       4.394   1.248  -3.662  0.00  0.00    +0.017 C 
ATOM     30  C   UNL     1       4.030   2.497  -4.468  0.00  0.00    +0.003 C 
ATOM     31  C   UNL     1       3.089   3.381  -3.647  0.00  0.00    +0.017 C 
ATOM     32  C   UNL     1       3.801   3.824  -2.364  0.00  0.00    +0.109 C 
ENDBRANCH  24  27
ENDBRANCH   5  24
TORSDOF 4
