REMARK  Name = ZINC19529800
REMARK  9 active torsions:
REMARK  status: ('A' for Active; 'I' for Inactive)
REMARK    1  A    between atoms: C_1  and  C_2
REMARK    2  A    between atoms: C_2  and  O_3
REMARK    3  A    between atoms: O_3  and  C_4
REMARK    4  A    between atoms: C_4  and  C_6
REMARK    5  A    between atoms: C_6  and  C_32
REMARK    6  A    between atoms: C_11  and  C_14
REMARK    7  A    between atoms: N_21  and  C_24
REMARK    8  A    between atoms: C_27  and  O_30
REMARK    9  A    between atoms: O_30  and  C_31
REMARK                            x       y       z     vdW  Elec       q    Type
REMARK                         _______ _______ _______ _____ _____    ______ ____
ROOT
ATOM      1  C   UNL     1       1.483  -2.403  -2.502  0.00  0.00    +0.127 C 
ATOM      2  C   UNL     1       0.881  -3.768  -2.896  0.00  0.00    +0.120 C 
ATOM      3  C   UNL     1      -0.181  -3.437  -3.979  0.00  0.00    +0.112 C 
ATOM      4  C   UNL     1      -0.131  -1.902  -4.126  0.00  0.00    +0.104 C 
ATOM      5  N   UNL     1       1.243  -1.531  -3.680  0.00  0.00    -0.293 NA
ATOM      6  C   UNL     1       0.376  -4.089  -5.224  0.00  0.00    +0.232 C 
ATOM      7  O   UNL     1      -0.148  -4.073  -6.317  0.00  0.00    -0.274 OA
ATOM      8  N   UNL     1       1.537  -4.686  -4.932  0.00  0.00    -0.210 N 
ATOM      9  C   UNL     1       1.921  -4.575  -3.639  0.00  0.00    +0.232 C 
ATOM     10  O   UNL     1       2.929  -5.039  -3.150  0.00  0.00    -0.274 OA
ATOM     11  C   UNL     1       2.983  -2.537  -2.235  0.00  0.00    +0.040 C 
ATOM     12  H   UNL     1       1.284  -0.556  -3.423  0.00  0.00    +0.124 HD
ENDROOT
BRANCH   8  13
ATOM     13  C   UNL     1       2.296  -5.379  -5.887  0.00  0.00    +0.044 A 
ATOM     14  C   UNL     1       3.535  -4.889  -6.279  0.00  0.00    +0.027 A 
ATOM     15  C   UNL     1       4.281  -5.572  -7.219  0.00  0.00    +0.047 A 
ATOM     16  C   UNL     1       3.794  -6.747  -7.772  0.00  0.00    +0.120 A 
ATOM     17  C   UNL     1       2.556  -7.237  -7.381  0.00  0.00    +0.047 A 
ATOM     18  C   UNL     1       1.811  -6.558  -6.437  0.00  0.00    +0.027 A 
BRANCH  16  19
ATOM     19  O   UNL     1       4.529  -7.419  -8.697  0.00  0.00    -0.495 OA
ATOM     20  C   UNL     1       3.966  -8.621  -9.225  0.00  0.00    +0.277 C 
ENDBRANCH  16  19
ENDBRANCH   8  13
BRANCH   4  21
ATOM     21  C   UNL     1      -0.327  -1.506  -5.567  0.00  0.00    +0.007 A 
ATOM     22  C   UNL     1      -1.446  -1.053  -6.183  0.00  0.00    +0.013 A 
ATOM     23  C   UNL     1      -1.392  -0.747  -7.530  0.00  0.00    +0.008 A 
ATOM     24  C   UNL     1      -0.222  -0.909  -8.195  0.00  0.00    +0.045 A 
ATOM     25  S   UNL     1       0.857  -1.505  -6.903  0.00  0.00    -0.100 S 
ENDBRANCH   4  21
BRANCH   1  26
ATOM     26  C   UNL     1       0.782  -1.850  -1.288  0.00  0.00    +0.328 C 
ATOM     27  O   UNL     1       0.285  -2.602  -0.483  0.00  0.00    -0.249 OA
BRANCH  26  28
ATOM     28  O   UNL     1       0.710  -0.523  -1.101  0.00  0.00    -0.464 OA
BRANCH  28  30
ATOM     29  C   UNL     1       0.050   1.460   0.112  0.00  0.00    +0.048 C 
ATOM     30  C   UNL     1       0.030  -0.069   0.071  0.00  0.00    +0.229 C 
ENDBRANCH  28  30
ENDBRANCH  26  28
ENDBRANCH   1  26
TORSDOF 6
