REMARK  Name = ZINC39364283
REMARK  8 active torsions:
REMARK  status: ('A' for Active; 'I' for Inactive)
REMARK    1  A    between atoms: C_1  and  C_2
REMARK    2  A    between atoms: C_2  and  C_3
REMARK    3  A    between atoms: C_2  and  N_4
REMARK    4  A    between atoms: C_5  and  C_7
REMARK    5  A    between atoms: N_10  and  C_13
REMARK    6  A    between atoms: N_16  and  C_19
REMARK    7  A    between atoms: C_19  and  C_20
REMARK    8  A    between atoms: C_25  and  C_26
REMARK                            x       y       z     vdW  Elec       q    Type
REMARK                         _______ _______ _______ _____ _____    ______ ____
ROOT
ATOM      1  C   UNL     1      -6.298  -5.089  -0.249  0.00  0.00    -0.066 C 
ATOM      2  C   UNL     1      -6.568  -5.049   1.258  0.00  0.00    +0.000 C 
ATOM      3  C   UNL     1      -7.923  -5.700   1.545  0.00  0.00    +0.083 C 
ATOM      4  N   UNL     1      -7.910  -7.090   1.069  0.00  0.00    -0.301 NA
ATOM      5  C   UNL     1      -7.699  -7.151  -0.383  0.00  0.00    +0.083 C 
ATOM      6  C   UNL     1      -6.337  -6.543  -0.728  0.00  0.00    +0.000 C 
ENDROOT
BRANCH   1  10
ATOM      7  C   UNL     1      -3.185  -2.605  -1.766  0.00  0.00    +0.071 C 
ATOM      8  C   UNL     1      -3.535  -2.549  -0.276  0.00  0.00    -0.006 C 
ATOM      9  C   UNL     1      -4.937  -3.124  -0.065  0.00  0.00    -0.078 C 
ATOM     10  N   UNL     1      -4.973  -4.517  -0.525  0.00  0.00    +0.382 N 
ATOM     11  C   UNL     1      -4.709  -4.572  -1.968  0.00  0.00    -0.078 C 
ATOM     12  C   UNL     1      -3.298  -4.053  -2.252  0.00  0.00    -0.006 C 
ATOM     13  H   UNL     1      -4.270  -5.050  -0.035  0.00  0.00    -0.081 HD
BRANCH   7  15
ATOM     14  N   UNL     1      -1.442  -0.857  -1.613  0.00  0.00    -0.313 N 
ATOM     15  C   UNL     1      -1.776  -2.112  -1.971  0.00  0.00    +0.216 C 
ATOM     16  O   UNL     1      -0.942  -2.846  -2.459  0.00  0.00    -0.276 OA
ATOM     17  H   UNL     1      -2.109  -0.270  -1.223  0.00  0.00    +0.149 HD
BRANCH  14  19
ATOM     18  C   UNL     1      -0.077   1.147  -1.935  0.00  0.00    +0.027 C 
ATOM     19  C   UNL     1      -0.072  -0.378  -1.813  0.00  0.00    +0.067 C 
ATOM     20  C   UNL     1       0.792  -0.791  -0.620  0.00  0.00    +0.027 C 
ENDBRANCH  14  19
ENDBRANCH   7  15
ENDBRANCH   1  10
BRANCH   4  21
ATOM     21  C   UNL     1      -9.144  -7.789   1.452  0.00  0.00    +0.099 C 
BRANCH  21  22
ATOM     22  C   UNL     1      -8.993  -9.284   1.163  0.00  0.00    +0.092 C 
ATOM     23  C   UNL     1      -7.992  -9.913   2.112  0.00  0.00    +0.118 C 
ATOM     24  N   UNL     1      -8.649 -10.803   2.780  0.00  0.00    -0.161 NA
ATOM     25  N   UNL     1      -9.988 -10.866   2.408  0.00  0.00    -0.158 NA
ATOM     26  C   UNL     1     -10.282 -10.020   1.471  0.00  0.00    +0.054 C 
BRANCH  26  27
ATOM     27  C   UNL     1     -11.626  -9.809   0.822  0.00  0.00    +0.036 C 
ATOM     28  C   UNL     1     -12.674 -10.673   1.527  0.00  0.00    +0.009 C 
ATOM     29  C   UNL     1     -14.038 -10.460   0.868  0.00  0.00    +0.001 C 
ATOM     30  C   UNL     1     -13.959 -10.855  -0.608  0.00  0.00    +0.000 C 
ATOM     31  C   UNL     1     -12.911  -9.992  -1.313  0.00  0.00    +0.001 C 
ATOM     32  C   UNL     1     -11.547 -10.205  -0.654  0.00  0.00    +0.009 C 
ENDBRANCH  26  27
ENDBRANCH  21  22
ENDBRANCH   4  21
TORSDOF 6
