REMARK  Name = ZINC01445488
REMARK  7 active torsions:
REMARK  status: ('A' for Active; 'I' for Inactive)
REMARK    1  A    between atoms: C_1  and  C_2
REMARK    2  A    between atoms: C_5  and  S_8
REMARK    3  A    between atoms: S_8  and  N_11
REMARK    4  A    between atoms: C_14  and  C_17
REMARK    5  A    between atoms: N_19  and  N_20
REMARK    6  A    between atoms: C_21  and  C_22
REMARK    7  A    between atoms: C_27  and  O_28
REMARK                            x       y       z     vdW  Elec       q    Type
REMARK                         _______ _______ _______ _____ _____    ______ ____
ROOT
ATOM      1  N   UNL     1      -8.575  -1.740  -1.011  0.00  0.00    -0.177 NA
ATOM      2  C   UNL     1      -8.559  -0.791   0.111  0.00  0.00    +0.110 C 
ATOM      3  C   UNL     1      -7.248   0.000   0.069  0.00  0.00    +0.030 C 
ATOM      4  C   UNL     1      -6.068  -0.975   0.052  0.00  0.00    +0.079 C 
ATOM      5  C   UNL     1      -6.145  -1.850  -1.200  0.00  0.00    +0.030 C 
ATOM      6  C   UNL     1      -7.443  -2.663  -1.172  0.00  0.00    +0.110 C 
ENDROOT
BRANCH   4   7
ATOM      7  C   UNL     1      -4.776  -0.199   0.045  0.00  0.00    +0.235 C 
ATOM      8  O   UNL     1      -4.796   1.014   0.051  0.00  0.00    -0.274 OA
ATOM      9  N   UNL     1      -3.598  -0.853   0.030  0.00  0.00    -0.207 N 
ATOM     10  H   UNL     1      -3.581  -1.823   0.025  0.00  0.00    +0.177 HD
BRANCH   9  11
ATOM     11  N   UNL     1      -2.396  -0.133   0.023  0.00  0.00    -0.188 NA
ATOM     12  C   UNL     1      -1.262  -0.762   0.009  0.00  0.00    +0.142 C 
BRANCH  12  13
ATOM     13  C   UNL     1       0.002  -0.004   0.002  0.00  0.00    +0.036 A 
ATOM     14  C   UNL     1       1.225  -0.678  -0.013  0.00  0.00    +0.013 A 
ATOM     15  C   UNL     1       2.404   0.038  -0.021  0.00  0.00    +0.001 A 
ATOM     16  C   UNL     1       2.381   1.422  -0.013  0.00  0.00    +0.004 A 
ATOM     17  C   UNL     1       1.177   2.100   0.002  0.00  0.00    +0.046 A 
ATOM     18  C   UNL     1      -0.017   1.397   0.010  0.00  0.00    +0.125 A 
BRANCH  18  19
ATOM     19  O   UNL     1      -1.200   2.063   0.019  0.00  0.00    -0.506 OA
ATOM     20  H   UNL     1      -1.539   2.251   0.905  0.00  0.00    +0.292 HD
ENDBRANCH  18  19
ENDBRANCH  12  13
ENDBRANCH   9  11
ENDBRANCH   4   7
BRANCH   1  21
ATOM     21  S   UNL     1      -9.845  -1.769  -2.073  0.00  0.00    +0.061 S 
ATOM     22  O   UNL     1      -9.864  -3.068  -2.648  0.00  0.00    -0.153 OA
ATOM     23  O   UNL     1     -10.963  -1.225  -1.384  0.00  0.00    -0.153 OA
BRANCH  21  28
ATOM     24  C   UNL     1      -8.530   2.075  -6.533  0.00  0.00    +0.044 C 
ATOM     25  C   UNL     1      -8.859   1.115  -5.419  0.00  0.00    -0.050 A 
ATOM     26  C   UNL     1      -8.481  -0.211  -5.516  0.00  0.00    +0.005 A 
ATOM     27  C   UNL     1      -8.782  -1.092  -4.494  0.00  0.00    +0.029 A 
ATOM     28  C   UNL     1      -9.461  -0.646  -3.375  0.00  0.00    +0.105 A 
ATOM     29  C   UNL     1      -9.844   0.679  -3.281  0.00  0.00    +0.029 A 
ATOM     30  C   UNL     1      -9.538   1.561  -4.301  0.00  0.00    +0.005 A 
ENDBRANCH  21  28
ENDBRANCH   1  21
TORSDOF 6
