REMARK  Name = ZINC36152112
REMARK  2 active torsions:
REMARK  status: ('A' for Active; 'I' for Inactive)
REMARK    1  A    between atoms: C_4  and  C_7
REMARK    2  A    between atoms: C_7  and  C_8
REMARK                            x       y       z     vdW  Elec       q    Type
REMARK                         _______ _______ _______ _____ _____    ______ ____
ROOT
ATOM      1  C   UNL     1       4.164  -0.959   1.377  0.00  0.00    +0.156 A 
ATOM      2  N   UNL     1       4.906  -0.168   2.104  0.00  0.00    -0.132 NA
ATOM      3  N   UNL     1       5.095  -0.683   3.271  0.00  0.00    -0.121 NA
ATOM      4  C   UNL     1       4.480  -1.825   3.341  0.00  0.00    +0.209 A 
ATOM      5  N   UNL     1       3.871  -2.054   2.137  0.00  0.00    -0.225 N 
ATOM      6  N   UNL     1       3.159  -3.152   1.794  0.00  0.00    -0.277 N 
ATOM      7  C   UNL     1       2.540  -3.882   2.907  0.00  0.00    +0.101 C 
ATOM      8  C   UNL     1       1.756  -5.057   2.313  0.00  0.00    +0.025 C 
ATOM      9  C   UNL     1       1.108  -5.880   3.424  0.00  0.00    +0.002 C 
ATOM     10  C   UNL     1       2.208  -6.437   4.332  0.00  0.00    +0.001 C 
ATOM     11  C   UNL     1       2.965  -5.268   4.959  0.00  0.00    +0.016 C 
ATOM     12  C   UNL     1       3.614  -4.402   3.875  0.00  0.00    +0.076 C 
ATOM     13  S   UNL     1       4.369  -2.958   4.691  0.00  0.00    -0.079 S 
ATOM     14  H   UNL     1       2.477  -2.933   1.082  0.00  0.00    +0.167 HD
ENDROOT
BRANCH   1  15
ATOM     15  C   UNL     1       3.711  -0.707  -0.038  0.00  0.00    +0.113 C 
BRANCH  15  19
ATOM     16  C   UNL     1      -0.017   1.378   0.010  0.00  0.00    +0.000 A 
ATOM     17  C   UNL     1       1.171   2.086   0.002  0.00  0.00    +0.000 A 
ATOM     18  C   UNL     1       2.377   1.411  -0.013  0.00  0.00    +0.004 A 
ATOM     19  C   UNL     1       2.396   0.029  -0.020  0.00  0.00    -0.040 A 
ATOM     20  C   UNL     1       1.208  -0.679  -0.012  0.00  0.00    +0.004 A 
ATOM     21  C   UNL     1       0.002  -0.004   0.002  0.00  0.00    +0.000 A 
ENDBRANCH  15  19
ENDBRANCH   1  15
TORSDOF 2
