REMARK  Name = ZINC63209255
REMARK  7 active torsions:
REMARK  status: ('A' for Active; 'I' for Inactive)
REMARK    1  A    between atoms: C_7  and  C_10
REMARK    2  A    between atoms: C_10  and  C_11
REMARK    3  A    between atoms: N_13  and  N_14
REMARK    4  A    between atoms: C_15  and  C_17
REMARK    5  A    between atoms: C_21  and  S_23
REMARK    6  A    between atoms: S_23  and  N_26
REMARK    7  A    between atoms: N_26  and  C_27
REMARK                            x       y       z     vdW  Elec       q    Type
REMARK                         _______ _______ _______ _____ _____    ______ ____
ROOT
ATOM      1  N   UNL     1      -0.567  -5.122  -3.001  0.00  0.00    -0.230 N 
ATOM      2  C   UNL     1      -1.380  -6.168  -3.245  0.00  0.00    +0.260 C 
ATOM      3  O   UNL     1      -1.927  -6.741  -2.323  0.00  0.00    -0.269 OA
ATOM      4  H   UNL     1      -0.131  -4.665  -3.737  0.00  0.00    +0.173 HD
ENDROOT
BRANCH   2   5
ATOM      5  C   UNL     1      -1.606  -6.620  -4.634  0.00  0.00    +0.040 A 
ATOM      6  C   UNL     1      -0.975  -5.969  -5.695  0.00  0.00    +0.013 A 
ATOM      7  C   UNL     1      -1.190  -6.396  -6.989  0.00  0.00    +0.003 A 
ATOM      8  C   UNL     1      -2.029  -7.468  -7.237  0.00  0.00    +0.029 A 
ATOM      9  C   UNL     1      -2.659  -8.118  -6.190  0.00  0.00    +0.111 A 
ATOM     10  C   UNL     1      -2.448  -7.704  -4.891  0.00  0.00    +0.042 A 
BRANCH   9  11
ATOM     11  S   UNL     1      -3.726  -9.481  -6.516  0.00  0.00    +0.092 S 
ATOM     12  O   UNL     1      -4.619  -9.570  -5.414  0.00  0.00    -0.148 OA
ATOM     13  O   UNL     1      -4.181  -9.329  -7.854  0.00  0.00    -0.148 OA
BRANCH  11  14
ATOM     14  N   UNL     1      -2.796 -10.850  -6.484  0.00  0.00    -0.098 NA
BRANCH  14  15
ATOM     15  C   UNL     1      -3.381 -12.098  -6.713  0.00  0.00    +0.076 A 
ATOM     16  C   UNL     1      -4.743 -12.191  -6.973  0.00  0.00    +0.027 A 
ATOM     17  C   UNL     1      -5.319 -13.425  -7.198  0.00  0.00    +0.003 A 
ATOM     18  C   UNL     1      -4.543 -14.569  -7.166  0.00  0.00    +0.020 A 
ATOM     19  C   UNL     1      -3.186 -14.480  -6.907  0.00  0.00    +0.043 A 
ATOM     20  C   UNL     1      -2.602 -13.247  -6.686  0.00  0.00    +0.046 A 
ATOM     21 CL   UNL     1      -2.215 -15.919  -6.867  0.00  0.00    -0.083 Cl
ENDBRANCH  14  15
ENDBRANCH  11  14
ENDBRANCH   9  11
ENDBRANCH   2   5
BRANCH   1  24
ATOM     22  C   UNL     1       0.460  -3.646  -1.440  0.00  0.00    +0.233 C 
ATOM     23  O   UNL     1       1.006  -3.075  -2.360  0.00  0.00    -0.274 OA
ATOM     24  N   UNL     1      -0.353  -4.693  -1.684  0.00  0.00    -0.234 N 
ATOM     25  H   UNL     1      -0.790  -5.150  -0.948  0.00  0.00    +0.173 HD
BRANCH  22  26
ATOM     26  C   UNL     1       0.691  -3.186  -0.024  0.00  0.00    +0.130 C 
BRANCH  26  33
ATOM     27  C   UNL     1      -0.016   1.348   0.009  0.00  0.00    +0.001 A 
ATOM     28  C   UNL     1       1.166   2.101   0.002  0.00  0.00    +0.002 A 
ATOM     29  C   UNL     1       2.391   1.535  -0.013  0.00  0.00    +0.026 A 
ATOM     30  C   UNL     1       2.529   0.120  -0.022  0.00  0.00    +0.043 A 
ATOM     31  N   UNL     1       3.587  -0.654  -0.037  0.00  0.00    -0.380 N 
ATOM     32  C   UNL     1       3.143  -2.053  -0.041  0.00  0.00    +0.145 C 
ATOM     33  C   UNL     1       1.631  -2.008  -0.025  0.00  0.00    -0.033 C 
ATOM     34  C   UNL     1       1.295  -0.698  -0.014  0.00  0.00    -0.001 A 
ATOM     35  C   UNL     1       0.002  -0.004   0.002  0.00  0.00    +0.010 A 
ATOM     36  H   UNL     1       4.509  -0.353  -0.045  0.00  0.00    +0.160 HD
ENDBRANCH  26  33
ENDBRANCH  22  26
ENDBRANCH   1  24
TORSDOF 7
