REMARK  Name = ZINC05280300
REMARK  5 active torsions:
REMARK  status: ('A' for Active; 'I' for Inactive)
REMARK    1  A    between atoms: C_1  and  C_2
REMARK    2  A    between atoms: C_2  and  C_4
REMARK    3  A    between atoms: C_2  and  O_6
REMARK    4  A    between atoms: O_6  and  C_7
REMARK    5  A    between atoms: C_7  and  C_9
REMARK                            x       y       z     vdW  Elec       q    Type
REMARK                         _______ _______ _______ _____ _____    ______ ____
ROOT
ATOM      1  C   UNL     1      -6.917   2.669   1.509  0.00  0.00    +0.060 A 
ATOM      2  C   UNL     1      -6.627   2.325   0.187  0.00  0.00    +0.017 A 
ATOM      3  C   UNL     1      -5.351   2.051  -0.252  0.00  0.00    +0.025 A 
ATOM      4  C   UNL     1      -4.300   2.124   0.688  0.00  0.00    +0.050 A 
ATOM      5  C   UNL     1      -4.622   2.474   2.014  0.00  0.00    +0.038 A 
ATOM      6  C   UNL     1      -5.886   2.749   2.465  0.00  0.00    +0.032 A 
ATOM      7  S   UNL     1      -3.059   2.451   2.836  0.00  0.00    -0.051 S 
ATOM      8  C   UNL     1      -2.060   1.996   1.433  0.00  0.00    +0.186 C 
ATOM      9  N   UNL     1      -0.772   1.831   1.432  0.00  0.00    -0.110 NA
ATOM     10  S   UNL     1      -0.017   1.417   0.010  0.00  0.00    +0.073 S 
ATOM     11  O   UNL     1       0.002  -0.004   0.002  0.00  0.00    -0.151 OA
ATOM     12  O   UNL     1       1.192   2.163   0.002  0.00  0.00    -0.151 OA
ATOM     13  C   UNL     1      -1.156   2.042  -1.263  0.00  0.00    +0.212 C 
ATOM     14  C   UNL     1      -2.555   1.493  -0.977  0.00  0.00    +0.137 C 
ATOM     15  N   UNL     1      -2.966   1.875   0.398  0.00  0.00    -0.276 N 
ENDROOT
BRANCH   1  16
ATOM     16  C   UNL     1      -8.309   2.949   1.906  0.00  0.00    +0.340 C 
ATOM     17  O   UNL     1      -8.564   3.248   3.056  0.00  0.00    -0.245 OA
BRANCH  16  18
ATOM     18  O   UNL     1      -9.298   2.873   0.994  0.00  0.00    -0.443 OA
BRANCH  18  20
ATOM     19  C   UNL     1     -10.928   4.656   1.298  0.00  0.00    +0.068 C 
ATOM     20  C   UNL     1     -10.644   3.161   1.456  0.00  0.00    +0.275 C 
BRANCH  20  21
ATOM     21  C   UNL     1     -11.612   2.391   0.659  0.00  0.00    +0.107 C 
ATOM     22  N   UNL     1     -12.359   1.796   0.043  0.00  0.00    -0.193 NA
ENDBRANCH  20  21
ENDBRANCH  18  20
ENDBRANCH  16  18
ENDBRANCH   1  16
TORSDOF 4
