REMARK  Name = ZINC25337495
REMARK  5 active torsions:
REMARK  status: ('A' for Active; 'I' for Inactive)
REMARK    1  A    between atoms: C_1  and  C_2
REMARK    2  A    between atoms: C_5  and  O_26
REMARK    3  A    between atoms: N_16  and  C_19
REMARK    4  A    between atoms: C_19  and  C_20
REMARK    5  A    between atoms: O_26  and  C_27
REMARK                            x       y       z     vdW  Elec       q    Type
REMARK                         _______ _______ _______ _____ _____    ______ ____
ROOT
ATOM      1  C   UNL     1      -3.894   2.200   5.360  0.00  0.00    +0.046 C 
ATOM      2  C   UNL     1      -2.417   1.981   5.157  0.00  0.00    -0.022 A 
ATOM      3  C   UNL     1      -1.552   2.081   6.231  0.00  0.00    +0.009 A 
ATOM      4  C   UNL     1      -0.197   1.885   6.038  0.00  0.00    +0.048 A 
ATOM      5  C   UNL     1       0.291   1.581   4.782  0.00  0.00    +0.143 A 
ATOM      6  C   UNL     1      -0.580   1.468   3.688  0.00  0.00    +0.098 A 
ATOM      7  C   UNL     1      -1.932   1.683   3.899  0.00  0.00    +0.133 A 
ATOM      8  S   UNL     1      -3.058   1.578   2.537  0.00  0.00    +0.062 S 
ATOM      9  O   UNL     1      -3.460   2.904   2.223  0.00  0.00    -0.153 OA
ATOM     10  O   UNL     1      -3.982   0.541   2.837  0.00  0.00    -0.153 OA
ATOM     11  N   UNL     1      -2.106   1.040   1.273  0.00  0.00    -0.167 NA
ATOM     12  C   UNL     1      -0.731   1.580   1.266  0.00  0.00    +0.099 C 
ATOM     13  N   UNL     1      -0.027   1.130   2.458  0.00  0.00    -0.321 N 
ATOM     14  C   UNL     1      -0.013   1.086   0.008  0.00  0.00    +0.025 C 
ATOM     15  C   UNL     1      -0.755   1.594  -1.231  0.00  0.00    -0.075 C 
ATOM     16  N   UNL     1      -0.795   3.061  -1.211  0.00  0.00    +0.383 N 
ATOM     17  C   UNL     1      -1.523   3.558  -0.036  0.00  0.00    -0.075 C 
ATOM     18  C   UNL     1      -0.803   3.109   1.238  0.00  0.00    +0.025 C 
ATOM     19  H   UNL     1      -2.481   0.477   0.405  0.00  0.00    +0.150 HD
ATOM     20  H   UNL     1       0.902   0.548   2.362  0.00  0.00    +0.148 HD
ATOM     21  H   UNL     1       0.241   3.424  -1.141  0.00  0.00    -0.081 HD
ENDROOT
BRANCH   5  22
ATOM     22  O   UNL     1       1.626   1.391   4.604  0.00  0.00    -0.493 OA
ATOM     23  C   UNL     1       2.459   1.520   5.758  0.00  0.00    +0.277 C 
ENDBRANCH   5  22
BRANCH  16  24
ATOM     24  C   UNL     1      -1.377   3.589  -2.452  0.00  0.00    -0.043 C 
BRANCH  24  25
ATOM     25  C   UNL     1      -1.180   5.082  -2.505  0.00  0.00    -0.064 A 
ATOM     26  C   UNL     1      -2.139   5.925  -1.976  0.00  0.00    +0.002 A 
ATOM     27  C   UNL     1      -1.956   7.294  -2.020  0.00  0.00    +0.000 A 
ATOM     28  C   UNL     1      -0.818   7.821  -2.602  0.00  0.00    +0.000 A 
ATOM     29  C   UNL     1       0.139   6.978  -3.136  0.00  0.00    +0.000 A 
ATOM     30  C   UNL     1      -0.042   5.609  -3.087  0.00  0.00    +0.002 A 
ENDBRANCH  24  25
ENDBRANCH  16  24
TORSDOF 3
