REMARK  Name = ZINC08800613
REMARK  11 active torsions:
REMARK  status: ('A' for Active; 'I' for Inactive)
REMARK    1  A    between atoms: C_1  and  C_2
REMARK    2  A    between atoms: C_5  and  S_9
REMARK    3  A    between atoms: C_6  and  C_8
REMARK    4  A    between atoms: S_9  and  N_12
REMARK    5  A    between atoms: N_12  and  C_13
REMARK    6  A    between atoms: C_13  and  C_14
REMARK    7  A    between atoms: C_14  and  C_16
REMARK    8  A    between atoms: C_14  and  N_56
REMARK    9  A    between atoms: N_24  and  C_25
REMARK   10  A    between atoms: C_26  and  N_56
REMARK   11  A    between atoms: C_27  and  N_56
REMARK                            x       y       z     vdW  Elec       q    Type
REMARK                         _______ _______ _______ _____ _____    ______ ____
ROOT
ATOM      1  C   UNL     1      -1.226   0.405  -0.674  0.00  0.00    -0.023 C 
ENDROOT
BRANCH   1   2
ATOM      2  C   UNL     1      -1.614   1.320  -1.807  0.00  0.00    -0.059 A 
ATOM      3  C   UNL     1      -1.471   2.689  -1.672  0.00  0.00    +0.004 A 
ATOM      4  C   UNL     1      -1.823   3.530  -2.707  0.00  0.00    +0.023 A 
ATOM      5  C   UNL     1      -2.335   3.006  -3.893  0.00  0.00    +0.033 A 
ATOM      6  C   UNL     1      -2.475   1.629  -4.018  0.00  0.00    -0.025 A 
ATOM      7  C   UNL     1      -2.118   0.792  -2.982  0.00  0.00    +0.007 A 
ATOM      8  C   UNL     1      -3.036   1.340  -5.396  0.00  0.00    +0.056 C 
ATOM      9  C   UNL     1      -2.797   2.669  -6.150  0.00  0.00    +0.109 C 
ATOM     10  N   UNL     1      -2.765   3.661  -5.053  0.00  0.00    -0.332 N 
ATOM     11  C   UNL     1      -1.876   4.783  -5.384  0.00  0.00    +0.129 C 
ENDBRANCH   1   2
BRANCH   1  14
ATOM     12  C   UNL     1      -2.382   1.951   0.787  0.00  0.00    -0.096 C 
ATOM     13  C   UNL     1      -3.479  -0.084   0.066  0.00  0.00    -0.096 C 
ATOM     14  N   UNL     1      -2.187   0.527   0.443  0.00  0.00    +0.381 N 
ATOM     15  H   UNL     1      -1.811   0.034   1.261  0.00  0.00    -0.082 HD
ENDBRANCH   1  14
BRANCH   1  16
ATOM     16  C   UNL     1       0.168   0.783  -0.168  0.00  0.00    +0.095 C 
BRANCH  16  17
ATOM     17  N   UNL     1       0.496  -0.026   1.009  0.00  0.00    -0.191 NA
ATOM     18  H   UNL     1      -0.208  -0.485   1.494  0.00  0.00    +0.148 HD
BRANCH  17  19
ATOM     19  S   UNL     1       2.068  -0.158   1.511  0.00  0.00    +0.059 S 
ATOM     20  O   UNL     1       2.055  -0.966   2.679  0.00  0.00    -0.153 OA
ATOM     21  O   UNL     1       2.835  -0.491   0.362  0.00  0.00    -0.153 OA
BRANCH  19  26
ATOM     22  C   UNL     1       3.852   5.341   3.239  0.00  0.00    +0.044 C 
ATOM     23  C   UNL     1       3.407   3.968   2.808  0.00  0.00    -0.050 A 
ATOM     24  C   UNL     1       4.003   3.358   1.719  0.00  0.00    +0.005 A 
ATOM     25  C   UNL     1       3.594   2.099   1.323  0.00  0.00    +0.029 A 
ATOM     26  C   UNL     1       2.590   1.448   2.016  0.00  0.00    +0.108 A 
ATOM     27  C   UNL     1       1.991   2.060   3.101  0.00  0.00    -0.024 A 
ATOM     28  C   UNL     1       2.403   3.318   3.500  0.00  0.00    +0.008 A 
ATOM     29  C   UNL     1       0.891   1.354   3.852  0.00  0.00    +0.046 C 
ENDBRANCH  19  26
ENDBRANCH  17  19
ENDBRANCH  16  17
ENDBRANCH   1  16
TORSDOF 6
