REMARK  Name = ZINC59168620
REMARK  2 active torsions:
REMARK  status: ('A' for Active; 'I' for Inactive)
REMARK    1  A    between atoms: C_5  and  C_7
REMARK    2  A    between atoms: C_13  and  C_16
REMARK                            x       y       z     vdW  Elec       q    Type
REMARK                         _______ _______ _______ _____ _____    ______ ____
ROOT
ATOM      1  C   UNL     1       1.249  -2.161  -0.022  0.00  0.00    +0.183 A 
ATOM      2  N   UNL     1       2.321  -2.913  -0.032  0.00  0.00    -0.127 NA
ATOM      3  N   UNL     1       1.986  -4.155  -0.049  0.00  0.00    -0.120 NA
ATOM      4  C   UNL     1       0.691  -4.258  -0.068  0.00  0.00    +0.211 A 
ATOM      5  N   UNL     1       0.141  -3.002  -0.016  0.00  0.00    -0.220 N 
ATOM      6  N   UNL     1      -1.215  -2.872   0.044  0.00  0.00    -0.260 N 
ATOM      7  C   UNL     1      -1.981  -4.049  -0.445  0.00  0.00    +0.218 C 
ATOM      8  S   UNL     1      -0.713  -5.351  -0.134  0.00  0.00    -0.053 S 
ATOM      9  H   UNL     1      -1.512  -2.607   0.971  0.00  0.00    +0.168 HD
ENDROOT
BRANCH   1  14
ATOM     10  C   UNL     1      -0.017   1.375   0.010  0.00  0.00    +0.001 A 
ATOM     11  C   UNL     1       1.170   2.087   0.002  0.00  0.00    +0.001 A 
ATOM     12  C   UNL     1       2.383   1.422  -0.013  0.00  0.00    +0.021 A 
ATOM     13  C   UNL     1       2.416   0.041  -0.021  0.00  0.00    +0.052 A 
ATOM     14  C   UNL     1       1.222  -0.683  -0.013  0.00  0.00    +0.039 A 
ATOM     15  C   UNL     1       0.002  -0.004   0.002  0.00  0.00    +0.013 A 
ATOM     16 CL   UNL     1       3.939  -0.792  -0.042  0.00  0.00    -0.083 Cl
ENDBRANCH   1  14
BRANCH   7  17
ATOM     17  C   UNL     1      -3.229  -4.276   0.368  0.00  0.00    +0.137 A 
ATOM     18  C   UNL     1      -4.372  -4.824  -0.082  0.00  0.00    +0.047 A 
ATOM     19  C   UNL     1      -5.274  -4.844   1.007  0.00  0.00    +0.041 A 
ATOM     20  C   UNL     1      -4.627  -4.307   2.057  0.00  0.00    +0.195 A 
ATOM     21  O   UNL     1      -3.388  -3.970   1.666  0.00  0.00    -0.465 OA
ENDBRANCH   7  17
TORSDOF 2
