REMARK  Name = ZINC62607800
REMARK  6 active torsions:
REMARK  status: ('A' for Active; 'I' for Inactive)
REMARK    1  A    between atoms: C_1  and  C_2
REMARK    2  A    between atoms: C_2  and  C_3
REMARK    3  A    between atoms: C_2  and  C_4
REMARK    4  A    between atoms: C_7  and  C_10
REMARK    5  A    between atoms: N_20  and  C_21
REMARK    6  A    between atoms: N_20  and  C_22
REMARK                            x       y       z     vdW  Elec       q    Type
REMARK                         _______ _______ _______ _____ _____    ______ ____
ROOT
ATOM      1  C   UNL     1      -7.225  -2.385   0.238  0.00  0.00    +0.194 C 
ATOM      2  C   UNL     1      -8.610  -2.094  -0.273  0.00  0.00    +0.238 C 
ATOM      3  O   UNL     1      -9.286  -1.280   0.319  0.00  0.00    -0.273 OA
ATOM      4  N   UNL     1      -9.128  -2.690  -1.348  0.00  0.00    -0.312 N 
ATOM      5  C   UNL     1      -8.472  -3.749  -2.103  0.00  0.00    +0.123 C 
ATOM      6  C   UNL     1      -6.960  -3.723  -1.874  0.00  0.00    +0.129 C 
ATOM      7  N   UNL     1      -6.715  -3.595  -0.425  0.00  0.00    -0.268 N 
ATOM      8  C   UNL     1      -6.053  -4.546   0.264  0.00  0.00    +0.305 C 
ATOM      9  O   UNL     1      -5.761  -5.595  -0.276  0.00  0.00    -0.252 OA
ATOM     10  N   UNL     1      -5.716  -4.333   1.552  0.00  0.00    -0.292 N 
ATOM     11  C   UNL     1      -5.159  -5.426   2.353  0.00  0.00    +0.133 C 
ATOM     12  C   UNL     1      -5.906  -3.010   2.150  0.00  0.00    +0.133 C 
ATOM     13  H   UNL     1     -10.003  -2.398  -1.648  0.00  0.00    +0.149 HD
ENDROOT
BRANCH   1  17
ATOM     14  C   UNL     1      -4.655   0.914  -0.633  0.00  0.00    -0.045 A 
ATOM     15  C   UNL     1      -4.952   0.597   0.680  0.00  0.00    +0.004 A 
ATOM     16  C   UNL     1      -5.785  -0.470   0.961  0.00  0.00    +0.006 A 
ATOM     17  C   UNL     1      -6.319  -1.221  -0.069  0.00  0.00    -0.018 A 
ATOM     18  C   UNL     1      -6.022  -0.904  -1.381  0.00  0.00    +0.006 A 
ATOM     19  C   UNL     1      -5.193   0.166  -1.663  0.00  0.00    +0.004 A 
BRANCH  14  21
ATOM     20  C   UNL     1      -4.356   3.362  -0.373  0.00  0.00    +0.012 C 
ATOM     21  C   UNL     1      -3.748   2.077  -0.940  0.00  0.00    +0.013 C 
ATOM     22  C   UNL     1      -2.377   1.838  -0.302  0.00  0.00    +0.012 C 
ENDBRANCH  14  21
ENDBRANCH   1  17
TORSDOF 2
