REMARK  Name = ZINC63272747
REMARK  8 active torsions:
REMARK  status: ('A' for Active; 'I' for Inactive)
REMARK    1  A    between atoms: C_1  and  C_2
REMARK    2  A    between atoms: C_3  and  C_30
REMARK    3  A    between atoms: N_6  and  C_19
REMARK    4  A    between atoms: C_10  and  N_11
REMARK    5  A    between atoms: N_11  and  C_12
REMARK    6  A    between atoms: C_16  and  O_18
REMARK    7  A    between atoms: C_19  and  C_20
REMARK    8  A    between atoms: C_20  and  C_21
REMARK                            x       y       z     vdW  Elec       q    Type
REMARK                         _______ _______ _______ _____ _____    ______ ____
ROOT
ATOM      1  C   UNL     1      -0.128   1.492   0.008  0.00  0.00    +0.046 C 
ATOM      2  C   UNL     1      -0.017  -0.011   0.002  0.00  0.00    -0.015 C 
ATOM      3  C   UNL     1       0.021  -0.713  -1.194  0.00  0.00    +0.118 C 
ATOM      4  C   UNL     1       0.130  -2.172  -1.173  0.00  0.00    +0.264 C 
ATOM      5  O   UNL     1       0.164  -2.788  -2.222  0.00  0.00    -0.269 OA
ATOM      6  N   UNL     1       0.193  -2.841  -0.008  0.00  0.00    -0.233 N 
ATOM      7  C   UNL     1       0.158  -2.197   1.172  0.00  0.00    +0.255 C 
ATOM      8  O   UNL     1       0.216  -2.830   2.209  0.00  0.00    -0.269 OA
ATOM      9  C   UNL     1       0.056  -0.732   1.215  0.00  0.00    +0.055 C 
ATOM     10  C   UNL     1       0.025  -0.063   2.435  0.00  0.00    +0.085 C 
ENDROOT
BRANCH  10  11
ATOM     11  N   UNL     1      -0.056  -0.761   3.583  0.00  0.00    -0.320 N 
ATOM     12  H   UNL     1      -0.043  -1.731   3.563  0.00  0.00    +0.152 HD
BRANCH  11  13
ATOM     13  C   UNL     1      -0.159  -0.089   4.803  0.00  0.00    +0.034 A 
ATOM     14  C   UNL     1      -0.184   1.301   4.832  0.00  0.00    +0.023 A 
ATOM     15  C   UNL     1      -0.286   1.965   6.039  0.00  0.00    +0.005 A 
ATOM     16  C   UNL     1      -0.364   1.251   7.220  0.00  0.00    +0.045 A 
ATOM     17  C   UNL     1      -0.341  -0.136   7.197  0.00  0.00    +0.119 A 
ATOM     18  C   UNL     1      -0.243  -0.807   5.988  0.00  0.00    +0.068 A 
BRANCH  17  19
ATOM     19  O   UNL     1      -0.417  -0.837   8.359  0.00  0.00    -0.507 OA
ATOM     20  H   UNL     1      -1.320  -1.054   8.629  0.00  0.00    +0.292 HD
ENDBRANCH  17  19
ENDBRANCH  11  13
ENDBRANCH  10  11
BRANCH   3  21
ATOM     21  C   UNL     1      -0.045  -0.013  -2.442  0.00  0.00    +0.105 C 
ATOM     22  N   UNL     1      -0.098   0.541  -3.432  0.00  0.00    -0.191 NA
ENDBRANCH   3  21
BRANCH   6  23
ATOM     23  C   UNL     1       0.301  -4.302  -0.025  0.00  0.00    +0.121 C 
BRANCH  23  24
ATOM     24  C   UNL     1       1.777  -4.704  -0.047  0.00  0.00    +0.052 C 
BRANCH  24  25
ATOM     25  C   UNL     1       1.888  -6.207  -0.064  0.00  0.00    -0.040 C 
ATOM     26  C   UNL     1       2.035  -6.999  -1.151  0.00  0.00    -0.001 A 
ATOM     27  C   UNL     1       2.129  -6.710  -2.586  0.00  0.00    +0.010 A 
ATOM     28  C   UNL     1       2.274  -7.737  -3.454  0.00  0.00    +0.001 A 
ATOM     29  C   UNL     1       2.336  -9.068  -3.018  0.00  0.00    +0.002 A 
ATOM     30  C   UNL     1       2.256  -9.412  -1.715  0.00  0.00    +0.026 A 
ATOM     31  C   UNL     1       2.103  -8.412  -0.715  0.00  0.00    +0.043 A 
ATOM     32  N   UNL     1       2.003  -8.491   0.590  0.00  0.00    -0.380 N 
ATOM     33  C   UNL     1       1.865  -7.134   1.131  0.00  0.00    +0.144 C 
ATOM     34  H   UNL     1       2.021  -9.309   1.111  0.00  0.00    +0.160 HD
ENDBRANCH  24  25
ENDBRANCH  23  24
ENDBRANCH   6  23
TORSDOF 7
