REMARK  Name = ZINC65530586
REMARK  10 active torsions:
REMARK  status: ('A' for Active; 'I' for Inactive)
REMARK    1  A    between atoms: C_1  and  C_2
REMARK    2  A    between atoms: C_4  and  C_12
REMARK    3  A    between atoms: N_8  and  C_9
REMARK    4  A    between atoms: C_9  and  C_10
REMARK    5  A    between atoms: C_13  and  C_27
REMARK    6  A    between atoms: N_16  and  C_17
REMARK    7  A    between atoms: C_17  and  C_18
REMARK    8  A    between atoms: C_21  and  C_24
REMARK    9  A    between atoms: C_24  and  O_25
REMARK   10  A    between atoms: O_25  and  C_26
REMARK                            x       y       z     vdW  Elec       q    Type
REMARK                         _______ _______ _______ _____ _____    ______ ____
ROOT
ATOM      1  C   UNL     1      -1.859  -1.661  -1.000  0.00  0.00    +0.050 A 
ATOM      2  C   UNL     1      -0.959  -2.548  -1.498  0.00  0.00    +0.067 A 
ATOM      3  N   UNL     1      -1.345  -2.866  -2.750  0.00  0.00    -0.346 N 
ATOM      4  C   UNL     1      -2.437  -2.216  -3.039  0.00  0.00    +0.174 A 
ATOM      5  N   UNL     1      -2.793  -1.460  -1.978  0.00  0.00    -0.332 N 
ATOM      6  H   UNL     1      -0.884  -3.482  -3.341  0.00  0.00    +0.167 HD
ENDROOT
BRANCH   1   9
ATOM      7  C   UNL     1      -1.165   1.353   0.856  0.00  0.00    +0.026 C 
ATOM      8  C   UNL     1      -0.656  -0.040   0.482  0.00  0.00    +0.080 C 
ATOM      9  C   UNL     1      -1.836  -1.026   0.366  0.00  0.00    +0.071 C 
ATOM     10  C   UNL     1      -1.561  -2.089   1.454  0.00  0.00    +0.110 C 
ATOM     11  N   UNL     1      -0.672  -1.382   2.413  0.00  0.00    -0.253 NA
ATOM     12  N   UNL     1       0.211  -0.573   1.558  0.00  0.00    -0.236 NA
ATOM     13  H   UNL     1      -1.206  -0.797   3.038  0.00  0.00    +0.141 HD
BRANCH  12  14
ATOM     14  C   UNL     1       0.832   0.517   2.323  0.00  0.00    +0.129 C 
BRANCH  14  15
ATOM     15  C   UNL     1       1.798  -0.060   3.325  0.00  0.00    -0.018 C 
ATOM     16  C   UNL     1       3.045   0.341   3.339  0.00  0.00    +0.005 C 
ENDBRANCH  14  15
ENDBRANCH  12  14
ENDBRANCH   1   9
BRANCH   2  17
ATOM     17  C   UNL     1       0.236  -3.072  -0.790  0.00  0.00    +0.000 A 
ATOM     18  C   UNL     1       0.415  -4.447  -0.645  0.00  0.00    +0.010 A 
ATOM     19  C   UNL     1       1.528  -4.929   0.014  0.00  0.00    +0.001 A 
ATOM     20  C   UNL     1       2.464  -4.051   0.530  0.00  0.00    +0.000 A 
ATOM     21  C   UNL     1       2.290  -2.685   0.389  0.00  0.00    +0.001 A 
ATOM     22  C   UNL     1       1.185  -2.192  -0.273  0.00  0.00    +0.010 A 
ENDBRANCH   2  17
BRANCH   5  23
ATOM     23  C   UNL     1      -3.964  -0.584  -1.891  0.00  0.00    +0.155 C 
BRANCH  23  24
ATOM     24  C   UNL     1      -3.561   0.844  -2.264  0.00  0.00    +0.172 C 
ATOM     25  C   UNL     1      -4.741   1.790  -2.123  0.00  0.00    +0.030 C 
ATOM     26  C   UNL     1      -4.927   2.258  -3.359  0.00  0.00    +0.087 C 
ATOM     27  N   UNL     1      -4.026   1.726  -4.215  0.00  0.00    -0.156 NA
ATOM     28  N   UNL     1      -3.229   0.935  -3.696  0.00  0.00    -0.178 NA
BRANCH  26  29
ATOM     29  C   UNL     1      -5.997   3.246  -3.747  0.00  0.00    +0.216 C 
BRANCH  29  30
ATOM     30  O   UNL     1      -5.386   4.465  -4.175  0.00  0.00    -0.377 OA
ATOM     31  C   UNL     1      -6.317   5.476  -4.568  0.00  0.00    +0.194 C 
ENDBRANCH  29  30
ENDBRANCH  26  29
ENDBRANCH  23  24
ENDBRANCH   5  23
TORSDOF 8
