REMARK  Name = ZINC35040457
REMARK  10 active torsions:
REMARK  status: ('A' for Active; 'I' for Inactive)
REMARK    1  A    between atoms: C_1  and  C_2
REMARK    2  A    between atoms: C_2  and  C_4
REMARK    3  A    between atoms: C_2  and  N_22
REMARK    4  A    between atoms: N_14  and  C_15
REMARK    5  A    between atoms: N_22  and  C_23
REMARK    6  A    between atoms: C_23  and  C_24
REMARK    7  A    between atoms: C_24  and  N_25
REMARK    8  A    between atoms: N_25  and  C_26
REMARK    9  A    between atoms: N_25  and  C_27
REMARK   10  A    between atoms: C_28  and  C_30
REMARK                            x       y       z     vdW  Elec       q    Type
REMARK                         _______ _______ _______ _____ _____    ______ ____
ROOT
ATOM      1  C   UNL     1       0.577  -0.957   1.855  0.00  0.00    +0.138 A 
ATOM      2  N   UNL     1      -0.310  -1.545   2.599  0.00  0.00    -0.231 NA
ATOM      3  C   UNL     1      -0.002  -2.024   3.829  0.00  0.00    +0.078 A 
ATOM      4  C   UNL     1      -0.956  -2.656   4.630  0.00  0.00    +0.028 A 
ATOM      5  C   UNL     1      -0.599  -3.128   5.872  0.00  0.00    +0.002 A 
ATOM      6  C   UNL     1       0.700  -2.984   6.343  0.00  0.00    +0.001 A 
ATOM      7  C   UNL     1       1.659  -2.363   5.572  0.00  0.00    +0.015 A 
ATOM      8  C   UNL     1       1.319  -1.879   4.311  0.00  0.00    +0.065 A 
ATOM      9  C   UNL     1       2.300  -1.210   3.444  0.00  0.00    +0.266 A 
ATOM     10  O   UNL     1       3.454  -1.053   3.799  0.00  0.00    -0.267 OA
ATOM     11  N   UNL     1       1.871  -0.779   2.235  0.00  0.00    -0.263 N 
ENDROOT
BRANCH  11  12
ATOM     12  C   UNL     1       2.768  -0.139   1.368  0.00  0.00    +0.051 A 
ATOM     13  C   UNL     1       3.207   1.148   1.649  0.00  0.00    +0.029 A 
ATOM     14  C   UNL     1       4.091   1.777   0.795  0.00  0.00    +0.040 A 
ATOM     15  C   UNL     1       4.538   1.125  -0.342  0.00  0.00    +0.124 A 
ATOM     16  C   UNL     1       4.101  -0.158  -0.625  0.00  0.00    +0.040 A 
ATOM     17  C   UNL     1       3.222  -0.792   0.231  0.00  0.00    +0.029 A 
ATOM     18  F   UNL     1       5.403   1.743  -1.177  0.00  0.00    -0.205 F 
ENDBRANCH  11  12
BRANCH   1  20
ATOM     19  C   UNL     1       0.066   1.074   0.528  0.00  0.00    +0.036 C 
ATOM     20  C   UNL     1       0.154  -0.453   0.499  0.00  0.00    +0.139 C 
BRANCH  20  21
ATOM     21  N   UNL     1      -1.157  -1.011   0.158  0.00  0.00    -0.293 N 
ATOM     22  C   UNL     1      -2.240  -0.686   0.892  0.00  0.00    +0.219 C 
ATOM     23  O   UNL     1      -2.145   0.132   1.783  0.00  0.00    -0.275 OA
BRANCH  22  24
ATOM     24  C   UNL     1      -3.567  -1.339   0.607  0.00  0.00    +0.075 C 
ATOM     25  C   UNL     1      -4.314  -0.559  -0.496  0.00  0.00    +0.013 C 
ATOM     26  C   UNL     1      -5.800  -0.621  -0.065  0.00  0.00    +0.001 C 
ATOM     27  C   UNL     1      -5.716  -0.482   1.475  0.00  0.00    +0.001 C 
ATOM     28  C   UNL     1      -4.459  -1.290   1.860  0.00  0.00    +0.013 C 
ENDBRANCH  22  24
BRANCH  21  29
ATOM     29  C   UNL     1      -1.291  -1.923  -0.980  0.00  0.00    +0.090 C 
BRANCH  29  30
ATOM     30  C   UNL     1      -1.148  -3.367  -0.497  0.00  0.00    -0.060 C 
BRANCH  30  31
ATOM     31  N   UNL     1      -1.282  -4.282  -1.639  0.00  0.00    +0.377 N 
ATOM     32  C   UNL     1      -1.027  -5.659  -1.196  0.00  0.00    -0.097 C 
ATOM     33  C   UNL     1      -2.643  -4.188  -2.184  0.00  0.00    -0.097 C 
ATOM     34  H   UNL     1      -0.616  -4.029  -2.352  0.00  0.00    -0.083 HD
ENDBRANCH  30  31
ENDBRANCH  29  30
ENDBRANCH  21  29
ENDBRANCH  20  21
ENDBRANCH   1  20
TORSDOF 7
