REMARK  Name = ZINC40167781
REMARK  4 active torsions:
REMARK  status: ('A' for Active; 'I' for Inactive)
REMARK    1  A    between atoms: C_13  and  N_17
REMARK    2  A    between atoms: N_17  and  C_18
REMARK    3  A    between atoms: C_18  and  N_20
REMARK    4  A    between atoms: N_20  and  C_21
REMARK                            x       y       z     vdW  Elec       q    Type
REMARK                         _______ _______ _______ _____ _____    ______ ____
ROOT
ATOM      1  C   UNL     1       0.161   0.998  -2.235  0.00  0.00    +0.001 A 
ATOM      2  C   UNL     1       1.342   1.718  -2.255  0.00  0.00    +0.001 A 
ATOM      3  C   UNL     1       2.525   1.134  -1.838  0.00  0.00    +0.012 A 
ATOM      4  C   UNL     1       2.529  -0.185  -1.394  0.00  0.00    +0.033 A 
ATOM      5  C   UNL     1       1.329  -0.917  -1.373  0.00  0.00    +0.033 A 
ATOM      6  C   UNL     1       0.147  -0.314  -1.797  0.00  0.00    +0.012 A 
ATOM      7  C   UNL     1       1.324  -2.318  -0.904  0.00  0.00    +0.195 C 
ATOM      8  O   UNL     1       0.287  -2.951  -0.886  0.00  0.00    -0.287 OA
ATOM      9  C   UNL     1       2.584  -2.948  -0.458  0.00  0.00    +0.035 A 
ATOM     10  C   UNL     1       2.590  -4.267  -0.016  0.00  0.00    +0.012 A 
ATOM     11  C   UNL     1       3.775  -4.854   0.402  0.00  0.00    +0.003 A 
ATOM     12  C   UNL     1       4.955  -4.143   0.384  0.00  0.00    +0.024 A 
ATOM     13  C   UNL     1       4.973  -2.820  -0.055  0.00  0.00    +0.044 A 
ATOM     14  C   UNL     1       3.785  -2.214  -0.480  0.00  0.00    +0.054 A 
ATOM     15  C   UNL     1       3.789  -0.817  -0.947  0.00  0.00    +0.196 C 
ATOM     16  O   UNL     1       4.827  -0.184  -0.965  0.00  0.00    -0.287 OA
ENDROOT
BRANCH  13  17
ATOM     17  N   UNL     1       6.166  -2.105  -0.071  0.00  0.00    -0.296 N 
ATOM     18  H   UNL     1       6.195  -1.203   0.283  0.00  0.00    +0.154 HD
BRANCH  17  19
ATOM     19  C   UNL     1       7.281  -2.667  -0.578  0.00  0.00    +0.135 C 
ATOM     20  S   UNL     1       7.200  -4.203  -1.330  0.00  0.00    -0.019 S 
BRANCH  19  21
ATOM     21  N   UNL     1       8.460  -2.019  -0.494  0.00  0.00    -0.320 N 
ATOM     22  H   UNL     1       8.505  -1.148  -0.069  0.00  0.00    +0.148 HD
BRANCH  21  23
ATOM     23  C   UNL     1       9.672  -2.629  -1.046  0.00  0.00    +0.112 C 
ATOM     24  C   UNL     1       9.733  -2.324  -2.560  0.00  0.00    +0.189 C 
ATOM     25  S   UNL     1      10.898  -0.892  -2.592  0.00  0.00    -0.028 S 
ATOM     26  O   UNL     1      11.691  -0.958  -3.769  0.00  0.00    -0.174 OA
ATOM     27  O   UNL     1      10.188   0.300  -2.286  0.00  0.00    -0.174 OA
ATOM     28  C   UNL     1      11.921  -1.387  -1.137  0.00  0.00    +0.187 C 
ATOM     29  C   UNL     1      10.873  -2.112  -0.268  0.00  0.00    +0.123 C 
ATOM     30 CL   UNL     1      11.674  -3.506   0.548  0.00  0.00    -0.118 Cl
ENDBRANCH  21  23
ENDBRANCH  19  21
ENDBRANCH  17  19
ENDBRANCH  13  17
TORSDOF 4
