REMARK  Name = ZINC34777267
REMARK  7 active torsions:
REMARK  status: ('A' for Active; 'I' for Inactive)
REMARK    1  A    between atoms: C_1  and  C_2
REMARK    2  A    between atoms: C_2  and  N_3
REMARK    3  A    between atoms: C_7  and  C_21
REMARK    4  A    between atoms: C_8  and  C_18
REMARK    5  A    between atoms: N_11  and  C_14
REMARK    6  A    between atoms: C_14  and  C_15
REMARK    7  A    between atoms: C_18  and  C_20
REMARK                            x       y       z     vdW  Elec       q    Type
REMARK                         _______ _______ _______ _____ _____    ______ ____
ROOT
ATOM      1  N   UNL     1       0.711  -0.489   1.189  0.00  0.00    -0.261 N 
ATOM      2  C   UNL     1       2.039  -0.684   1.123  0.00  0.00    +0.265 A 
ATOM      3  O   UNL     1       2.645  -0.459   0.092  0.00  0.00    -0.267 OA
ATOM      4  C   UNL     1       2.759  -1.175   2.325  0.00  0.00    +0.074 A 
ATOM      5  C   UNL     1       4.122  -1.442   2.474  0.00  0.00    -0.018 A 
ATOM      6  C   UNL     1       4.537  -1.895   3.711  0.00  0.00    +0.060 A 
ATOM      7  S   UNL     1       3.017  -1.939   4.638  0.00  0.00    -0.067 S 
ATOM      8  C   UNL     1       1.962  -1.401   3.459  0.00  0.00    +0.098 A 
ATOM      9  N   UNL     1       0.616  -1.174   3.431  0.00  0.00    -0.278 N 
ATOM     10  C   UNL     1       0.016  -0.723   2.314  0.00  0.00    +0.333 A 
ATOM     11  O   UNL     1      -1.183  -0.526   2.323  0.00  0.00    -0.246 OA
ATOM     12  C   UNL     1       5.094  -1.245   1.339  0.00  0.00    +0.046 C 
ENDROOT
BRANCH   6  13
ATOM     13  C   UNL     1       5.838  -2.238   4.133  0.00  0.00    +0.167 C 
ATOM     14  O   UNL     1       6.771  -2.148   3.361  0.00  0.00    -0.292 OA
ATOM     15  C   UNL     1       6.071  -2.715   5.544  0.00  0.00    +0.092 C 
ENDBRANCH   6  13
BRANCH   1  17
ATOM     16  C   UNL     1      -0.019   1.526   0.010  0.00  0.00    +0.027 C 
ATOM     17  C   UNL     1       0.002  -0.004   0.002  0.00  0.00    +0.126 C 
ENDBRANCH   1  17
BRANCH   9  18
ATOM     18  C   UNL     1      -0.184  -1.420   4.633  0.00  0.00    +0.222 C 
BRANCH  18  19
ATOM     19  C   UNL     1      -0.242  -0.164   5.464  0.00  0.00    +0.230 C 
ATOM     20  O   UNL     1       0.329   0.838   5.089  0.00  0.00    -0.274 OA
ATOM     21  N   UNL     1      -0.928  -0.155   6.624  0.00  0.00    -0.328 N 
ATOM     22  H   UNL     1      -1.385  -0.956   6.924  0.00  0.00    +0.145 HD
ATOM     23  H   UNL     1      -0.965   0.654   7.158  0.00  0.00    +0.145 HD
ENDBRANCH  18  19
ENDBRANCH   9  18
TORSDOF 4
