REMARK  Name = ZINC39636047
REMARK  9 active torsions:
REMARK  status: ('A' for Active; 'I' for Inactive)
REMARK    1  A    between atoms: C_1  and  C_2
REMARK    2  A    between atoms: C_4  and  C_11
REMARK    3  A    between atoms: N_5  and  C_7
REMARK    4  A    between atoms: C_7  and  C_8
REMARK    5  A    between atoms: C_7  and  C_9
REMARK    6  A    between atoms: C_7  and  C_10
REMARK    7  A    between atoms: C_15  and  C_24
REMARK    8  A    between atoms: N_26  and  C_27
REMARK    9  A    between atoms: C_33  and  C_35
REMARK                            x       y       z     vdW  Elec       q    Type
REMARK                         _______ _______ _______ _____ _____    ______ ____
ROOT
ATOM      1  C   UNL     1      -0.700  -3.967  -1.724  0.00  0.00    +0.265 C 
ATOM      2  O   UNL     1      -0.838  -4.077  -2.927  0.00  0.00    -0.268 OA
ATOM      3  N   UNL     1      -0.559  -5.067  -0.959  0.00  0.00    -0.295 N 
ATOM      4  C   UNL     1      -0.514  -5.145   0.520  0.00  0.00    +0.121 C 
ATOM      5  C   UNL     1      -1.317  -6.419   0.869  0.00  0.00    +0.100 C 
ATOM      6  C   UNL     1      -1.246  -7.287  -0.399  0.00  0.00    -0.004 C 
ATOM      7  C   UNL     1      -0.420  -6.474  -1.406  0.00  0.00    +0.115 C 
ATOM      8  C   UNL     1      -2.647  -7.532  -0.950  0.00  0.00    -0.010 C 
ATOM      9  C   UNL     1      -2.555  -8.444  -2.177  0.00  0.00    -0.082 C 
ATOM     10  N   UNL     1      -1.926  -9.715  -1.798  0.00  0.00    +0.379 N 
ATOM     11  C   UNL     1      -0.547  -9.480  -1.355  0.00  0.00    -0.082 C 
ATOM     12  C   UNL     1      -0.554  -8.612  -0.094  0.00  0.00    -0.010 C 
ATOM     13  H   UNL     1      -2.451 -10.138  -1.047  0.00  0.00    -0.086 HD
ATOM     14  H   UNL     1      -1.922 -10.337  -2.592  0.00  0.00    -0.086 HD
ENDROOT
BRANCH   1  18
ATOM     15  C   UNL     1      -0.291  -0.121   1.556  0.00  0.00    +0.067 C 
ATOM     16  C   UNL     1      -0.513  -0.944   0.314  0.00  0.00    +0.061 A 
ATOM     17  C   UNL     1      -0.390  -2.332   0.214  0.00  0.00    +0.057 A 
ATOM     18  C   UNL     1      -0.688  -2.633  -1.103  0.00  0.00    +0.124 A 
ATOM     19  N   UNL     1      -0.967  -1.442  -1.713  0.00  0.00    -0.254 N 
ATOM     20  N   UNL     1      -0.861  -0.487  -0.862  0.00  0.00    -0.175 NA
BRANCH  19  21
ATOM     21  C   UNL     1      -1.337  -1.281  -3.121  0.00  0.00    +0.056 C 
ATOM     22  C   UNL     1      -2.547  -2.164  -3.435  0.00  0.00    +0.036 C 
ATOM     23  C   UNL     1      -1.689   0.183  -3.392  0.00  0.00    +0.036 C 
ATOM     24  C   UNL     1      -0.160  -1.695  -4.008  0.00  0.00    +0.036 C 
ENDBRANCH  19  21
ENDBRANCH   1  18
BRANCH   5  25
ATOM     25  C   UNL     1      -2.747  -6.066   1.187  0.00  0.00    +0.218 C 
ATOM     26  O   UNL     1      -3.273  -5.118   0.644  0.00  0.00    -0.275 OA
ATOM     27  N   UNL     1      -3.442  -6.806   2.075  0.00  0.00    -0.312 N 
ATOM     28  H   UNL     1      -3.003  -7.524   2.556  0.00  0.00    +0.149 HD
BRANCH  27  29
ATOM     29  C   UNL     1      -4.860  -6.524   2.312  0.00  0.00    +0.076 C 
ATOM     30  C   UNL     1      -4.991  -5.404   3.346  0.00  0.00    +0.022 C 
ATOM     31  C   UNL     1      -4.332  -5.840   4.656  0.00  0.00    +0.002 C 
ATOM     32  C   UNL     1      -5.022  -7.102   5.179  0.00  0.00    +0.000 C 
ATOM     33  C   UNL     1      -4.890  -8.221   4.145  0.00  0.00    +0.005 C 
ATOM     34  C   UNL     1      -5.550  -7.785   2.835  0.00  0.00    +0.006 C 
ATOM     35  C   UNL     1      -5.418  -8.905   1.800  0.00  0.00    +0.009 C 
ENDBRANCH  27  29
ENDBRANCH   5  25
TORSDOF 4
