REMARK  Name = ZINC46071208
REMARK  7 active torsions:
REMARK  status: ('A' for Active; 'I' for Inactive)
REMARK    1  A    between atoms: C_1  and  C_2
REMARK    2  A    between atoms: C_2  and  C_3
REMARK    3  A    between atoms: C_2  and  C_4
REMARK    4  A    between atoms: N_6  and  C_7
REMARK    5  A    between atoms: C_11  and  N_13
REMARK    6  A    between atoms: N_13  and  S_14
REMARK    7  A    between atoms: S_14  and  C_17
REMARK                            x       y       z     vdW  Elec       q    Type
REMARK                         _______ _______ _______ _____ _____    ______ ____
ROOT
ATOM      1  N   UNL     1      -4.878  -5.429  -0.138  0.00  0.00    -0.216 N 
ATOM      2  H   UNL     1      -4.441  -6.018   0.498  0.00  0.00    +0.174 HD
ENDROOT
BRANCH   1   7
ATOM      3  C   UNL     1      -2.969  -2.285  -0.072  0.00  0.00    +0.035 A 
ATOM      4  C   UNL     1      -3.998  -1.355  -0.159  0.00  0.00    +0.023 A 
ATOM      5  C   UNL     1      -5.310  -1.780  -0.237  0.00  0.00    +0.004 A 
ATOM      6  C   UNL     1      -5.604  -3.130  -0.230  0.00  0.00    +0.024 A 
ATOM      7  C   UNL     1      -4.580  -4.065  -0.144  0.00  0.00    +0.050 A 
ATOM      8  C   UNL     1      -3.260  -3.641  -0.071  0.00  0.00    +0.047 A 
BRANCH   3  11
ATOM      9  C   UNL     1      -0.664  -2.565  -0.591  0.00  0.00    +0.220 C 
ATOM     10  O   UNL     1      -0.924  -3.621  -1.127  0.00  0.00    -0.275 OA
ATOM     11  N   UNL     1      -1.640  -1.854   0.008  0.00  0.00    -0.285 N 
ATOM     12  H   UNL     1      -1.421  -1.044   0.494  0.00  0.00    +0.155 HD
BRANCH   9  14
ATOM     13  C   UNL     1       1.655  -3.037  -1.333  0.00  0.00    +0.017 C 
ATOM     14  C   UNL     1       0.751  -2.047  -0.594  0.00  0.00    +0.069 C 
ATOM     15  C   UNL     1       0.797  -0.690  -1.300  0.00  0.00    +0.017 C 
ENDBRANCH   9  14
ENDBRANCH   3  11
ENDBRANCH   1   7
BRANCH   1  16
ATOM     16  S   UNL     1      -5.976  -6.042  -1.215  0.00  0.00    +0.072 S 
ATOM     17  O   UNL     1      -6.040  -7.442  -0.978  0.00  0.00    -0.150 OA
ATOM     18  O   UNL     1      -7.122  -5.205  -1.147  0.00  0.00    -0.150 OA
BRANCH  16  19
ATOM     19  C   UNL     1      -5.296  -5.835  -2.827  0.00  0.00    +0.109 A 
ATOM     20  C   UNL     1      -5.546  -4.675  -3.537  0.00  0.00    +0.030 A 
ATOM     21  C   UNL     1      -5.015  -4.509  -4.801  0.00  0.00    +0.025 A 
ATOM     22  C   UNL     1      -4.228  -5.509  -5.358  0.00  0.00    +0.037 A 
ATOM     23  C   UNL     1      -3.979  -6.672  -4.642  0.00  0.00    -0.024 A 
ATOM     24  C   UNL     1      -4.509  -6.830  -3.377  0.00  0.00    +0.034 A 
ATOM     25  C   UNL     1      -3.125  -7.756  -5.246  0.00  0.00    +0.046 C 
ATOM     26  C   UNL     1      -3.349  -7.800  -6.758  0.00  0.00    +0.101 C 
ATOM     27  C   UNL     1      -3.249  -6.412  -7.332  0.00  0.00    +0.218 C 
ATOM     28  O   UNL     1      -2.769  -6.253  -8.434  0.00  0.00    -0.275 OA
ATOM     29  N   UNL     1      -3.687  -5.347  -6.637  0.00  0.00    -0.285 N 
ATOM     30  H   UNL     1      -3.626  -4.460  -7.026  0.00  0.00    +0.155 HD
ENDBRANCH  16  19
ENDBRANCH   1  16
TORSDOF 5
