REMARK  Name = ZINC22616800
REMARK  6 active torsions:
REMARK  status: ('A' for Active; 'I' for Inactive)
REMARK    1  A    between atoms: C_1  and  N_2
REMARK    2  A    between atoms: N_2  and  C_3
REMARK    3  A    between atoms: C_3  and  C_4
REMARK    4  A    between atoms: C_11  and  C_13
REMARK    5  A    between atoms: C_13  and  S_14
REMARK    6  A    between atoms: S_14  and  C_15
REMARK                            x       y       z     vdW  Elec       q    Type
REMARK                         _______ _______ _______ _____ _____    ______ ____
ROOT
ATOM      1  C   UNL     1       4.763   5.859   0.362  0.00  0.00    +0.173 C 
ENDROOT
BRANCH   1   4
ATOM      2  C   UNL     1       7.522   6.056  -0.252  0.00  0.00    +0.132 C 
ATOM      3  N   UNL     1       6.753   7.279  -0.011  0.00  0.00    -0.299 N 
ATOM      4  C   UNL     1       5.440   7.203   0.282  0.00  0.00    +0.226 C 
ATOM      5  O   UNL     1       4.803   8.216   0.481  0.00  0.00    -0.275 OA
BRANCH   3   6
ATOM      6  C   UNL     1       7.412   8.586  -0.089  0.00  0.00    +0.143 C 
BRANCH   6   7
ATOM      7  C   UNL     1       7.809   9.031   1.295  0.00  0.00    -0.016 A 
ATOM      8  C   UNL     1       6.960   9.835   2.033  0.00  0.00    +0.006 A 
ATOM      9  C   UNL     1       7.323  10.240   3.304  0.00  0.00    +0.000 A 
ATOM     10  C   UNL     1       8.539   9.849   3.833  0.00  0.00    +0.001 A 
ATOM     11  C   UNL     1       9.390   9.050   3.094  0.00  0.00    +0.015 A 
ATOM     12  C   UNL     1       9.025   8.641   1.824  0.00  0.00    +0.023 A 
ATOM     13 BR   UNL     1      10.190   7.548   0.812  0.00  0.00    -0.050 Br
ENDBRANCH   6   7
ENDBRANCH   3   6
ENDBRANCH   1   4
BRANCH   1  14
ATOM     14  S   UNL     1       3.010   6.088   0.771  0.00  0.00    -0.076 S 
BRANCH  14  15
ATOM     15  C   UNL     1       2.367   4.449   0.827  0.00  0.00    +0.196 A 
ATOM     16  N   UNL     1       3.041   3.341   0.615  0.00  0.00    -0.122 NA
ATOM     17  N   UNL     1       2.268   2.319   0.735  0.00  0.00    -0.127 NA
ATOM     18  C   UNL     1       1.046   2.719   1.033  0.00  0.00    +0.180 A 
ATOM     19  N   UNL     1       1.079   4.095   1.100  0.00  0.00    -0.275 N 
ATOM     20  C   UNL     1      -0.054   4.802   1.395  0.00  0.00    +0.115 A 
ATOM     21  C   UNL     1      -1.219   4.162   1.625  0.00  0.00    +0.059 A 
ATOM     22  C   UNL     1      -1.286   2.757   1.558  0.00  0.00    +0.045 A 
ATOM     23  C   UNL     1      -0.167   2.039   1.272  0.00  0.00    +0.087 A 
ATOM     24 CL   UNL     1      -0.232   0.306   1.193  0.00  0.00    -0.080 Cl
ATOM     25 CL   UNL     1      -2.647   5.076   1.998  0.00  0.00    -0.082 Cl
ENDBRANCH  14  15
ENDBRANCH   1  14
TORSDOF 5
