REMARK  Name = ZINC65726913
REMARK  5 active torsions:
REMARK  status: ('A' for Active; 'I' for Inactive)
REMARK    1  A    between atoms: C_1  and  O_2
REMARK    2  A    between atoms: O_2  and  C_3
REMARK    3  A    between atoms: C_3  and  C_5
REMARK    4  A    between atoms: C_14  and  C_16
REMARK    5  A    between atoms: C_16  and  N_17
REMARK                            x       y       z     vdW  Elec       q    Type
REMARK                         _______ _______ _______ _____ _____    ______ ____
ROOT
ATOM      1  C   UNL     1       0.657  -2.104  -1.120  0.00  0.00    +0.194 C 
ATOM      2  C   UNL     1       1.502  -2.664   0.037  0.00  0.00    +0.071 C 
ATOM      3  C   UNL     1       2.647  -3.382  -0.641  0.00  0.00    -0.024 A 
ATOM      4  C   UNL     1       3.720  -4.076  -0.115  0.00  0.00    +0.005 A 
ATOM      5  C   UNL     1       4.652  -4.655  -0.955  0.00  0.00    +0.000 A 
ATOM      6  C   UNL     1       4.509  -4.538  -2.326  0.00  0.00    +0.002 A 
ATOM      7  C   UNL     1       3.440  -3.846  -2.855  0.00  0.00    +0.024 A 
ATOM      8  C   UNL     1       2.495  -3.259  -2.013  0.00  0.00    +0.040 A 
ATOM      9  N   UNL     1       1.351  -2.523  -2.340  0.00  0.00    -0.256 N 
ATOM     10  C   UNL     1       0.947  -2.242  -3.595  0.00  0.00    +0.238 C 
ATOM     11  O   UNL     1      -0.063  -1.595  -3.775  0.00  0.00    -0.273 OA
ENDROOT
BRANCH   1  12
ATOM     12  C   UNL     1       0.598  -0.600  -1.043  0.00  0.00    +0.328 C 
ATOM     13  O   UNL     1       1.088   0.070  -1.921  0.00  0.00    -0.249 OA
BRANCH  12  15
ATOM     14  C   UNL     1      -0.017   1.425   0.010  0.00  0.00    +0.280 C 
ATOM     15  O   UNL     1       0.002  -0.004   0.002  0.00  0.00    -0.467 OA
ENDBRANCH  12  15
ENDBRANCH   1  12
BRANCH  10  16
ATOM     16  C   UNL     1       1.749  -2.731  -4.773  0.00  0.00    +0.214 C 
BRANCH  16  17
ATOM     17  N   UNL     1       1.105  -2.298  -6.016  0.00  0.00    -0.215 N 
ATOM     18  C   UNL     1       0.168  -3.012  -6.674  0.00  0.00    +0.247 C 
ATOM     19  O   UNL     1      -0.286  -4.093  -6.364  0.00  0.00    -0.273 OA
ATOM     20  C   UNL     1      -0.195  -2.179  -7.877  0.00  0.00    +0.113 C 
ATOM     21  C   UNL     1      -1.685  -1.813  -7.866  0.00  0.00    +0.035 C 
ATOM     22  C   UNL     1      -2.086  -1.825  -9.364  0.00  0.00    +0.003 C 
ATOM     23  C   UNL     1      -1.265  -3.012  -9.931  0.00  0.00    +0.003 C 
ATOM     24  C   UNL     1       0.083  -2.934  -9.180  0.00  0.00    +0.035 C 
ATOM     25  N   UNL     1       0.644  -0.985  -7.762  0.00  0.00    -0.285 N 
ATOM     26  C   UNL     1       1.370  -1.141  -6.637  0.00  0.00    +0.310 C 
ATOM     27  O   UNL     1       2.175  -0.326  -6.233  0.00  0.00    -0.252 OA
ATOM     28  H   UNL     1       0.670  -0.231  -8.372  0.00  0.00    +0.151 HD
ENDBRANCH  16  17
ENDBRANCH  10  16
TORSDOF 4
