REMARK  Name = ZINC39467488
REMARK  7 active torsions:
REMARK  status: ('A' for Active; 'I' for Inactive)
REMARK    1  A    between atoms: C_1  and  C_2
REMARK    2  A    between atoms: C_2  and  O_3
REMARK    3  A    between atoms: O_3  and  C_4
REMARK    4  A    between atoms: P_13  and  C_24
REMARK    5  A    between atoms: C_21  and  S_22
REMARK    6  A    between atoms: S_22  and  C_23
REMARK    7  A    between atoms: C_29  and  O_30
REMARK                            x       y       z     vdW  Elec       q    Type
REMARK                         _______ _______ _______ _____ _____    ______ ____
ROOT
ATOM      1  C   UNL     1       0.777  -1.810  -1.336  0.00  0.00    +0.130 C 
ATOM      2  C   UNL     1       0.264  -2.637  -0.425  0.00  0.00    +0.024 C 
ATOM      3  C   UNL     1       0.380  -4.130  -0.623  0.00  0.00    +0.019 C 
ATOM      4  C   UNL     1       1.774  -4.577  -0.181  0.00  0.00    -0.002 C 
ATOM      5  C   UNL     1       1.985  -6.064  -0.486  0.00  0.00    -0.020 C 
ATOM      6  C   UNL     1       3.401  -6.424  -0.018  0.00  0.00    +0.157 C 
ATOM      7  O   UNL     1       3.637  -7.827  -0.233  0.00  0.00    -0.316 OA
ATOM      8  P   UNL     1       3.306  -8.432  -1.706  0.00  0.00    +0.291 P 
ATOM      9  O   UNL     1       3.078  -9.892  -1.622  0.00  0.00    -0.269 OA
ATOM     10  N   UNL     1       1.927  -7.665  -2.189  0.00  0.00    -0.288 NA
ATOM     11  N   UNL     1       1.819  -6.316  -1.919  0.00  0.00    +0.398 N 
ATOM     12  C   UNL     1       0.468  -5.926  -2.354  0.00  0.00    -0.046 C 
ATOM     13  C   UNL     1       0.200  -4.445  -2.112  0.00  0.00    +0.006 C 
ATOM     14  C   UNL     1       1.166  -3.620  -2.919  0.00  0.00    -0.006 C 
ATOM     15  C   UNL     1       1.456  -2.364  -2.529  0.00  0.00    +0.045 C 
ATOM     16  H   UNL     1       1.220  -8.145  -2.648  0.00  0.00    +0.111 HD
ATOM     17  H   UNL     1       2.517  -5.804  -2.437  0.00  0.00    -0.055 HD
ENDROOT
BRANCH   8  18
ATOM     18  C   UNL     1       4.665  -8.074  -2.854  0.00  0.00    +0.091 A 
ATOM     19  C   UNL     1       4.657  -6.905  -3.591  0.00  0.00    +0.018 A 
ATOM     20  C   UNL     1       5.692  -6.631  -4.466  0.00  0.00    +0.001 A 
ATOM     21  C   UNL     1       6.737  -7.526  -4.605  0.00  0.00    +0.004 A 
ATOM     22  C   UNL     1       6.750  -8.696  -3.870  0.00  0.00    +0.046 A 
ATOM     23  C   UNL     1       5.715  -8.970  -2.988  0.00  0.00    +0.131 A 
BRANCH  23  24
ATOM     24  O   UNL     1       5.728 -10.117  -2.260  0.00  0.00    -0.506 OA
ATOM     25  H   UNL     1       5.295 -10.864  -2.695  0.00  0.00    +0.292 HD
ENDBRANCH  23  24
ENDBRANCH   8  18
BRANCH  15  26
ATOM     26  S   UNL     1       2.603  -1.382  -3.437  0.00  0.00    -0.125 S 
ATOM     27  C   UNL     1       3.154  -2.475  -4.775  0.00  0.00    +0.090 C 
ENDBRANCH  15  26
BRANCH   1  28
ATOM     28  O   UNL     1       0.671  -0.465  -1.174  0.00  0.00    -0.491 OA
BRANCH  28  30
ATOM     29  C   UNL     1      -0.019   1.526   0.010  0.00  0.00    +0.048 C 
ATOM     30  C   UNL     1       0.002  -0.004   0.002  0.00  0.00    +0.226 C 
ENDBRANCH  28  30
ENDBRANCH   1  28
TORSDOF 5
