REMARK  Name = ZINC01186424
REMARK  8 active torsions:
REMARK  status: ('A' for Active; 'I' for Inactive)
REMARK    1  A    between atoms: C_1  and  C_2
REMARK    2  A    between atoms: C_2  and  O_3
REMARK    3  A    between atoms: O_3  and  C_4
REMARK    4  A    between atoms: C_6  and  C_12
REMARK    5  A    between atoms: C_9  and  O_10
REMARK    6  A    between atoms: N_19  and  C_22
REMARK    7  A    between atoms: C_25  and  C_29
REMARK    8  A    between atoms: C_26  and  C_28
REMARK                            x       y       z     vdW  Elec       q    Type
REMARK                         _______ _______ _______ _____ _____    ______ ____
ROOT
ATOM      1  C   UNL     1      -2.630   4.408   0.781  0.00  0.00    +0.026 C 
ATOM      2  C   UNL     1      -3.761   3.764   0.316  0.00  0.00    +0.100 C 
ATOM      3  C   UNL     1      -3.723   2.353  -0.115  0.00  0.00    +0.257 C 
ATOM      4  O   UNL     1      -2.688   1.714  -0.072  0.00  0.00    -0.270 OA
ATOM      5  N   UNL     1      -4.867   1.790  -0.556  0.00  0.00    -0.235 N 
ATOM      6  C   UNL     1      -6.013   2.482  -0.608  0.00  0.00    +0.320 C 
ATOM      7  O   UNL     1      -7.008   1.915  -1.016  0.00  0.00    -0.251 OA
ATOM      8  N   UNL     1      -6.123   3.764  -0.234  0.00  0.00    -0.190 N 
ATOM      9  C   UNL     1      -5.063   4.455   0.234  0.00  0.00    +0.263 C 
ATOM     10  O   UNL     1      -5.176   5.618   0.575  0.00  0.00    -0.269 OA
ATOM     11  H   UNL     1      -4.859   0.864  -0.843  0.00  0.00    +0.159 HD
ENDROOT
BRANCH   8  12
ATOM     12  C   UNL     1      -7.368   4.400  -0.326  0.00  0.00    +0.046 A 
ATOM     13  C   UNL     1      -8.300   4.256   0.694  0.00  0.00    +0.024 A 
ATOM     14  C   UNL     1      -9.526   4.884   0.600  0.00  0.00    +0.005 A 
ATOM     15  C   UNL     1      -9.827   5.656  -0.508  0.00  0.00    -0.047 A 
ATOM     16  C   UNL     1      -8.901   5.801  -1.524  0.00  0.00    -0.046 A 
ATOM     17  C   UNL     1      -7.671   5.180  -1.434  0.00  0.00    +0.027 A 
ATOM     18  C   UNL     1      -9.233   6.643  -2.729  0.00  0.00    +0.044 C 
ATOM     19  C   UNL     1     -11.166   6.340  -0.606  0.00  0.00    +0.044 C 
ENDBRANCH   8  12
BRANCH   1  22
ATOM     20  C   UNL     1       0.846   3.220   1.512  0.00  0.00    +0.164 A 
ATOM     21  C   UNL     1      -0.392   3.807   1.673  0.00  0.00    +0.057 A 
ATOM     22  C   UNL     1      -1.316   3.787   0.617  0.00  0.00    -0.019 A 
ATOM     23  C   UNL     1      -0.973   3.174  -0.597  0.00  0.00    +0.031 A 
ATOM     24  C   UNL     1       0.263   2.586  -0.745  0.00  0.00    +0.087 A 
ATOM     25  C   UNL     1       1.177   2.607   0.303  0.00  0.00    +0.177 A 
ATOM     26 CL   UNL     1       0.684   1.822  -2.246  0.00  0.00    -0.080 Cl
BRANCH  25  27
ATOM     27  O   UNL     1       2.396   2.029   0.149  0.00  0.00    -0.502 OA
ATOM     28  H   UNL     1       3.074   2.627  -0.194  0.00  0.00    +0.292 HD
ENDBRANCH  25  27
BRANCH  20  29
ATOM     29  O   UNL     1       1.744   3.237   2.533  0.00  0.00    -0.489 OA
BRANCH  29  31
ATOM     30  C   UNL     1       2.472   3.802   4.768  0.00  0.00    +0.048 C 
ATOM     31  C   UNL     1       1.339   3.882   3.743  0.00  0.00    +0.226 C 
ENDBRANCH  29  31
ENDBRANCH  20  29
ENDBRANCH   1  22
TORSDOF 5
