REMARK  Name = ZINC64799257
REMARK  6 active torsions:
REMARK  status: ('A' for Active; 'I' for Inactive)
REMARK    1  A    between atoms: C_1  and  C_2
REMARK    2  A    between atoms: C_2  and  C_3
REMARK    3  A    between atoms: C_2  and  C_4
REMARK    4  A    between atoms: C_2  and  N_22
REMARK    5  A    between atoms: C_10  and  C_12
REMARK    6  A    between atoms: N_25  and  C_26
REMARK                            x       y       z     vdW  Elec       q    Type
REMARK                         _______ _______ _______ _____ _____    ______ ____
ROOT
ATOM      1  C   UNL     1      -1.233  -0.639   0.088  0.00  0.00    +0.239 C 
ATOM      2  O   UNL     1      -0.048  -0.404   0.198  0.00  0.00    -0.273 OA
ATOM      3  N   UNL     1      -1.812  -0.625  -1.129  0.00  0.00    -0.299 N 
ATOM      4  C   UNL     1      -1.035  -0.271  -2.325  0.00  0.00    +0.108 C 
ATOM      5  C   UNL     1      -1.190  -1.388  -3.362  0.00  0.00    +0.020 C 
ATOM      6  C   UNL     1      -2.678  -1.628  -3.628  0.00  0.00    +0.014 C 
ATOM      7  C   UNL     1      -3.364  -2.072  -2.334  0.00  0.00    +0.074 C 
ATOM      8  C   UNL     1      -3.232  -0.969  -1.286  0.00  0.00    +0.119 C 
ENDROOT
BRANCH   7   9
ATOM      9  C   UNL     1      -4.822  -2.340  -2.604  0.00  0.00    +0.138 A 
ATOM     10  N   UNL     1      -5.697  -1.483  -3.060  0.00  0.00    -0.134 NA
ATOM     11  N   UNL     1      -6.845  -2.055  -3.177  0.00  0.00    -0.134 NA
ATOM     12  C   UNL     1      -6.751  -3.300  -2.806  0.00  0.00    +0.133 A 
ATOM     13  N   UNL     1      -5.469  -3.513  -2.427  0.00  0.00    -0.314 N 
ATOM     14  C   UNL     1      -4.910  -4.763  -1.912  0.00  0.00    +0.125 C 
ATOM     15  C   UNL     1      -5.697  -5.946  -2.483  0.00  0.00    +0.022 C 
ATOM     16  C   UNL     1      -6.874  -6.272  -1.565  0.00  0.00    +0.002 C 
ATOM     17  C   UNL     1      -7.825  -5.083  -1.472  0.00  0.00    +0.008 C 
ATOM     18  C   UNL     1      -7.847  -4.334  -2.802  0.00  0.00    +0.076 C 
ENDBRANCH   7   9
BRANCH   1  20
ATOM     19  C   UNL     1      -1.133  -1.107   2.521  0.00  0.00    +0.041 C 
ATOM     20  C   UNL     1      -2.057  -0.947   1.311  0.00  0.00    +0.107 C 
ATOM     21  C   UNL     1      -3.038   0.199   1.567  0.00  0.00    +0.041 C 
BRANCH  20  22
ATOM     22  N   UNL     1      -2.803  -2.189   1.098  0.00  0.00    -0.286 N 
ATOM     23  C   UNL     1      -3.618  -2.660   2.062  0.00  0.00    +0.300 C 
ATOM     24  O   UNL     1      -3.734  -2.054   3.110  0.00  0.00    -0.253 OA
ATOM     25  N   UNL     1      -4.304  -3.804   1.866  0.00  0.00    -0.302 N 
ATOM     26  C   UNL     1      -5.190  -4.315   2.914  0.00  0.00    +0.129 C 
ATOM     27  H   UNL     1      -2.710  -2.674   0.262  0.00  0.00    +0.151 HD
ATOM     28  H   UNL     1      -4.211  -4.288   1.030  0.00  0.00    +0.150 HD
ENDBRANCH  20  22
ENDBRANCH   1  20
TORSDOF 3
