REMARK  Name = ZINC09486703
REMARK  9 active torsions:
REMARK  status: ('A' for Active; 'I' for Inactive)
REMARK    1  A    between atoms: C_1  and  C_2
REMARK    2  A    between atoms: C_2  and  C_3
REMARK    3  A    between atoms: C_3  and  C_5
REMARK    4  A    between atoms: C_3  and  N_48
REMARK    5  A    between atoms: C_16  and  C_26
REMARK    6  A    between atoms: C_17  and  C_21
REMARK    7  A    between atoms: C_21  and  C_22
REMARK    8  A    between atoms: C_22  and  O_24
REMARK    9  A    between atoms: O_24  and  C_25
REMARK                            x       y       z     vdW  Elec       q    Type
REMARK                         _______ _______ _______ _____ _____    ______ ____
ROOT
ATOM      1  C   UNL     1      -6.046  -2.303  -1.530  0.00  0.00    -0.030 C 
ATOM      2  C   UNL     1      -5.598  -1.783  -0.189  0.00  0.00    +0.022 A 
ATOM      3  C   UNL     1      -4.461  -0.989  -0.112  0.00  0.00    +0.144 A 
ATOM      4  C   UNL     1      -4.041  -0.497   1.137  0.00  0.00    +0.023 A 
ATOM      5  C   UNL     1      -4.768  -0.811   2.292  0.00  0.00    +0.035 A 
ATOM      6  C   UNL     1      -5.881  -1.593   2.199  0.00  0.00    +0.083 A 
ATOM      7  C   UNL     1      -6.305  -2.084   0.962  0.00  0.00    +0.141 A 
ATOM      8  O   UNL     1      -7.418  -2.862   0.908  0.00  0.00    -0.508 OA
ATOM      9  C   UNL     1      -8.027  -3.043  -0.372  0.00  0.00    +0.158 C 
ATOM     10 CL   UNL     1      -6.781  -1.982   3.632  0.00  0.00    -0.080 Cl
ATOM     11  C   UNL     1      -2.842   0.340   1.204  0.00  0.00    -0.029 A 
ATOM     12  C   UNL     1      -2.182   0.608   0.048  0.00  0.00    +0.051 A 
ATOM     13  C   UNL     1      -2.662   0.086  -1.171  0.00  0.00    +0.341 A 
ATOM     14  O   UNL     1      -2.062   0.338  -2.201  0.00  0.00    -0.245 OA
ATOM     15  O   UNL     1      -3.758  -0.686  -1.224  0.00  0.00    -0.422 OA
ATOM     16  C   UNL     1      -2.354   0.890   2.520  0.00  0.00    +0.045 C 
ATOM     17  N   UNL     1      -6.970  -3.434  -1.326  0.00  0.00    +0.407 N 
ATOM     18  H   UNL     1      -6.448  -4.230  -0.941  0.00  0.00    -0.076 HD
ENDROOT
BRANCH  17  19
ATOM     19  C   UNL     1      -7.575  -3.835  -2.618  0.00  0.00    -0.067 C 
ATOM     20  C   UNL     1      -8.457  -2.710  -3.161  0.00  0.00    -0.013 C 
BRANCH  19  22
ATOM     21  C   UNL     1      -7.522  -6.244  -1.958  0.00  0.00    +0.002 C 
ATOM     22  C   UNL     1      -8.423  -5.090  -2.403  0.00  0.00    -0.019 C 
ENDBRANCH  19  22
ENDBRANCH  17  19
BRANCH  12  23
ATOM     23  C   UNL     1      -0.943   1.466   0.066  0.00  0.00    +0.163 C 
BRANCH  23  24
ATOM     24  C   UNL     1       0.270   0.594   0.261  0.00  0.00    +0.311 C 
ATOM     25  O   UNL     1       0.142  -0.603   0.373  0.00  0.00    -0.250 OA
BRANCH  24  26
ATOM     26  O   UNL     1       1.493   1.144   0.304  0.00  0.00    -0.468 OA
ATOM     27  C   UNL     1       2.616   0.242   0.488  0.00  0.00    +0.280 C 
ENDBRANCH  24  26
ENDBRANCH  23  24
ENDBRANCH  12  23
TORSDOF 5
