REMARK  Name = ZINC40216449
REMARK  3 active torsions:
REMARK  status: ('A' for Active; 'I' for Inactive)
REMARK    1  A    between atoms: C_6  and  C_7
REMARK    2  A    between atoms: N_9  and  C_10
REMARK    3  A    between atoms: C_10  and  C_16
REMARK                            x       y       z     vdW  Elec       q    Type
REMARK                         _______ _______ _______ _____ _____    ______ ____
ROOT
ATOM      1  C   UNL     1      -1.266  -0.762   0.011  0.00  0.00    +0.245 C 
ATOM      2  O   UNL     1      -2.328  -0.171   0.024  0.00  0.00    -0.270 OA
ATOM      3  N   UNL     1      -1.245  -2.110   0.003  0.00  0.00    -0.293 N 
ATOM      4  H   UNL     1      -0.397  -2.582  -0.008  0.00  0.00    +0.151 HD
ENDROOT
BRANCH   1  10
ATOM      5  C   UNL     1      -0.017   1.392   0.010  0.00  0.00    +0.016 A 
ATOM      6  C   UNL     1       1.169   2.096   0.002  0.00  0.00    +0.042 A 
ATOM      7  C   UNL     1       2.379   1.421  -0.013  0.00  0.00    +0.158 A 
ATOM      8  C   UNL     1       2.405   0.033  -0.022  0.00  0.00    +0.159 A 
ATOM      9  C   UNL     1       1.224  -0.681  -0.014  0.00  0.00    +0.054 A 
ATOM     10  C   UNL     1       0.002  -0.004   0.002  0.00  0.00    +0.040 A 
ATOM     11  F   UNL     1       3.587  -0.620  -0.038  0.00  0.00    -0.202 F 
ATOM     12  F   UNL     1       3.537   2.116  -0.021  0.00  0.00    -0.202 F 
ENDBRANCH   1  10
BRANCH   3  13
ATOM     13  C   UNL     1      -2.502  -2.862   0.012  0.00  0.00    +0.121 C 
ATOM     14  C   UNL     1      -3.297  -2.512   1.271  0.00  0.00    +0.041 C 
ATOM     15  C   UNL     1      -4.610  -3.297   1.280  0.00  0.00    +0.003 C 
ATOM     16  C   UNL     1      -4.308  -4.797   1.268  0.00  0.00    +0.000 C 
ATOM     17  C   UNL     1      -3.512  -5.147   0.009  0.00  0.00    +0.003 C 
ATOM     18  C   UNL     1      -2.199  -4.362   0.001  0.00  0.00    +0.041 C 
BRANCH  13  19
ATOM     19  C   UNL     1      -3.291  -2.512  -1.181  0.00  0.00    +0.088 C 
ATOM     20  N   UNL     1      -3.900  -2.242  -2.101  0.00  0.00    -0.194 NA
ENDBRANCH  13  19
ENDBRANCH   3  13
TORSDOF 3
