REMARK  Name = ZINC63806915
REMARK  3 active torsions:
REMARK  status: ('A' for Active; 'I' for Inactive)
REMARK    1  A    between atoms: C_1  and  C_2
REMARK    2  A    between atoms: C_4  and  C_15
REMARK    3  A    between atoms: C_18  and  O_22
REMARK                            x       y       z     vdW  Elec       q    Type
REMARK                         _______ _______ _______ _____ _____    ______ ____
ROOT
ATOM      1  C   UNL     1      -0.067   1.534  -0.195  0.00  0.00    +0.067 C 
ATOM      2  C   UNL     1      -0.028   0.027  -0.203  0.00  0.00    +0.064 C 
ATOM      3  C   UNL     1      -1.091  -0.763  -0.017  0.00  0.00    +0.014 C 
ATOM      4  C   UNL     1      -2.494  -0.339   0.210  0.00  0.00    +0.108 C 
ATOM      5  S   UNL     1      -3.558  -0.735  -1.192  0.00  0.00    -0.139 S 
ATOM      6  C   UNL     1      -3.649  -2.533  -1.239  0.00  0.00    +0.165 C 
ATOM      7  C   UNL     1      -2.329  -3.153  -1.528  0.00  0.00    +0.225 C 
ATOM      8  O   UNL     1      -2.409  -4.057  -2.332  0.00  0.00    -0.275 OA
ATOM      9  N   UNL     1      -1.130  -2.960  -1.130  0.00  0.00    -0.288 N 
ATOM     10  C   UNL     1      -0.529  -2.158  -0.106  0.00  0.00    +0.244 C 
ATOM     11  N   UNL     1       0.903  -1.933  -0.367  0.00  0.00    -0.160 NA
ATOM     12  N   UNL     1       1.085  -0.713  -0.406  0.00  0.00    -0.157 NA
ATOM     13  H   UNL     1      -0.480  -3.473  -1.636  0.00  0.00    +0.151 HD
ENDROOT
BRANCH   4  14
ATOM     14  C   UNL     1      -2.524   1.151   0.440  0.00  0.00    -0.029 A 
ATOM     15  C   UNL     1      -2.684   2.011  -0.630  0.00  0.00    +0.009 A 
ATOM     16  C   UNL     1      -2.711   3.377  -0.423  0.00  0.00    +0.047 A 
ATOM     17  C   UNL     1      -2.578   3.885   0.861  0.00  0.00    +0.135 A 
ATOM     18  C   UNL     1      -2.418   3.019   1.935  0.00  0.00    +0.083 A 
ATOM     19  C   UNL     1      -2.397   1.653   1.722  0.00  0.00    +0.028 A 
ATOM     20 CL   UNL     1      -2.252   3.651   3.543  0.00  0.00    -0.080 Cl
BRANCH  17  21
ATOM     21  O   UNL     1      -2.605   5.228   1.068  0.00  0.00    -0.505 OA
ATOM     22  H   UNL     1      -3.489   5.584   1.231  0.00  0.00    +0.292 HD
ENDBRANCH  17  21
ENDBRANCH   4  14
TORSDOF 2
