REMARK  Name = ZINC20364076
REMARK  6 active torsions:
REMARK  status: ('A' for Active; 'I' for Inactive)
REMARK    1  A    between atoms: C_4  and  C_7
REMARK    2  A    between atoms: C_8  and  C_9
REMARK    3  A    between atoms: C_9  and  N_10
REMARK    4  A    between atoms: N_13  and  C_16
REMARK    5  A    between atoms: C_16  and  C_17
REMARK    6  A    between atoms: C_19  and  C_22
REMARK                            x       y       z     vdW  Elec       q    Type
REMARK                         _______ _______ _______ _____ _____    ______ ____
ROOT
ATOM      1  N   UNL     1       0.139   9.763   2.744  0.00  0.00    +0.384 N 
ATOM      2  C   UNL     1      -0.101  10.751   1.683  0.00  0.00    -0.063 C 
ATOM      3  C   UNL     1      -1.144  10.203   0.706  0.00  0.00    +0.066 C 
ATOM      4  N   UNL     1      -0.664   8.934   0.142  0.00  0.00    -0.297 NA
ATOM      5  C   UNL     1      -0.425   7.946   1.203  0.00  0.00    +0.066 C 
ATOM      6  C   UNL     1       0.619   8.494   2.180  0.00  0.00    -0.063 C 
ATOM      7  H   UNL     1      -0.818   9.569   3.251  0.00  0.00    -0.081 HD
ENDROOT
BRANCH   1   8
ATOM      8  C   UNL     1       1.080  10.284   3.745  0.00  0.00    -0.051 C 
BRANCH   8  10
ATOM      9  C   UNL     1       2.775   8.892   4.848  0.00  0.00    +0.002 C 
ATOM     10  C   UNL     1       1.491   9.171   4.675  0.00  0.00    -0.045 C 
BRANCH   9  14
ATOM     11  C   UNL     1       3.933   5.756   7.468  0.00  0.00    +0.000 A 
ATOM     12  C   UNL     1       4.899   6.484   6.796  0.00  0.00    +0.001 A 
ATOM     13  C   UNL     1       4.529   7.504   5.944  0.00  0.00    +0.008 A 
ATOM     14  C   UNL     1       3.178   7.801   5.759  0.00  0.00    -0.025 A 
ATOM     15  C   UNL     1       2.209   7.066   6.444  0.00  0.00    +0.008 A 
ATOM     16  C   UNL     1       2.592   6.045   7.289  0.00  0.00    +0.001 A 
ENDBRANCH   9  14
ENDBRANCH   8  10
ENDBRANCH   1   8
BRANCH   4  17
ATOM     17  C   UNL     1      -1.606   8.414  -0.859  0.00  0.00    +0.180 C 
BRANCH  17  18
ATOM     18  C   UNL     1      -0.974   7.255  -1.588  0.00  0.00    +0.210 A 
ATOM     19  N   UNL     1      -1.060   6.008  -1.235  0.00  0.00    -0.208 NA
ATOM     20  C   UNL     1      -0.362   5.258  -2.130  0.00  0.00    +0.164 A 
ATOM     21  C   UNL     1       0.149   6.113  -3.057  0.00  0.00    +0.230 A 
ATOM     22  O   UNL     1      -0.240   7.349  -2.705  0.00  0.00    -0.446 OA
BRANCH  20  23
ATOM     23  C   UNL     1      -0.196   3.793  -2.104  0.00  0.00    +0.268 C 
ATOM     24  O   UNL     1       0.331   3.224  -3.041  0.00  0.00    -0.268 OA
ATOM     25  N   UNL     1      -0.628   3.084  -1.042  0.00  0.00    -0.295 N 
ATOM     26  C   UNL     1      -1.102   3.787   0.151  0.00  0.00    +0.119 C 
ATOM     27  C   UNL     1      -2.600   3.521   0.340  0.00  0.00    +0.088 C 
ATOM     28  S   UNL     1      -2.867   1.726   0.446  0.00  0.00    -0.158 S 
ATOM     29  C   UNL     1      -2.056   1.098  -1.056  0.00  0.00    +0.088 C 
ATOM     30  C   UNL     1      -0.616   1.622  -1.095  0.00  0.00    +0.119 C 
ENDBRANCH  20  23
ENDBRANCH  17  18
ENDBRANCH   4  17
TORSDOF 6
