REMARK  Name = ZINC46907082
REMARK  9 active torsions:
REMARK  status: ('A' for Active; 'I' for Inactive)
REMARK    1  A    between atoms: C_1  and  C_2
REMARK    2  A    between atoms: C_2  and  C_3
REMARK    3  A    between atoms: C_2  and  N_4
REMARK    4  A    between atoms: C_5  and  C_7
REMARK    5  A    between atoms: C_7  and  N_8
REMARK    6  A    between atoms: N_16  and  C_17
REMARK    7  A    between atoms: C_24  and  C_28
REMARK    8  A    between atoms: C_25  and  C_26
REMARK    9  A    between atoms: C_25  and  C_27
REMARK                            x       y       z     vdW  Elec       q    Type
REMARK                         _______ _______ _______ _____ _____    ______ ____
ROOT
ATOM      1  N   UNL     1      -2.913  -3.721  -1.078  0.00  0.00    -0.291 NA
ATOM      2  C   UNL     1      -2.450  -3.806  -2.469  0.00  0.00    +0.104 C 
ATOM      3  C   UNL     1      -2.425  -5.275  -2.907  0.00  0.00    +0.124 C 
ATOM      4  N   UNL     1      -3.752  -5.859  -2.656  0.00  0.00    -0.283 N 
ATOM      5  C   UNL     1      -4.344  -5.694  -1.320  0.00  0.00    +0.124 C 
ATOM      6  C   UNL     1      -4.293  -4.209  -0.945  0.00  0.00    +0.104 C 
ATOM      7  C   UNL     1      -4.407  -6.528  -3.626  0.00  0.00    +0.303 C 
ATOM      8  O   UNL     1      -3.945  -6.578  -4.749  0.00  0.00    -0.253 OA
ATOM      9  N   UNL     1      -5.575  -7.142  -3.350  0.00  0.00    -0.296 N 
ATOM     10  H   UNL     1      -5.981  -7.040  -2.475  0.00  0.00    +0.151 HD
ENDROOT
BRANCH   9  11
ATOM     11  C   UNL     1      -6.230  -7.963  -4.371  0.00  0.00    +0.081 C 
ATOM     12  C   UNL     1      -7.165  -9.001  -3.709  0.00  0.00    +0.027 C 
ATOM     13  C   UNL     1      -8.585  -8.654  -4.250  0.00  0.00    -0.003 C 
ATOM     14  C   UNL     1      -8.956  -7.314  -3.545  0.00  0.00    +0.005 C 
ATOM     15  C   UNL     1      -8.024  -6.263  -4.191  0.00  0.00    +0.009 C 
ATOM     16  C   UNL     1      -7.171  -7.086  -5.252  0.00  0.00    -0.008 C 
ATOM     17  C   UNL     1      -8.231  -8.157  -5.696  0.00  0.00    -0.025 C 
ATOM     18  C   UNL     1      -9.434  -7.519  -6.395  0.00  0.00    +0.012 C 
ATOM     19  C   UNL     1      -7.603  -9.264  -6.546  0.00  0.00    +0.012 C 
ATOM     20  C   UNL     1      -6.491  -6.281  -6.361  0.00  0.00    +0.013 C 
ENDBRANCH   9  11
BRANCH   1  21
ATOM     21  C   UNL     1      -2.788  -2.350  -0.564  0.00  0.00    +0.180 C 
BRANCH  21  23
ATOM     22  N   UNL     1      -0.973  -0.753  -0.042  0.00  0.00    -0.312 N 
ATOM     23  C   UNL     1      -1.331  -1.974  -0.488  0.00  0.00    +0.227 C 
ATOM     24  O   UNL     1      -0.481  -2.769  -0.828  0.00  0.00    -0.274 OA
ATOM     25  H   UNL     1      -1.653  -0.117   0.230  0.00  0.00    +0.149 HD
BRANCH  22  27
ATOM     26  C   UNL     1       0.582   1.134  -0.050  0.00  0.00    +0.027 C 
ATOM     27  C   UNL     1       0.444  -0.387   0.032  0.00  0.00    +0.067 C 
ATOM     28  C   UNL     1       1.029  -0.882   1.356  0.00  0.00    +0.027 C 
ENDBRANCH  22  27
ENDBRANCH  21  23
ENDBRANCH   1  21
TORSDOF 4
