REMARK  Name = ZINC06576817
REMARK  5 active torsions:
REMARK  status: ('A' for Active; 'I' for Inactive)
REMARK    1  A    between atoms: C_1  and  C_2
REMARK    2  A    between atoms: C_2  and  C_4
REMARK    3  A    between atoms: C_7  and  N_10
REMARK    4  A    between atoms: C_20  and  C_26
REMARK    5  A    between atoms: C_26  and  C_28
REMARK                            x       y       z     vdW  Elec       q    Type
REMARK                         _______ _______ _______ _____ _____    ______ ____
ROOT
ATOM      1  N   UNL     1      -1.374  -0.395  -4.210  0.00  0.00    -0.210 N 
ATOM      2  C   UNL     1      -0.388   0.150  -3.426  0.00  0.00    +0.228 C 
ATOM      3  O   UNL     1       0.787   0.276  -3.697  0.00  0.00    -0.275 OA
ATOM      4  C   UNL     1      -1.066   0.545  -2.193  0.00  0.00    +0.073 C 
ATOM      5  C   UNL     1      -0.813   1.624  -1.197  0.00  0.00    -0.055 C 
ATOM      6  C   UNL     1      -0.013   1.086   0.008  0.00  0.00    -0.016 C 
ATOM      7  C   UNL     1      -0.793   1.613   1.239  0.00  0.00    -0.020 C 
ATOM      8  C   UNL     1      -2.257   1.547   0.726  0.00  0.00    -0.077 C 
ATOM      9  C   UNL     1      -3.184   1.226  -1.499  0.00  0.00    +0.017 C 
ATOM     10  C   UNL     1      -2.448   1.015  -2.800  0.00  0.00    +0.080 C 
ATOM     11  C   UNL     1      -2.632  -0.101  -3.753  0.00  0.00    +0.229 C 
ATOM     12  O   UNL     1      -3.672  -0.640  -4.063  0.00  0.00    -0.275 OA
ATOM     13  N   UNL     1      -2.168   1.961  -0.683  0.00  0.00    +0.389 N 
ATOM     14  H   UNL     1      -2.329   2.972  -0.758  0.00  0.00    -0.080 HD
ENDROOT
BRANCH   1  18
ATOM     15  C   UNL     1      -0.625  -2.690  -7.609  0.00  0.00    +0.017 A 
ATOM     16  C   UNL     1      -1.942  -2.437  -7.209  0.00  0.00    +0.013 A 
ATOM     17  C   UNL     1      -2.185  -1.679  -6.086  0.00  0.00    +0.024 A 
ATOM     18  C   UNL     1      -1.123  -1.164  -5.349  0.00  0.00    +0.044 A 
ATOM     19  C   UNL     1       0.188  -1.409  -5.746  0.00  0.00    +0.024 A 
ATOM     20  C   UNL     1       0.441  -2.171  -6.864  0.00  0.00    +0.013 A 
BRANCH  15  22
ATOM     21  C   UNL     1       1.058  -3.769  -9.236  0.00  0.00    +0.091 C 
ATOM     22  C   UNL     1      -0.361  -3.498  -8.807  0.00  0.00    +0.160 C 
ATOM     23  O   UNL     1      -1.285  -3.947  -9.452  0.00  0.00    -0.292 OA
ENDBRANCH  15  22
ENDBRANCH   1  18
BRANCH   9  24
ATOM     24  C   UNL     1      -4.425   2.053  -1.714  0.00  0.00    +0.151 C 
ATOM     25  O   UNL     1      -4.417   3.237  -1.453  0.00  0.00    -0.294 OA
BRANCH  24  26
ATOM     26  C   UNL     1      -5.647   1.424  -2.240  0.00  0.00    +0.016 A 
ATOM     27  C   UNL     1      -5.658   0.059  -2.547  0.00  0.00    +0.013 A 
ATOM     28  C   UNL     1      -6.807  -0.524  -3.036  0.00  0.00    +0.020 A 
ATOM     29  C   UNL     1      -7.947   0.240  -3.232  0.00  0.00    +0.041 A 
ATOM     30  C   UNL     1      -7.941   1.593  -2.934  0.00  0.00    +0.020 A 
ATOM     31  C   UNL     1      -6.801   2.189  -2.440  0.00  0.00    +0.013 A 
ATOM     32 CL   UNL     1      -9.388  -0.502  -3.853  0.00  0.00    -0.084 Cl
ENDBRANCH  24  26
ENDBRANCH   9  24
TORSDOF 4
