REMARK  Name = ZINC34811943
REMARK  4 active torsions:
REMARK  status: ('A' for Active; 'I' for Inactive)
REMARK    1  A    between atoms: C_1  and  C_2
REMARK    2  A    between atoms: C_18  and  C_20
REMARK    3  A    between atoms: C_20  and  C_21
REMARK    4  A    between atoms: C_20  and  C_22
REMARK                            x       y       z     vdW  Elec       q    Type
REMARK                         _______ _______ _______ _____ _____    ______ ____
ROOT
ATOM      1  C   UNL     1      -0.002   0.375  -0.588  0.00  0.00    +0.044 C 
ATOM      2  C   UNL     1       0.269  -1.103  -0.477  0.00  0.00    -0.037 A 
ATOM      3  C   UNL     1       0.400  -1.873  -1.615  0.00  0.00    +0.004 A 
ATOM      4  C   UNL     1       0.650  -3.232  -1.519  0.00  0.00    +0.002 A 
ATOM      5  C   UNL     1       0.774  -3.839  -0.284  0.00  0.00    +0.024 A 
ATOM      6  C   UNL     1       0.646  -3.082   0.867  0.00  0.00    +0.041 A 
ATOM      7  C   UNL     1       0.394  -1.701   0.774  0.00  0.00    +0.060 A 
ATOM      8  C   UNL     1       0.260  -0.927   2.021  0.00  0.00    +0.248 C 
ATOM      9  O   UNL     1      -0.197   0.200   1.999  0.00  0.00    -0.270 OA
ATOM     10  N   UNL     1       0.648  -1.482   3.188  0.00  0.00    -0.290 N 
ATOM     11  C   UNL     1       1.276  -2.803   3.230  0.00  0.00    +0.102 C 
ATOM     12  N   UNL     1       0.764  -3.642   2.134  0.00  0.00    -0.323 N 
ATOM     13  C   UNL     1       0.949  -3.477   4.565  0.00  0.00    +0.064 C 
ATOM     14  C   UNL     1       1.448  -2.595   5.713  0.00  0.00    +0.111 C 
ATOM     15  N   UNL     1       2.878  -2.321   5.512  0.00  0.00    -0.301 N 
ATOM     16  C   UNL     1       3.316  -1.760   4.227  0.00  0.00    +0.111 C 
ATOM     17  C   UNL     1       2.794  -2.651   3.096  0.00  0.00    +0.064 C 
ATOM     18  C   UNL     1       3.770  -2.580   6.489  0.00  0.00    +0.218 C 
ATOM     19  O   UNL     1       4.931  -2.258   6.350  0.00  0.00    -0.275 OA
ATOM     20  H   UNL     1       0.509  -0.995   4.015  0.00  0.00    +0.151 HD
ATOM     21  H   UNL     1       0.522  -4.569   2.288  0.00  0.00    +0.148 HD
ENDROOT
BRANCH  18  22
ATOM     22  C   UNL     1       3.325  -3.270   7.753  0.00  0.00    +0.069 C 
ATOM     23  C   UNL     1       4.548  -3.598   8.612  0.00  0.00    +0.017 C 
ATOM     24  C   UNL     1       2.386  -2.349   8.533  0.00  0.00    +0.017 C 
ENDBRANCH  18  22
TORSDOF 1
