REMARK  Name = ZINC44211411
REMARK  5 active torsions:
REMARK  status: ('A' for Active; 'I' for Inactive)
REMARK    1  A    between atoms: C_1  and  C_2
REMARK    2  A    between atoms: C_4  and  C_22
REMARK    3  A    between atoms: C_6  and  O_8
REMARK    4  A    between atoms: O_8  and  C_9
REMARK    5  A    between atoms: C_15  and  O_17
REMARK                            x       y       z     vdW  Elec       q    Type
REMARK                         _______ _______ _______ _____ _____    ______ ____
ROOT
ATOM      1  C   UNL     1       0.157  -2.008   3.560  0.00  0.00    +0.207 C 
ATOM      2  C   UNL     1      -0.446  -2.797   4.724  0.00  0.00    +0.112 C 
ATOM      3  C   UNL     1      -0.327  -1.977   6.010  0.00  0.00    +0.174 C 
ATOM      4  C   UNL     1       1.145  -1.679   6.301  0.00  0.00    +0.068 C 
ATOM      5  C   UNL     1       1.746  -0.893   5.134  0.00  0.00    +0.040 C 
ATOM      6  C   UNL     1       1.631  -1.717   3.850  0.00  0.00    +0.155 C 
ATOM      7  O   UNL     1      -1.043  -0.740   5.855  0.00  0.00    -0.346 OA
ATOM      8  C   UNL     1      -2.346  -0.992   6.433  0.00  0.00    +0.191 C 
ATOM      9  C   UNL     1      -1.990  -1.922   7.620  0.00  0.00    +0.191 C 
ATOM     10  O   UNL     1      -0.897  -2.708   7.102  0.00  0.00    -0.346 OA
ENDROOT
BRANCH   6  11
ATOM     11  O   UNL     1       2.195  -0.984   2.761  0.00  0.00    -0.388 OA
ATOM     12  H   UNL     1       3.130  -0.764   2.878  0.00  0.00    +0.210 HD
ENDBRANCH   6  11
BRANCH   1  13
ATOM     13  O   UNL     1       0.051  -2.775   2.359  0.00  0.00    -0.486 OA
BRANCH  13  19
ATOM     14  C   UNL     1      -0.154   1.504   0.020  0.00  0.00    +0.044 C 
ATOM     15  C   UNL     1      -0.092  -0.002   0.008  0.00  0.00    -0.047 A 
ATOM     16  C   UNL     1      -0.079  -0.684  -1.195  0.00  0.00    +0.007 A 
ATOM     17  C   UNL     1      -0.022  -2.065  -1.209  0.00  0.00    -0.047 A 
ATOM     18  C   UNL     1       0.021  -2.768  -0.020  0.00  0.00    +0.049 A 
ATOM     19  C   UNL     1       0.008  -2.086   1.188  0.00  0.00    +0.122 A 
ATOM     20  C   UNL     1      -0.043  -0.700   1.199  0.00  0.00    +0.049 A 
ATOM     21  C   UNL     1      -0.008  -2.805  -2.522  0.00  0.00    +0.044 C 
ENDBRANCH  13  19
ENDBRANCH   1  13
TORSDOF 3
