REMARK  Name = ZINC43767042
REMARK  3 active torsions:
REMARK  status: ('A' for Active; 'I' for Inactive)
REMARK    1  A    between atoms: C_5  and  N_9
REMARK    2  A    between atoms: N_9  and  S_10
REMARK    3  A    between atoms: S_10  and  N_13
REMARK                            x       y       z     vdW  Elec       q    Type
REMARK                         _______ _______ _______ _____ _____    ______ ____
ROOT
ATOM      1  N   UNL     1       4.364  -0.725  -0.846  0.00  0.00    -0.177 NA
ATOM      2  H   UNL     1       4.450  -1.168  -1.705  0.00  0.00    +0.149 HD
ENDROOT
BRANCH   1   7
ATOM      3  C   UNL     1      -0.149   1.153   0.131  0.00  0.00    +0.000 C 
ATOM      4  C   UNL     1       1.236   1.800   0.075  0.00  0.00    +0.000 C 
ATOM      5  C   UNL     1       1.788   1.703  -1.348  0.00  0.00    +0.002 C 
ATOM      6  C   UNL     1       2.268   0.274  -1.612  0.00  0.00    +0.020 C 
ATOM      7  C   UNL     1       3.058  -0.231  -0.404  0.00  0.00    +0.078 C 
ATOM      8  C   UNL     1       2.285  -1.365   0.273  0.00  0.00    +0.020 C 
ATOM      9  C   UNL     1       1.121  -0.781   1.075  0.00  0.00    +0.002 C 
ATOM     10  C   UNL     1      -0.001  -0.370   0.120  0.00  0.00    +0.000 C 
ENDBRANCH   1   7
BRANCH   1  11
ATOM     11  S   UNL     1       5.694  -0.529   0.121  0.00  0.00    +0.097 S 
ATOM     12  O   UNL     1       5.317  -0.957   1.423  0.00  0.00    -0.141 OA
ATOM     13  O   UNL     1       6.792  -1.098  -0.579  0.00  0.00    -0.141 OA
BRANCH  11  14
ATOM     14  N   UNL     1       5.989   1.097   0.224  0.00  0.00    -0.162 NA
ATOM     15  C   UNL     1       6.762   1.794  -0.817  0.00  0.00    +0.138 C 
ATOM     16  C   UNL     1       5.968   3.026  -1.265  0.00  0.00    +0.177 C 
ATOM     17  O   UNL     1       5.610   3.798  -0.116  0.00  0.00    -0.377 OA
ATOM     18  C   UNL     1       4.755   3.116   0.804  0.00  0.00    +0.177 C 
ATOM     19  C   UNL     1       5.482   1.889   1.355  0.00  0.00    +0.138 C 
ENDBRANCH  11  14
ENDBRANCH   1  11
TORSDOF 3
