REMARK  Name = ZINC20339466
REMARK  5 active torsions:
REMARK  status: ('A' for Active; 'I' for Inactive)
REMARK    1  A    between atoms: C_1  and  C_2
REMARK    2  A    between atoms: C_2  and  C_3
REMARK    3  A    between atoms: C_2  and  N_4
REMARK    4  A    between atoms: C_8  and  N_23
REMARK    5  A    between atoms: C_13  and  C_14
REMARK                            x       y       z     vdW  Elec       q    Type
REMARK                         _______ _______ _______ _____ _____    ______ ____
ROOT
ATOM      1  N   UNL     1       2.942   1.345  -0.984  0.00  0.00    -0.259 N 
ATOM      2  C   UNL     1       1.605   1.622  -0.657  0.00  0.00    +0.079 A 
ATOM      3  C   UNL     1       0.638   0.637  -0.799  0.00  0.00    +0.029 A 
ATOM      4  C   UNL     1      -0.678   0.911  -0.482  0.00  0.00    +0.025 A 
ATOM      5  C   UNL     1      -1.036   2.167  -0.009  0.00  0.00    +0.028 A 
ATOM      6  C   UNL     1      -0.072   3.156   0.135  0.00  0.00    +0.071 A 
ATOM      7  C   UNL     1       1.247   2.885  -0.189  0.00  0.00    +0.152 A 
ATOM      8  O   UNL     1       2.196   3.853  -0.051  0.00  0.00    -0.449 OA
ATOM      9  C   UNL     1       3.475   3.413   0.159  0.00  0.00    +0.191 C 
ATOM     10  C   UNL     1       4.308   4.049   1.012  0.00  0.00    +0.059 C 
ATOM     11  C   UNL     1       3.904   2.212  -0.587  0.00  0.00    +0.286 C 
ATOM     12  O   UNL     1       5.078   2.010  -0.837  0.00  0.00    -0.266 OA
ENDROOT
BRANCH  10  13
ATOM     13  C   UNL     1       5.605   3.447   1.360  0.00  0.00    -0.021 A 
ATOM     14  C   UNL     1       5.711   2.065   1.545  0.00  0.00    +0.009 A 
ATOM     15  C   UNL     1       6.930   1.507   1.863  0.00  0.00    +0.020 A 
ATOM     16  C   UNL     1       8.047   2.313   2.014  0.00  0.00    +0.041 A 
ATOM     17  C   UNL     1       7.948   3.684   1.838  0.00  0.00    +0.020 A 
ATOM     18  C   UNL     1       6.736   4.255   1.512  0.00  0.00    +0.009 A 
ATOM     19 CL   UNL     1       9.577   1.603   2.423  0.00  0.00    -0.084 Cl
ENDBRANCH  10  13
BRANCH   1  21
ATOM     20  C   UNL     1       4.028   0.535  -3.020  0.00  0.00    +0.028 C 
ATOM     21  C   UNL     1       3.290   0.139  -1.740  0.00  0.00    +0.076 C 
ATOM     22  C   UNL     1       4.192  -0.755  -0.886  0.00  0.00    +0.028 C 
ENDBRANCH   1  21
BRANCH   5  23
ATOM     23  N   UNL     1      -2.369   2.438   0.317  0.00  0.00    -0.358 N 
ATOM     24  H   UNL     1      -2.652   3.432   0.692  0.00  0.00    +0.142 HD
ATOM     25  H   UNL     1      -3.134   1.656   0.199  0.00  0.00    +0.142 HD
ENDBRANCH   5  23
TORSDOF 3
