REMARK  Name = ZINC41512652
REMARK  6 active torsions:
REMARK  status: ('A' for Active; 'I' for Inactive)
REMARK    1  A    between atoms: C_1  and  C_2
REMARK    2  A    between atoms: N_7  and  C_9
REMARK    3  A    between atoms: C_9  and  C_10
REMARK    4  A    between atoms: C_11  and  O_32
REMARK    5  A    between atoms: C_19  and  C_21
REMARK    6  A    between atoms: C_23  and  C_26
REMARK                            x       y       z     vdW  Elec       q    Type
REMARK                         _______ _______ _______ _____ _____    ______ ____
ROOT
ATOM      1  C   UNL     1       1.666  -3.960   2.315  0.00  0.00    +0.020 A 
ATOM      2  C   UNL     1       0.711  -4.773   2.906  0.00  0.00    +0.122 A 
ATOM      3  C   UNL     1       0.823  -6.160   2.836  0.00  0.00    +0.046 A 
ATOM      4  C   UNL     1       1.880  -6.738   2.196  0.00  0.00    +0.015 A 
ATOM      5  C   UNL     1       2.869  -5.933   1.613  0.00  0.00    +0.019 A 
ATOM      6  C   UNL     1       2.739  -4.530   1.649  0.00  0.00    +0.144 A 
ATOM      7  O   UNL     1       3.651  -3.747   1.024  0.00  0.00    -0.421 OA
ATOM      8  C   UNL     1       4.897  -4.254   0.881  0.00  0.00    +0.347 A 
ATOM      9  O   UNL     1       5.881  -3.549   1.006  0.00  0.00    -0.244 OA
ATOM     10  C   UNL     1       5.022  -5.689   0.570  0.00  0.00    +0.092 A 
ATOM     11  C   UNL     1       3.991  -6.519   0.974  0.00  0.00    +0.029 A 
ENDROOT
BRANCH  10  12
ATOM     12  C   UNL     1       6.206  -6.220  -0.133  0.00  0.00    +0.116 A 
ATOM     13  N   UNL     1       7.279  -5.579  -0.572  0.00  0.00    -0.239 NA
ATOM     14  C   UNL     1       8.255  -6.219  -1.188  0.00  0.00    +0.079 A 
ATOM     15  C   UNL     1       8.158  -7.573  -1.377  0.00  0.00    +0.075 A 
ATOM     16  S   UNL     1       6.576  -7.902  -0.612  0.00  0.00    -0.075 S 
BRANCH  14  17
ATOM     17  C   UNL     1       9.447  -5.479  -1.671  0.00  0.00    +0.001 A 
ATOM     18  C   UNL     1      10.473  -6.157  -2.326  0.00  0.00    +0.010 A 
ATOM     19  C   UNL     1      11.579  -5.464  -2.773  0.00  0.00    +0.001 A 
ATOM     20  C   UNL     1      11.671  -4.098  -2.572  0.00  0.00    +0.000 A 
ATOM     21  C   UNL     1      10.655  -3.420  -1.922  0.00  0.00    +0.001 A 
ATOM     22  C   UNL     1       9.542  -4.102  -1.476  0.00  0.00    +0.010 A 
ENDBRANCH  14  17
ENDBRANCH  10  12
BRANCH   2  23
ATOM     23  O   UNL     1      -0.339  -4.213   3.559  0.00  0.00    -0.506 OA
ATOM     24  H   UNL     1      -1.109  -4.051   2.998  0.00  0.00    +0.292 HD
ENDBRANCH   2  23
BRANCH   1  25
ATOM     25  C   UNL     1       1.534  -2.461   2.390  0.00  0.00    -0.036 C 
BRANCH  25  31
ATOM     26  C   UNL     1      -0.019   1.526   0.010  0.00  0.00    +0.005 C 
ATOM     27  C   UNL     1       0.002  -0.004   0.002  0.00  0.00    -0.031 C 
ATOM     28  C   UNL     1      -1.434  -0.535   0.015  0.00  0.00    -0.001 C 
ATOM     29  C   UNL     1      -1.402  -2.064   0.086  0.00  0.00    -0.018 C 
ATOM     30  C   UNL     1      -0.613  -2.496   1.324  0.00  0.00    -0.078 C 
ATOM     31  N   UNL     1       0.758  -1.980   1.239  0.00  0.00    +0.383 N 
ATOM     32  C   UNL     1       0.740  -0.512   1.242  0.00  0.00    -0.075 C 
ATOM     33  H   UNL     1       1.188  -2.307   0.386  0.00  0.00    -0.081 HD
ENDBRANCH  25  31
ENDBRANCH   1  25
TORSDOF 5
