REMARK  Name = ZINC22067570
REMARK  5 active torsions:
REMARK  status: ('A' for Active; 'I' for Inactive)
REMARK    1  A    between atoms: C_1  and  C_2
REMARK    2  A    between atoms: N_4  and  C_5
REMARK    3  A    between atoms: C_5  and  C_6
REMARK    4  A    between atoms: C_9  and  C_11
REMARK    5  A    between atoms: C_17  and  C_19
REMARK                            x       y       z     vdW  Elec       q    Type
REMARK                         _______ _______ _______ _____ _____    ______ ____
ROOT
ATOM      1  C   UNL     1      -2.586   9.333  -1.659  0.00  0.00    +0.115 A 
ATOM      2  C   UNL     1      -1.945   9.831  -0.556  0.00  0.00    +0.080 A 
ATOM      3  S   UNL     1      -1.450   8.315   0.253  0.00  0.00    -0.060 S 
ATOM      4  C   UNL     1      -2.131   7.183  -0.950  0.00  0.00    +0.165 A 
ATOM      5  N   UNL     1      -2.662   8.015  -1.826  0.00  0.00    -0.221 NA
ATOM      6  N   UNL     1      -2.112   5.794  -0.958  0.00  0.00    -0.264 N 
ATOM      7  C   UNL     1      -1.510   5.123   0.044  0.00  0.00    +0.225 C 
ATOM      8  O   UNL     1      -0.985   5.731   0.952  0.00  0.00    -0.275 OA
ATOM      9  H   UNL     1      -2.589   5.242  -1.781  0.00  0.00    +0.157 HD
ENDROOT
BRANCH   7  10
ATOM     10  C   UNL     1      -1.490   3.616   0.036  0.00  0.00    +0.048 C 
ATOM     11  C   UNL     1      -0.773   3.123  -1.223  0.00  0.00    +0.019 C 
ATOM     12  C   UNL     1      -0.753   1.593  -1.232  0.00  0.00    -0.009 C 
ATOM     13  C   UNL     1      -0.013   1.086   0.008  0.00  0.00    +0.007 C 
ATOM     14  C   UNL     1      -0.729   1.579   1.267  0.00  0.00    -0.009 C 
ATOM     15  C   UNL     1      -0.750   3.109   1.275  0.00  0.00    +0.019 C 
ATOM     16  C   UNL     1      -2.164   1.050   1.278  0.00  0.00    +0.007 C 
ATOM     17  C   UNL     1      -2.904   1.556   0.038  0.00  0.00    -0.009 C 
ATOM     18  C   UNL     1      -2.188   1.063  -1.221  0.00  0.00    +0.007 C 
ATOM     19  C   UNL     1      -2.925   3.086   0.047  0.00  0.00    +0.019 C 
ENDBRANCH   7  10
BRANCH   1  23
ATOM     20  C   UNL     1      -3.815  12.093  -3.666  0.00  0.00    +0.123 A 
ATOM     21  C   UNL     1      -4.246  11.068  -4.426  0.00  0.00    +0.047 A 
ATOM     22  C   UNL     1      -3.842   9.879  -3.784  0.00  0.00    +0.052 A 
ATOM     23  C   UNL     1      -3.187  10.249  -2.651  0.00  0.00    +0.154 A 
ATOM     24  O   UNL     1      -3.175  11.594  -2.594  0.00  0.00    -0.457 OA
BRANCH  20  25
ATOM     25  C   UNL     1      -4.017  13.556  -3.966  0.00  0.00    +0.178 C 
BRANCH  25  29
ATOM     26  C   UNL     1      -6.953  15.759  -2.881  0.00  0.00    +0.109 C 
ATOM     27  C   UNL     1      -5.662  15.292  -3.502  0.00  0.00    +0.210 C 
ATOM     28  O   UNL     1      -4.974  16.071  -4.128  0.00  0.00    -0.276 OA
ATOM     29  N   UNL     1      -5.272  14.010  -3.362  0.00  0.00    -0.308 N 
ATOM     30  H   UNL     1      -5.896  13.304  -2.795  0.00  0.00    +0.149 HD
ENDBRANCH  25  29
ENDBRANCH  20  25
ENDBRANCH   1  23
TORSDOF 4
