REMARK  Name = ZINC05395635
REMARK  1 active torsions:
REMARK  status: ('A' for Active; 'I' for Inactive)
REMARK    1  A    between atoms: C_4  and  C_7
REMARK                            x       y       z     vdW  Elec       q    Type
REMARK                         _______ _______ _______ _____ _____    ______ ____
ROOT
ATOM      1  C   UNL     1       3.711  -0.707  -0.038  0.00  0.00    +0.044 C 
ATOM      2  C   UNL     1       4.586  -0.224   1.125  0.00  0.00    +0.092 C 
ATOM      3  C   UNL     1       4.924   1.257   0.940  0.00  0.00    +0.129 C 
ATOM      4  C   UNL     1       3.647   2.091   1.034  0.00  0.00    +0.033 C 
ATOM      5  C   UNL     1       3.037   1.954   2.430  0.00  0.00    +0.010 C 
ATOM      6  C   UNL     1       2.620   0.498   2.661  0.00  0.00    +0.075 C 
ATOM      7  C   UNL     1       3.821  -0.390   2.419  0.00  0.00    +0.139 C 
ATOM      8  O   UNL     1       4.160  -1.210   3.238  0.00  0.00    -0.297 OA
ATOM      9  O   UNL     1       5.541   1.468  -0.333  0.00  0.00    -0.372 OA
ATOM     10  C   UNL     1       4.720   1.087  -1.433  0.00  0.00    +0.129 C 
ATOM     11  C   UNL     1       4.444  -0.420  -1.348  0.00  0.00    +0.092 C 
ATOM     12  C   UNL     1       3.599  -0.822  -2.534  0.00  0.00    +0.139 C 
ATOM     13  O   UNL     1       2.569  -1.435  -2.388  0.00  0.00    -0.297 OA
ATOM     14  C   UNL     1       4.086  -0.413  -3.911  0.00  0.00    +0.075 C 
ATOM     15  C   UNL     1       4.422   1.081  -3.909  0.00  0.00    +0.010 C 
ATOM     16  C   UNL     1       5.391   1.398  -2.767  0.00  0.00    +0.033 C 
ENDROOT
BRANCH   1  20
ATOM     17  C   UNL     1      -0.017   1.378   0.009  0.00  0.00    +0.000 A 
ATOM     18  C   UNL     1       0.938   1.648   0.972  0.00  0.00    +0.000 A 
ATOM     19  C   UNL     1       2.145   0.974   0.956  0.00  0.00    +0.004 A 
ATOM     20  C   UNL     1       2.396   0.029  -0.021  0.00  0.00    -0.043 A 
ATOM     21  C   UNL     1       1.441  -0.242  -0.983  0.00  0.00    +0.004 A 
ATOM     22  C   UNL     1       0.234   0.433  -0.968  0.00  0.00    +0.000 A 
ENDBRANCH   1  20
TORSDOF 1
