REMARK  Name = ZINC67261348
REMARK  5 active torsions:
REMARK  status: ('A' for Active; 'I' for Inactive)
REMARK    1  A    between atoms: C_1  and  C_2
REMARK    2  A    between atoms: C_2  and  C_4
REMARK    3  A    between atoms: C_2  and  N_11
REMARK    4  A    between atoms: C_22  and  S_25
REMARK    5  A    between atoms: S_25  and  C_28
REMARK                            x       y       z     vdW  Elec       q    Type
REMARK                         _______ _______ _______ _____ _____    ______ ____
ROOT
ATOM      1  N   UNL     1       0.711  -0.489   1.189  0.00  0.00    -0.322 N 
ATOM      2  C   UNL     1       2.086  -0.603   1.173  0.00  0.00    +0.131 A 
ATOM      3  C   UNL     1       2.807  -1.094   2.356  0.00  0.00    +0.040 A 
ATOM      4  C   UNL     1       2.138  -1.460   3.524  0.00  0.00    +0.013 A 
ATOM      5  C   UNL     1       2.858  -1.915   4.606  0.00  0.00    +0.001 A 
ATOM      6  C   UNL     1       4.241  -2.011   4.540  0.00  0.00    +0.002 A 
ATOM      7  C   UNL     1       4.917  -1.653   3.393  0.00  0.00    +0.028 A 
ATOM      8  C   UNL     1       4.209  -1.192   2.292  0.00  0.00    +0.080 A 
ATOM      9  N   UNL     1       4.843  -0.822   1.119  0.00  0.00    -0.192 N 
ATOM     10  C   UNL     1       4.111  -0.371   0.052  0.00  0.00    +0.204 A 
ATOM     11  N   UNL     1       2.770  -0.277   0.098  0.00  0.00    -0.209 NA
ATOM     12  C   UNL     1       5.028  -0.090  -0.945  0.00  0.00    +0.249 A 
ATOM     13  N   UNL     1       6.245  -0.362  -0.488  0.00  0.00    -0.108 NA
ATOM     14  N   UNL     1       6.185  -0.795   0.722  0.00  0.00    -0.057 NA
ATOM     15  H   UNL     1       0.213  -0.731   1.986  0.00  0.00    +0.148 HD
ENDROOT
BRANCH  12  16
ATOM     16  S   UNL     1       4.646   0.524  -2.551  0.00  0.00    +0.047 S 
ATOM     17  O   UNL     1       5.724   0.149  -3.397  0.00  0.00    -0.163 OA
ATOM     18  O   UNL     1       3.301   0.150  -2.820  0.00  0.00    -0.163 OA
BRANCH  16  19
ATOM     19  C   UNL     1       4.669   2.284  -2.456  0.00  0.00    +0.095 A 
ATOM     20  C   UNL     1       3.515   2.974  -2.135  0.00  0.00    +0.027 A 
ATOM     21  C   UNL     1       3.534   4.354  -2.060  0.00  0.00    +0.002 A 
ATOM     22  C   UNL     1       4.707   5.044  -2.305  0.00  0.00    +0.000 A 
ATOM     23  C   UNL     1       5.861   4.354  -2.624  0.00  0.00    +0.002 A 
ATOM     24  C   UNL     1       5.843   2.973  -2.696  0.00  0.00    +0.027 A 
ENDBRANCH  16  19
ENDBRANCH  12  16
BRANCH   1  26
ATOM     25  C   UNL     1      -0.019   1.526   0.010  0.00  0.00    +0.033 C 
ATOM     26  C   UNL     1       0.002  -0.004   0.002  0.00  0.00    +0.099 C 
BRANCH  26  27
ATOM     27  C   UNL     1      -1.412  -0.526   0.013  0.00  0.00    -0.027 A 
ATOM     28  C   UNL     1      -2.122  -0.571   1.198  0.00  0.00    +0.008 A 
ATOM     29  C   UNL     1      -3.419  -1.048   1.209  0.00  0.00    +0.038 A 
ATOM     30  C   UNL     1      -4.006  -1.482   0.032  0.00  0.00    +0.123 A 
ATOM     31  C   UNL     1      -3.294  -1.437  -1.154  0.00  0.00    +0.038 A 
ATOM     32  C   UNL     1      -1.999  -0.954  -1.163  0.00  0.00    +0.008 A 
ATOM     33  F   UNL     1      -5.274  -1.950   0.042  0.00  0.00    -0.205 F 
ENDBRANCH  26  27
ENDBRANCH   1  26
TORSDOF 4
