REMARK  Name = ZINC04083577
REMARK  10 active torsions:
REMARK  status: ('A' for Active; 'I' for Inactive)
REMARK    1  A    between atoms: C_1  and  C_2
REMARK    2  A    between atoms: C_17  and  C_35
REMARK    3  A    between atoms: C_20  and  O_31
REMARK    4  A    between atoms: C_23  and  C_30
REMARK    5  A    between atoms: C_24  and  C_25
REMARK    6  A    between atoms: C_24  and  O_29
REMARK    7  A    between atoms: C_25  and  C_27
REMARK    8  A    between atoms: C_27  and  O_28
REMARK    9  A    between atoms: O_31  and  C_32
REMARK   10  A    between atoms: C_32  and  C_34
REMARK                            x       y       z     vdW  Elec       q    Type
REMARK                         _______ _______ _______ _____ _____    ______ ____
ROOT
ATOM      1  C   UNL     1      -6.699  -1.547  -1.280  0.00  0.00    +0.011 C 
ATOM      2  C   UNL     1      -6.021  -0.180  -1.168  0.00  0.00    +0.026 C 
ATOM      3  C   UNL     1      -4.687  -0.180  -1.965  0.00  0.00    +0.011 C 
ATOM      4  C   UNL     1      -3.646  -0.508  -0.889  0.00  0.00    +0.002 C 
ATOM      5  C   UNL     1      -2.224  -0.073  -1.194  0.00  0.00    +0.001 C 
ATOM      6  C   UNL     1      -1.701  -0.827  -2.418  0.00  0.00    +0.008 C 
ATOM      7  C   UNL     1      -0.283  -0.352  -2.748  0.00  0.00    +0.032 C 
ATOM      8  C   UNL     1       0.574  -0.523  -1.507  0.00  0.00    -0.056 C 
ATOM      9  C   UNL     1       1.731  -1.165  -1.608  0.00  0.00    +0.051 C 
ATOM     10  C   UNL     1       2.563  -1.399  -0.417  0.00  0.00    +0.179 C 
ATOM     11  O   UNL     1       3.632  -1.972  -0.508  0.00  0.00    -0.288 OA
ATOM     12  C   UNL     1       2.072  -0.922   0.887  0.00  0.00    +0.047 C 
ATOM     13  C   UNL     1       0.928  -0.261   0.960  0.00  0.00    -0.012 C 
ATOM     14  C   UNL     1       0.071   0.056  -0.218  0.00  0.00    +0.014 C 
ATOM     15  C   UNL     1      -1.365  -0.423   0.011  0.00  0.00    +0.047 C 
ATOM     16  C   UNL     1      -1.921   0.231   1.274  0.00  0.00    +0.182 C 
ATOM     17  C   UNL     1      -3.404  -0.109   1.484  0.00  0.00    +0.055 C 
ATOM     18  C   UNL     1      -4.150   0.347   0.245  0.00  0.00    +0.010 C 
ATOM     19  C   UNL     1      -5.655   0.102   0.228  0.00  0.00    +0.134 C 
ATOM     20  C   UNL     1      -3.858   1.825  -0.021  0.00  0.00    +0.015 C 
ATOM     21  C   UNL     1       0.035   1.578  -0.373  0.00  0.00    +0.020 C 
ENDROOT
BRANCH  19  22
ATOM     22  C   UNL     1      -6.389   1.327   0.709  0.00  0.00    +0.190 C 
ATOM     23  O   UNL     1      -6.776   2.150  -0.086  0.00  0.00    -0.292 OA
BRANCH  22  24
ATOM     24  C   UNL     1      -6.641   1.526   2.181  0.00  0.00    +0.233 C 
BRANCH  24  25
ATOM     25  O   UNL     1      -7.348   2.751   2.383  0.00  0.00    -0.387 OA
ATOM     26  H   UNL     1      -7.545   2.943   3.310  0.00  0.00    +0.210 HD
ENDBRANCH  24  25
ENDBRANCH  22  24
ENDBRANCH  19  22
BRANCH  19  27
ATOM     27  O   UNL     1      -5.982  -1.025   1.044  0.00  0.00    -0.380 OA
ATOM     28  H   UNL     1      -6.927  -1.229   1.072  0.00  0.00    +0.211 HD
ENDBRANCH  19  27
BRANCH  16  29
ATOM     29  O   UNL     1      -1.777   1.671   1.163  0.00  0.00    -0.461 OA
BRANCH  29  30
ATOM     30  C   UNL     1      -1.611   2.357   2.304  0.00  0.00    +0.304 C 
ATOM     31  O   UNL     1      -1.586   1.773   3.362  0.00  0.00    -0.251 OA
ATOM     32  C   UNL     1      -1.456   3.856   2.268  0.00  0.00    +0.136 C 
ENDBRANCH  29  30
ENDBRANCH  16  29
TORSDOF 6
