REMARK  Name = ZINC09384122
REMARK  8 active torsions:
REMARK  status: ('A' for Active; 'I' for Inactive)
REMARK    1  A    between atoms: C_1  and  C_2
REMARK    2  A    between atoms: N_5  and  S_8
REMARK    3  A    between atoms: S_8  and  C_11
REMARK    4  A    between atoms: C_14  and  C_17
REMARK    5  A    between atoms: N_19  and  C_20
REMARK    6  A    between atoms: C_21  and  C_25
REMARK    7  A    between atoms: C_25  and  O_27
REMARK    8  A    between atoms: O_27  and  C_28
REMARK                            x       y       z     vdW  Elec       q    Type
REMARK                         _______ _______ _______ _____ _____    ______ ____
ROOT
ATOM      1  C   UNL     1       2.396   0.034  -0.021  0.00  0.00    +0.106 A 
ATOM      2  C   UNL     1       1.208  -0.674  -0.013  0.00  0.00    +0.029 A 
ATOM      3  C   UNL     1       0.002  -0.004   0.002  0.00  0.00    +0.015 A 
ATOM      4  C   UNL     1      -0.017   1.392   0.010  0.00  0.00    +0.037 A 
ATOM      5  C   UNL     1       1.186   2.100   0.002  0.00  0.00    +0.015 A 
ATOM      6  C   UNL     1       2.385   1.417  -0.013  0.00  0.00    +0.029 A 
ENDROOT
BRANCH   4   7
ATOM      7  C   UNL     1      -1.305   2.117   0.020  0.00  0.00    +0.249 C 
ATOM      8  O   UNL     1      -2.351   1.497   0.021  0.00  0.00    -0.270 OA
ATOM      9  N   UNL     1      -1.320   3.464   0.027  0.00  0.00    -0.275 N 
ATOM     10  H   UNL     1      -0.485   3.958   0.026  0.00  0.00    +0.156 HD
BRANCH   9  11
ATOM     11  C   UNL     1      -2.526   4.143   0.037  0.00  0.00    +0.086 A 
ATOM     12  C   UNL     1      -2.745   5.517   0.051  0.00  0.00    +0.087 A 
ATOM     13  C   UNL     1      -4.121   5.955   0.054  0.00  0.00    +0.024 A 
ATOM     14  C   UNL     1      -5.069   5.001   0.053  0.00  0.00    +0.048 A 
ATOM     15  S   UNL     1      -4.129   3.489   0.041  0.00  0.00    -0.081 S 
BRANCH  12  16
ATOM     16  C   UNL     1      -1.635   6.472   0.058  0.00  0.00    +0.341 C 
ATOM     17  O   UNL     1      -0.487   6.070   0.052  0.00  0.00    -0.245 OA
BRANCH  16  18
ATOM     18  O   UNL     1      -1.885   7.797   0.072  0.00  0.00    -0.464 OA
ATOM     19  C   UNL     1      -0.736   8.685   0.079  0.00  0.00    +0.280 C 
ENDBRANCH  16  18
ENDBRANCH  12  16
ENDBRANCH   9  11
ENDBRANCH   4   7
BRANCH   1  20
ATOM     20  S   UNL     1       3.932  -0.830  -0.041  0.00  0.00    +0.061 S 
ATOM     21  O   UNL     1       4.902   0.053   0.505  0.00  0.00    -0.153 OA
ATOM     22  O   UNL     1       3.680  -2.118   0.505  0.00  0.00    -0.153 OA
BRANCH  20  27
ATOM     23  C   UNL     1       7.097  -2.612  -4.478  0.00  0.00    +0.007 C 
ATOM     24  C   UNL     1       5.888  -1.932  -3.832  0.00  0.00    -0.012 C 
ATOM     25  C   UNL     1       6.363  -0.765  -2.964  0.00  0.00    +0.020 C 
ATOM     26  C   UNL     1       5.149  -0.065  -2.346  0.00  0.00    +0.110 C 
ATOM     27  N   UNL     1       4.343  -1.062  -1.628  0.00  0.00    -0.177 NA
ATOM     28  C   UNL     1       3.914  -2.271  -2.344  0.00  0.00    +0.110 C 
ATOM     29  C   UNL     1       5.138  -2.944  -2.963  0.00  0.00    +0.020 C 
ENDBRANCH  20  27
ENDBRANCH   1  20
TORSDOF 6
