REMARK  Name = ZINC19125270
REMARK  4 active torsions:
REMARK  status: ('A' for Active; 'I' for Inactive)
REMARK    1  A    between atoms: C_1  and  C_2
REMARK    2  A    between atoms: C_7  and  C_8
REMARK    3  A    between atoms: C_10  and  C_13
REMARK    4  A    between atoms: C_20  and  C_22
REMARK                            x       y       z     vdW  Elec       q    Type
REMARK                         _______ _______ _______ _____ _____    ______ ____
ROOT
ATOM      1  C   UNL     1      -4.816   2.361   0.078  0.00  0.00    +0.142 C 
ATOM      2  C   UNL     1      -5.337   2.614  -1.340  0.00  0.00    +0.030 C 
ATOM      3  C   UNL     1      -6.854   2.419  -1.364  0.00  0.00    +0.004 C 
ATOM      4  C   UNL     1      -7.192   0.977  -0.976  0.00  0.00    +0.019 C 
ATOM      5  C   UNL     1      -6.692   0.706   0.446  0.00  0.00    +0.108 C 
ATOM      6  N   UNL     1      -5.260   1.030   0.515  0.00  0.00    -0.289 N 
ATOM      7  C   UNL     1      -4.372   0.124   0.969  0.00  0.00    +0.245 C 
ATOM      8  O   UNL     1      -3.204   0.428   1.091  0.00  0.00    -0.273 OA
ENDROOT
BRANCH   1  18
ATOM      9  C   UNL     1       2.469   3.466   1.125  0.00  0.00    +0.044 C 
ATOM     10  C   UNL     1       1.158   2.971   0.570  0.00  0.00    -0.045 A 
ATOM     11  C   UNL     1      -0.027   3.388   1.139  0.00  0.00    +0.031 A 
ATOM     12  C   UNL     1      -1.233   2.931   0.626  0.00  0.00    +0.067 A 
ATOM     13  C   UNL     1      -1.239   2.053  -0.472  0.00  0.00    +0.089 A 
ATOM     14  C   UNL     1      -0.026   1.641  -1.028  0.00  0.00    +0.033 A 
ATOM     15  C   UNL     1       1.152   2.101  -0.510  0.00  0.00    -0.045 A 
ATOM     16  C   UNL     1       2.458   1.658  -1.119  0.00  0.00    +0.044 C 
ATOM     17  N   UNL     1      -2.539   1.776  -0.749  0.00  0.00    -0.231 NA
ATOM     18  C   UNL     1      -3.310   2.416   0.081  0.00  0.00    +0.129 A 
ATOM     19  N   UNL     1      -2.558   3.144   0.950  0.00  0.00    -0.340 N 
ATOM     20  H   UNL     1      -2.902   3.726   1.688  0.00  0.00    +0.167 HD
ENDBRANCH   1  18
BRANCH   7  21
ATOM     21  C   UNL     1      -4.829  -1.267   1.325  0.00  0.00    +0.204 C 
ATOM     22  C   UNL     1      -5.790  -1.210   2.531  0.00  0.00    +0.043 C 
ATOM     23  C   UNL     1      -5.365  -2.461   3.350  0.00  0.00    +0.031 C 
ATOM     24  C   UNL     1      -3.842  -2.494   3.069  0.00  0.00    +0.161 C 
ATOM     25  O   UNL     1      -3.703  -2.067   1.704  0.00  0.00    -0.367 OA
ENDBRANCH   7  21
TORSDOF 2
