REMARK  Name = ZINC66120585
REMARK  6 active torsions:
REMARK  status: ('A' for Active; 'I' for Inactive)
REMARK    1  A    between atoms: C_6  and  C_7
REMARK    2  A    between atoms: C_7  and  N_8
REMARK    3  A    between atoms: C_11  and  N_14
REMARK    4  A    between atoms: C_21  and  C_24
REMARK    5  A    between atoms: C_24  and  C_25
REMARK    6  A    between atoms: C_25  and  C_26
REMARK                            x       y       z     vdW  Elec       q    Type
REMARK                         _______ _______ _______ _____ _____    ______ ____
ROOT
ATOM      1  N   UNL     1      -3.955  -1.180  -4.947  0.00  0.00    -0.297 N 
ATOM      2  C   UNL     1      -5.213  -1.516  -5.295  0.00  0.00    +0.302 C 
ATOM      3  O   UNL     1      -6.063  -1.663  -4.438  0.00  0.00    -0.253 OA
ATOM      4  N   UNL     1      -5.529  -1.690  -6.594  0.00  0.00    -0.285 N 
ATOM      5  C   UNL     1      -4.489  -1.636  -7.631  0.00  0.00    +0.109 C 
ATOM      6  C   UNL     1      -4.563  -2.915  -8.470  0.00  0.00    +0.019 C 
ATOM      7  C   UNL     1      -5.984  -3.083  -9.013  0.00  0.00    +0.006 C 
ATOM      8  C   UNL     1      -6.966  -3.214  -7.846  0.00  0.00    +0.007 C 
ATOM      9  C   UNL     1      -6.918  -1.944  -6.999  0.00  0.00    +0.112 C 
ATOM     10  H   UNL     1      -3.261  -1.134  -5.622  0.00  0.00    +0.151 HD
ENDROOT
BRANCH   1  14
ATOM     11  N   UNL     1      -1.727  -1.009  -1.373  0.00  0.00    +0.382 N 
ATOM     12  C   UNL     1      -2.037   0.272  -2.019  0.00  0.00    -0.077 C 
ATOM     13  C   UNL     1      -2.412   0.032  -3.483  0.00  0.00    +0.004 C 
ATOM     14  C   UNL     1      -3.637  -0.884  -3.547  0.00  0.00    +0.071 C 
ATOM     15  C   UNL     1      -3.327  -2.188  -2.806  0.00  0.00    +0.004 C 
ATOM     16  C   UNL     1      -2.918  -1.865  -1.367  0.00  0.00    -0.077 C 
ATOM     17  H   UNL     1      -0.986  -1.469  -1.882  0.00  0.00    -0.081 HD
BRANCH  11  18
ATOM     18  C   UNL     1      -1.293  -0.766   0.009  0.00  0.00    -0.043 C 
BRANCH  18  24
ATOM     19  C   UNL     1      -0.025   1.392   0.010  0.00  0.00    +0.004 A 
ATOM     20  C   UNL     1       1.159   2.105   0.003  0.00  0.00    +0.038 A 
ATOM     21  C   UNL     1       2.370   1.434  -0.014  0.00  0.00    +0.123 A 
ATOM     22  C   UNL     1       2.393   0.049  -0.024  0.00  0.00    +0.038 A 
ATOM     23  C   UNL     1       1.208  -0.661  -0.016  0.00  0.00    +0.004 A 
ATOM     24  C   UNL     1      -0.001   0.010   0.001  0.00  0.00    -0.064 A 
ATOM     25  F   UNL     1       3.528   2.129  -0.021  0.00  0.00    -0.205 F 
ENDBRANCH  18  24
ENDBRANCH  11  18
ENDBRANCH   1  14
BRANCH   8  26
ATOM     26  C   UNL     1      -8.382  -3.416  -8.390  0.00  0.00    +0.014 C 
BRANCH  26  27
ATOM     27  C   UNL     1      -9.343  -3.671  -7.227  0.00  0.00    +0.096 C 
BRANCH  27  28
ATOM     28  C   UNL     1     -10.737  -3.869  -7.763  0.00  0.00    +0.210 C 
ATOM     29  O   UNL     1     -10.942  -3.812  -8.957  0.00  0.00    -0.276 OA
ATOM     30  N   UNL     1     -11.757  -4.110  -6.915  0.00  0.00    -0.329 N 
ATOM     31  H   UNL     1     -11.593  -4.156  -5.960  0.00  0.00    +0.145 HD
ATOM     32  H   UNL     1     -12.654  -4.238  -7.260  0.00  0.00    +0.145 HD
ENDBRANCH  27  28
ENDBRANCH  26  27
ENDBRANCH   8  26
TORSDOF 6
