REMARK  Name = ZINC03642347
REMARK  7 active torsions:
REMARK  status: ('A' for Active; 'I' for Inactive)
REMARK    1  A    between atoms: C_1  and  C_2
REMARK    2  A    between atoms: C_2  and  C_3
REMARK    3  A    between atoms: C_6  and  C_9
REMARK    4  A    between atoms: C_12  and  C_20
REMARK    5  A    between atoms: C_23  and  C_26
REMARK    6  A    between atoms: C_26  and  C_27
REMARK    7  A    between atoms: C_26  and  C_28
REMARK                            x       y       z     vdW  Elec       q    Type
REMARK                         _______ _______ _______ _____ _____    ______ ____
ROOT
ATOM      1  C   UNL     1       2.797  -1.919   4.683  0.00  0.00    +0.106 C 
ATOM      2  C   UNL     1       2.604  -3.434   4.813  0.00  0.00    +0.058 C 
ATOM      3  C   UNL     1       1.107  -3.762   4.879  0.00  0.00    +0.143 C 
ATOM      4  N   UNL     1       0.478  -2.896   5.875  0.00  0.00    -0.226 N 
ATOM      5  C   UNL     1       1.021  -1.743   6.336  0.00  0.00    +0.215 A 
ATOM      6  N   UNL     1       0.199  -1.231   7.212  0.00  0.00    -0.202 NA
ATOM      7  C   UNL     1      -0.873  -2.022   7.335  0.00  0.00    +0.247 A 
ATOM      8  N   UNL     1      -0.742  -3.050   6.535  0.00  0.00    -0.156 NA
ATOM      9  N   UNL     1       2.250  -1.266   5.889  0.00  0.00    -0.307 N 
ATOM     10  H   UNL     1       2.722  -0.550   6.342  0.00  0.00    +0.149 HD
ENDROOT
BRANCH   1  14
ATOM     11  C   UNL     1       0.731  -0.503   1.223  0.00  0.00    -0.048 A 
ATOM     12  C   UNL     1       2.097  -0.710   1.176  0.00  0.00    +0.004 A 
ATOM     13  C   UNL     1       2.766  -1.167   2.296  0.00  0.00    +0.006 A 
ATOM     14  C   UNL     1       2.068  -1.419   3.463  0.00  0.00    -0.027 A 
ATOM     15  C   UNL     1       0.702  -1.212   3.510  0.00  0.00    +0.006 A 
ATOM     16  C   UNL     1       0.034  -0.750   2.391  0.00  0.00    +0.004 A 
BRANCH  11  18
ATOM     17  C   UNL     1      -0.019   1.526   0.010  0.00  0.00    +0.009 C 
ATOM     18  C   UNL     1       0.002  -0.004   0.002  0.00  0.00    +0.032 C 
ENDBRANCH  11  18
ENDBRANCH   1  14
BRANCH   3  19
ATOM     19  C   UNL     1       0.923  -5.205   5.272  0.00  0.00    -0.023 A 
ATOM     20  C   UNL     1       1.412  -5.659   6.483  0.00  0.00    +0.006 A 
ATOM     21  C   UNL     1       1.244  -6.983   6.844  0.00  0.00    +0.004 A 
ATOM     22  C   UNL     1       0.586  -7.853   5.994  0.00  0.00    -0.045 A 
ATOM     23  C   UNL     1       0.096  -7.398   4.784  0.00  0.00    +0.004 A 
ATOM     24  C   UNL     1       0.261  -6.074   4.425  0.00  0.00    +0.006 A 
BRANCH  22  25
ATOM     25  C   UNL     1       0.403  -9.296   6.387  0.00  0.00    +0.013 C 
ATOM     26  C   UNL     1      -1.091  -9.623   6.447  0.00  0.00    +0.012 C 
ATOM     27  C   UNL     1       1.081 -10.196   5.352  0.00  0.00    +0.012 C 
ENDBRANCH  22  25
ENDBRANCH   3  19
TORSDOF 4
