REMARK  Name = ZINC47369221
REMARK  4 active torsions:
REMARK  status: ('A' for Active; 'I' for Inactive)
REMARK    1  A    between atoms: C_2  and  N_17
REMARK    2  A    between atoms: N_4  and  C_10
REMARK    3  A    between atoms: C_7  and  C_8
REMARK    4  A    between atoms: C_10  and  C_11
REMARK                            x       y       z     vdW  Elec       q    Type
REMARK                         _______ _______ _______ _____ _____    ______ ____
ROOT
ATOM      1  C   UNL     1      -0.017   1.388   0.010  0.00  0.00    +0.058 A 
ATOM      2  C   UNL     1       1.195   2.081   0.002  0.00  0.00    +0.144 A 
ATOM      3  C   UNL     1       2.368   1.400  -0.013  0.00  0.00    +0.122 A 
ATOM      4  N   UNL     1       2.395   0.045  -0.021  0.00  0.00    -0.308 N 
ATOM      5  C   UNL     1       1.255  -0.672  -0.013  0.00  0.00    +0.269 A 
ATOM      6  O   UNL     1       1.298  -1.890  -0.021  0.00  0.00    -0.266 OA
ATOM      7  C   UNL     1       0.002  -0.004   0.002  0.00  0.00    +0.118 A 
ENDROOT
BRANCH   2   8
ATOM      8  N   UNL     1       1.200   3.561   0.009  0.00  0.00    +0.058 N 
ATOM      9  O   UNL     1       2.248   4.162   0.002  0.00  0.00    -0.126 OA
ATOM     10  O   UNL     1       0.155   4.169   0.022  0.00  0.00    -0.126 OA
ENDBRANCH   2   8
BRANCH   7  11
ATOM     11  C   UNL     1      -1.221  -0.749   0.010  0.00  0.00    +0.105 C 
ATOM     12  N   UNL     1      -2.191  -1.341   0.017  0.00  0.00    -0.191 NA
ENDBRANCH   7  11
BRANCH   4  13
ATOM     13  C   UNL     1       3.684  -0.651  -0.037  0.00  0.00    +0.160 C 
BRANCH  13  14
ATOM     14  C   UNL     1       4.140  -0.897   1.378  0.00  0.00    -0.020 A 
ATOM     15  C   UNL     1       4.914   0.039   2.038  0.00  0.00    +0.028 A 
ATOM     16  C   UNL     1       5.307  -0.214   3.312  0.00  0.00    +0.055 A 
ATOM     17  S   UNL     1       4.577  -1.816   3.612  0.00  0.00    -0.090 S 
ATOM     18  C   UNL     1       3.792  -2.037   2.024  0.00  0.00    +0.051 A 
ATOM     19 BR   UNL     1       6.357   0.852   4.468  0.00  0.00    -0.043 Br
ENDBRANCH  13  14
ENDBRANCH   4  13
TORSDOF 4
