REMARK  Name = ZINC61684186
REMARK  8 active torsions:
REMARK  status: ('A' for Active; 'I' for Inactive)
REMARK    1  A    between atoms: C_1  and  C_2
REMARK    2  A    between atoms: N_6  and  C_7
REMARK    3  A    between atoms: N_10  and  C_12
REMARK    4  A    between atoms: C_12  and  C_13
REMARK    5  A    between atoms: C_12  and  C_14
REMARK    6  A    between atoms: C_16  and  C_21
REMARK    7  A    between atoms: C_16  and  C_22
REMARK    8  A    between atoms: C_18  and  O_20
REMARK                            x       y       z     vdW  Elec       q    Type
REMARK                         _______ _______ _______ _____ _____    ______ ____
ROOT
ATOM      1  C   UNL     1      -0.018   1.503   0.010  0.00  0.00    +0.064 C 
ATOM      2  C   UNL     1       0.002  -0.004   0.002  0.00  0.00    +0.021 A 
ATOM      3  C   UNL     1       0.008  -0.790  -1.098  0.00  0.00    +0.029 A 
ATOM      4  C   UNL     1       0.029  -2.121  -0.658  0.00  0.00    +0.002 A 
ATOM      5  C   UNL     1       0.034  -2.107   0.695  0.00  0.00    +0.030 A 
ATOM      6  N   UNL     1       0.024  -0.810   1.105  0.00  0.00    -0.314 N 
ATOM      7  C   UNL     1       0.051  -3.348   1.553  0.00  0.00    +0.060 C 
ATOM      8  C   UNL     1      -0.352  -4.544   0.682  0.00  0.00    -0.027 C 
ATOM      9  C   UNL     1       0.481  -4.545  -0.603  0.00  0.00    +0.043 C 
ATOM     10  C   UNL     1       0.047  -3.375  -1.495  0.00  0.00    +0.147 C 
ATOM     11  C   UNL     1      -1.837  -4.438   0.327  0.00  0.00    +0.011 C 
ATOM     12  C   UNL     1      -0.104  -5.842   1.452  0.00  0.00    +0.011 C 
ENDROOT
BRANCH   6  13
ATOM     13  C   UNL     1       0.031  -0.372   2.444  0.00  0.00    +0.084 A 
ATOM     14  C   UNL     1       1.073  -0.551   3.366  0.00  0.00    +0.160 A 
ATOM     15  N   UNL     1       0.712  -0.008   4.500  0.00  0.00    -0.177 NA
ATOM     16  N   UNL     1      -0.570   0.534   4.341  0.00  0.00    -0.267 N 
ATOM     17  C   UNL     1      -0.966   0.304   3.070  0.00  0.00    +0.134 A 
BRANCH  16  18
ATOM     18  C   UNL     1      -1.343   1.233   5.371  0.00  0.00    +0.101 C 
ATOM     19  C   UNL     1      -1.127   2.742   5.235  0.00  0.00    +0.032 C 
ATOM     20  C   UNL     1      -2.829   0.913   5.198  0.00  0.00    +0.032 C 
ENDBRANCH  16  18
ENDBRANCH   6  13
BRANCH  10  21
ATOM     21  O   UNL     1       0.973  -3.222  -2.572  0.00  0.00    -0.387 OA
ATOM     22  H   UNL     1       0.766  -2.488  -3.167  0.00  0.00    +0.210 HD
ENDBRANCH  10  21
TORSDOF 3
