REMARK  Name = ZINC39463145
REMARK  4 active torsions:
REMARK  status: ('A' for Active; 'I' for Inactive)
REMARK    1  A    between atoms: C_1  and  C_2
REMARK    2  A    between atoms: C_2  and  C_3
REMARK    3  A    between atoms: C_2  and  S_4
REMARK    4  A    between atoms: S_4  and  C_7
REMARK                            x       y       z     vdW  Elec       q    Type
REMARK                         _______ _______ _______ _____ _____    ______ ____
ROOT
ATOM      1  C   UNL     1      -1.536  -2.381   0.152  0.00  0.00    +0.184 A 
ATOM      2  C   UNL     1      -1.433  -3.259  -0.868  0.00  0.00    +0.159 A 
ATOM      3  N   UNL     1      -1.325  -4.491  -0.362  0.00  0.00    -0.234 NA
ATOM      4  C   UNL     1      -1.357  -4.423   0.962  0.00  0.00    +0.142 A 
ATOM      5  N   UNL     1      -1.483  -3.104   1.315  0.00  0.00    -0.254 N 
ATOM      6  C   UNL     1      -1.536  -2.743   2.631  0.00  0.00    +0.203 A 
ATOM      7  C   UNL     1      -1.461  -3.679   3.605  0.00  0.00    +0.078 A 
ATOM      8  C   UNL     1      -1.327  -5.037   3.273  0.00  0.00    +0.049 A 
ATOM      9  C   UNL     1      -1.281  -5.410   1.963  0.00  0.00    +0.067 A 
ATOM     10 CL   UNL     1      -1.229  -6.236   4.525  0.00  0.00    -0.083 Cl
ATOM     11  F   UNL     1      -1.664  -1.440   2.963  0.00  0.00    -0.185 F 
ENDROOT
BRANCH   1  12
ATOM     12  S   UNL     1      -1.700  -0.632   0.015  0.00  0.00    +0.016 S 
ATOM     13  O   UNL     1      -2.359  -0.234   1.209  0.00  0.00    -0.168 OA
ATOM     14  O   UNL     1      -2.308  -0.423  -1.252  0.00  0.00    -0.168 OA
BRANCH  12  16
ATOM     15  C   UNL     1      -0.019   1.526   0.010  0.00  0.00    +0.032 C 
ATOM     16  C   UNL     1       0.002  -0.004   0.002  0.00  0.00    +0.132 C 
ATOM     17  C   UNL     1       0.742  -0.511   1.242  0.00  0.00    +0.032 C 
ENDBRANCH  12  16
ENDBRANCH   1  12
TORSDOF 2
