REMARK  Name = ZINC22452199
REMARK  6 active torsions:
REMARK  status: ('A' for Active; 'I' for Inactive)
REMARK    1  A    between atoms: C_1  and  C_2
REMARK    2  A    between atoms: C_7  and  C_8
REMARK    3  A    between atoms: C_8  and  C_9
REMARK    4  A    between atoms: C_10  and  C_27
REMARK    5  A    between atoms: C_19  and  C_26
REMARK    6  A    between atoms: C_22  and  C_25
REMARK                            x       y       z     vdW  Elec       q    Type
REMARK                         _______ _______ _______ _____ _____    ______ ____
ROOT
ATOM      1  C   UNL     1      -0.354   0.565  -0.068  0.00  0.00    +0.042 A 
ATOM      2  C   UNL     1      -0.570   1.911  -0.128  0.00  0.00    +0.050 A 
ATOM      3  N   UNL     1       0.462   2.752  -0.164  0.00  0.00    -0.221 NA
ATOM      4  C   UNL     1       1.705   2.313  -0.143  0.00  0.00    +0.198 A 
ATOM      5  N   UNL     1       1.980   0.982  -0.084  0.00  0.00    -0.295 N 
ATOM      6  H   UNL     1       3.025   0.637  -0.067  0.00  0.00    +0.172 HD
ATOM      7  C   UNL     1       0.969   0.089  -0.045  0.00  0.00    +0.256 A 
ATOM      8  O   UNL     1       1.198  -1.108   0.008  0.00  0.00    -0.267 OA
ATOM      9  N   UNL     1       2.736   3.213  -0.182  0.00  0.00    -0.301 N 
ATOM     10  C   UNL     1       3.701   2.953   0.894  0.00  0.00    +0.111 C 
ATOM     11  C   UNL     1       4.908   3.880   0.733  0.00  0.00    +0.004 C 
ATOM     12  C   UNL     1       4.437   5.337   0.784  0.00  0.00    +0.009 C 
ATOM     13  C   UNL     1       3.397   5.567  -0.315  0.00  0.00    +0.004 C 
ATOM     14  C   UNL     1       2.234   4.591  -0.124  0.00  0.00    +0.111 C 
ATOM     15  C   UNL     1       4.040   5.334  -1.684  0.00  0.00    +0.009 C 
ATOM     16  C   UNL     1       5.903   3.625   1.867  0.00  0.00    +0.009 C 
ATOM     17  C   UNL     1      -1.978   2.447  -0.160  0.00  0.00    +0.066 C 
ENDROOT
BRANCH   1  18
ATOM     18  C   UNL     1      -1.515  -0.395  -0.027  0.00  0.00    +0.077 C 
BRANCH  18  25
ATOM     19  C   UNL     1      -3.827  -2.060  -0.505  0.00  0.00    +0.044 C 
ATOM     20  C   UNL     1      -2.943  -1.650  -1.655  0.00  0.00    -0.047 A 
ATOM     21  C   UNL     1      -3.239  -2.070  -2.938  0.00  0.00    +0.003 A 
ATOM     22  C   UNL     1      -2.429  -1.694  -3.993  0.00  0.00    +0.000 A 
ATOM     23  C   UNL     1      -1.322  -0.897  -3.764  0.00  0.00    +0.000 A 
ATOM     24  C   UNL     1      -1.030  -0.473  -2.482  0.00  0.00    +0.004 A 
ATOM     25  C   UNL     1      -1.837  -0.854  -1.426  0.00  0.00    -0.040 A 
ENDBRANCH  18  25
ENDBRANCH   1  18
TORSDOF 2
