REMARK  Name = ZINC65967548
REMARK  6 active torsions:
REMARK  status: ('A' for Active; 'I' for Inactive)
REMARK    1  A    between atoms: C_1  and  C_2
REMARK    2  A    between atoms: C_5  and  C_8
REMARK    3  A    between atoms: C_8  and  N_9
REMARK    4  A    between atoms: C_10  and  C_12
REMARK    5  A    between atoms: C_15  and  C_17
REMARK    6  A    between atoms: C_17  and  N_18
REMARK                            x       y       z     vdW  Elec       q    Type
REMARK                         _______ _______ _______ _____ _____    ______ ____
ROOT
ATOM      1  C   UNL     1       3.105  -6.540  -0.051  0.00  0.00    +0.186 A 
ATOM      2  N   UNL     1       4.241  -5.848  -0.047  0.00  0.00    -0.137 NA
ATOM      3  N   UNL     1       5.337  -6.478  -0.058  0.00  0.00    -0.148 NA
ATOM      4  C   UNL     1       5.386  -7.795  -0.072  0.00  0.00    +0.086 A 
ATOM      5  S   UNL     1       3.751  -8.207  -0.063  0.00  0.00    -0.048 S 
ENDROOT
BRANCH   1   7
ATOM      6  N   UNL     1       1.447  -4.746  -0.032  0.00  0.00    -0.305 N 
ATOM      7  C   UNL     1       1.710  -6.067  -0.040  0.00  0.00    +0.271 C 
ATOM      8  O   UNL     1       0.796  -6.870  -0.040  0.00  0.00    -0.268 OA
ATOM      9  H   UNL     1       2.176  -4.106  -0.032  0.00  0.00    +0.149 HD
BRANCH   6  10
ATOM     10  C   UNL     1       0.059  -4.275  -0.021  0.00  0.00    +0.140 C 
BRANCH  10  15
ATOM     11  C   UNL     1      -0.018   1.503   0.010  0.00  0.00    +0.044 C 
ATOM     12  C   UNL     1       0.002  -0.004   0.002  0.00  0.00    -0.050 A 
ATOM     13  C   UNL     1       0.006  -0.689  -1.199  0.00  0.00    +0.003 A 
ATOM     14  C   UNL     1       0.025  -2.071  -1.206  0.00  0.00    +0.005 A 
ATOM     15  C   UNL     1       0.040  -2.768  -0.013  0.00  0.00    -0.030 A 
ATOM     16  C   UNL     1       0.037  -2.084   1.188  0.00  0.00    +0.005 A 
ATOM     17  C   UNL     1       0.023  -0.702   1.195  0.00  0.00    +0.003 A 
ENDBRANCH  10  15
ENDBRANCH   6  10
ENDBRANCH   1   7
BRANCH   4  18
ATOM     18  C   UNL     1       6.591  -8.699  -0.086  0.00  0.00    -0.012 C 
BRANCH  18  19
ATOM     19  N   UNL     1       6.988  -9.008   1.294  0.00  0.00    +0.386 N 
ATOM     20  C   UNL     1       7.262  -7.772   1.965  0.00  0.00    -0.074 C 
ATOM     21  C   UNL     1       8.144  -7.872   3.170  0.00  0.00    -0.027 C 
ATOM     22  C   UNL     1       7.850  -9.052   4.071  0.00  0.00    +0.005 C 
ATOM     23  C   UNL     1       8.559 -10.332   3.662  0.00  0.00    -0.012 C 
ATOM     24  C   UNL     1      10.049 -10.080   3.422  0.00  0.00    +0.007 C 
ATOM     25  C   UNL     1      10.180  -9.014   2.333  0.00  0.00    -0.012 C 
ATOM     26  C   UNL     1       9.617  -7.698   2.878  0.00  0.00    +0.005 C 
ATOM     27  C   UNL     1       9.448  -9.414   1.069  0.00  0.00    -0.012 C 
ATOM     28  C   UNL     1       8.063  -9.963   1.246  0.00  0.00    -0.068 C 
ATOM     29  C   UNL     1       7.957 -10.950   2.405  0.00  0.00    -0.012 C 
ATOM     30  H   UNL     1       6.202  -9.445   1.753  0.00  0.00    -0.081 HD
ENDBRANCH  18  19
ENDBRANCH   4  18
TORSDOF 5
