REMARK  Name = ZINC39674267
REMARK  8 active torsions:
REMARK  status: ('A' for Active; 'I' for Inactive)
REMARK    1  A    between atoms: C_1  and  C_2
REMARK    2  A    between atoms: C_4  and  C_9
REMARK    3  A    between atoms: C_5  and  C_8
REMARK    4  A    between atoms: C_9  and  C_11
REMARK    5  A    between atoms: C_9  and  N_12
REMARK    6  A    between atoms: C_13  and  C_15
REMARK    7  A    between atoms: C_26  and  C_28
REMARK    8  A    between atoms: C_32  and  C_34
REMARK                            x       y       z     vdW  Elec       q    Type
REMARK                         _______ _______ _______ _____ _____    ______ ____
ROOT
ATOM      1  C   UNL     1      -0.254   2.636  -4.308  0.00  0.00    +0.100 C 
ATOM      2  C   UNL     1      -1.462   3.469  -3.822  0.00  0.00    +0.121 C 
ATOM      3  N   UNL     1      -1.753   4.394  -4.942  0.00  0.00    -0.296 N 
ATOM      4  C   UNL     1      -1.552   3.574  -6.161  0.00  0.00    +0.115 C 
ATOM      5  C   UNL     1      -0.317   2.708  -5.843  0.00  0.00    -0.004 C 
ATOM      6  C   UNL     1      -0.489   1.310  -6.430  0.00  0.00    -0.010 C 
ATOM      7  C   UNL     1      -0.490   1.400  -7.959  0.00  0.00    -0.082 C 
ATOM      8  N   UNL     1       0.772   1.993  -8.417  0.00  0.00    +0.379 N 
ATOM      9  C   UNL     1       0.886   3.371  -7.924  0.00  0.00    -0.082 C 
ATOM     10  C   UNL     1       0.945   3.365  -6.394  0.00  0.00    -0.010 C 
ATOM     11  C   UNL     1      -2.118   5.690  -4.869  0.00  0.00    +0.247 C 
ATOM     12  O   UNL     1      -2.136   6.257  -3.794  0.00  0.00    -0.270 OA
ATOM     13  H   UNL     1       1.545   1.447  -8.068  0.00  0.00    -0.086 HD
ATOM     14  H   UNL     1       0.794   1.996  -9.426  0.00  0.00    -0.086 HD
ENDROOT
BRANCH  11  15
ATOM     15  C   UNL     1      -2.497   6.420  -6.096  0.00  0.00    +0.038 A 
ATOM     16  C   UNL     1      -2.887   5.717  -7.238  0.00  0.00    +0.016 A 
ATOM     17  C   UNL     1      -3.239   6.404  -8.380  0.00  0.00    +0.039 A 
ATOM     18  C   UNL     1      -3.208   7.790  -8.396  0.00  0.00    +0.135 A 
ATOM     19  C   UNL     1      -2.822   8.493  -7.265  0.00  0.00    +0.091 A 
ATOM     20  C   UNL     1      -2.473   7.816  -6.116  0.00  0.00    +0.028 A 
ATOM     21  F   UNL     1      -3.554   8.459  -9.518  0.00  0.00    -0.205 F 
BRANCH  19  22
ATOM     22  C   UNL     1      -2.790   9.999  -7.290  0.00  0.00    +0.420 C 
ATOM     23  F   UNL     1      -2.372  10.478  -6.043  0.00  0.00    -0.166 F 
ATOM     24  F   UNL     1      -1.897  10.430  -8.277  0.00  0.00    -0.166 F 
ATOM     25  F   UNL     1      -4.069  10.489  -7.573  0.00  0.00    -0.166 F 
ENDBRANCH  19  22
ENDBRANCH  11  15
BRANCH   1  27
ATOM     26  N   UNL     1       0.721   0.440  -3.724  0.00  0.00    -0.309 N 
ATOM     27  C   UNL     1      -0.379   1.208  -3.844  0.00  0.00    +0.219 C 
ATOM     28  O   UNL     1      -1.470   0.751  -3.578  0.00  0.00    -0.275 OA
ATOM     29  H   UNL     1       1.594   0.805  -3.936  0.00  0.00    +0.149 HD
BRANCH  26  30
ATOM     30  C   UNL     1       0.599  -0.949  -3.272  0.00  0.00    +0.100 C 
ATOM     31  C   UNL     1       0.460  -0.979  -1.748  0.00  0.00    +0.033 C 
BRANCH  30  34
ATOM     32  C   UNL     1       3.702  -0.063  -3.874  0.00  0.00    +0.039 C 
ATOM     33  C   UNL     1       3.276  -1.427  -3.326  0.00  0.00    +0.154 C 
ATOM     34  C   UNL     1       1.829  -1.719  -3.679  0.00  0.00    -0.001 C 
ATOM     35  C   UNL     1       1.897  -2.818  -4.434  0.00  0.00    +0.063 C 
ATOM     36  N   UNL     1       3.179  -3.220  -4.580  0.00  0.00    -0.159 NA
ATOM     37  N   UNL     1       4.011  -2.511  -4.000  0.00  0.00    -0.180 NA
ATOM     38  C   UNL     1       0.707  -3.515  -5.042  0.00  0.00    +0.067 C 
ENDBRANCH  30  34
ENDBRANCH  26  30
ENDBRANCH   1  27
TORSDOF 5
