REMARK  Name = ZINC36384484
REMARK  5 active torsions:
REMARK  status: ('A' for Active; 'I' for Inactive)
REMARK    1  A    between atoms: C_10  and  C_14
REMARK    2  A    between atoms: C_14  and  N_15
REMARK    3  A    between atoms: N_18  and  C_21
REMARK    4  A    between atoms: C_21  and  N_23
REMARK    5  A    between atoms: N_23  and  C_24
REMARK                            x       y       z     vdW  Elec       q    Type
REMARK                         _______ _______ _______ _____ _____    ______ ____
ROOT
ATOM      1  C   UNL     1      -0.014   1.529   0.029  0.00  0.00    +0.005 C 
ATOM      2  C   UNL     1       1.419   2.068   0.021  0.00  0.00    +0.005 C 
ATOM      3  C   UNL     1       2.063   1.772   1.383  0.00  0.00    +0.043 C 
ATOM      4  C   UNL     1       1.798   0.340   1.731  0.00  0.00    -0.004 A 
ATOM      5  C   UNL     1       0.897  -0.491   1.157  0.00  0.00    -0.023 A 
ATOM      6  C   UNL     1       0.834  -1.843   1.681  0.00  0.00    +0.075 A 
ATOM      7  C   UNL     1      -0.057  -2.939   1.232  0.00  0.00    +0.282 A 
ATOM      8  O   UNL     1      -0.865  -2.791   0.330  0.00  0.00    -0.265 OA
ATOM      9  N   UNL     1       0.082  -4.113   1.886  0.00  0.00    -0.197 NA
ATOM     10  C   UNL     1       0.928  -4.316   2.853  0.00  0.00    +0.095 A 
ATOM     11  N   UNL     1       1.777  -3.366   3.321  0.00  0.00    -0.339 N 
ATOM     12  C   UNL     1       1.720  -2.145   2.732  0.00  0.00    +0.092 A 
ATOM     13  S   UNL     1       2.594  -0.635   2.983  0.00  0.00    -0.075 S 
ATOM     14  C   UNL     1       0.006   0.000   0.019  0.00  0.00    +0.037 C 
ATOM     15  H   UNL     1       2.397  -3.551   4.044  0.00  0.00    +0.167 HD
ENDROOT
BRANCH  10  16
ATOM     16  C   UNL     1       0.969  -5.682   3.488  0.00  0.00    -0.003 C 
BRANCH  16  17
ATOM     17  N   UNL     1      -0.020  -6.553   2.840  0.00  0.00    +0.386 N 
ATOM     18  C   UNL     1      -1.369  -6.034   3.096  0.00  0.00    -0.059 C 
ATOM     19  C   UNL     1      -2.393  -6.874   2.326  0.00  0.00    +0.088 C 
ATOM     20  N   UNL     1      -2.207  -8.287   2.692  0.00  0.00    -0.316 N 
ATOM     21  C   UNL     1      -0.848  -8.848   2.620  0.00  0.00    +0.088 C 
ATOM     22  C   UNL     1       0.103  -7.914   3.376  0.00  0.00    -0.059 C 
ATOM     23  H   UNL     1       0.148  -6.568   1.845  0.00  0.00    -0.081 HD
BRANCH  20  24
ATOM     24  C   UNL     1      -3.250  -9.046   3.081  0.00  0.00    +0.133 C 
ATOM     25  S   UNL     1      -3.029 -10.718   3.377  0.00  0.00    -0.019 S 
BRANCH  24  26
ATOM     26  N   UNL     1      -4.467  -8.489   3.238  0.00  0.00    -0.324 N 
ATOM     27  H   UNL     1      -4.609  -7.560   3.000  0.00  0.00    +0.148 HD
BRANCH  26  28
ATOM     28  C   UNL     1      -5.575  -9.287   3.769  0.00  0.00    +0.072 C 
ATOM     29  C   UNL     1      -6.935  -9.153   3.081  0.00  0.00    +0.024 C 
ATOM     30  C   UNL     1      -6.714  -8.540   4.466  0.00  0.00    +0.024 C 
ENDBRANCH  26  28
ENDBRANCH  24  26
ENDBRANCH  20  24
ENDBRANCH  16  17
ENDBRANCH  10  16
TORSDOF 5
