REMARK  Name = ZINC12182770
REMARK  7 active torsions:
REMARK  status: ('A' for Active; 'I' for Inactive)
REMARK    1  A    between atoms: C_1  and  C_2
REMARK    2  A    between atoms: C_5  and  C_7
REMARK    3  A    between atoms: C_9  and  N_27
REMARK    4  A    between atoms: N_12  and  C_14
REMARK    5  A    between atoms: C_14  and  C_15
REMARK    6  A    between atoms: N_17  and  C_18
REMARK    7  A    between atoms: C_24  and  C_26
REMARK                            x       y       z     vdW  Elec       q    Type
REMARK                         _______ _______ _______ _____ _____    ______ ____
ROOT
ATOM      1  C   UNL     1       2.483   1.478  -0.014  0.00  0.00    +0.128 A 
ATOM      2  C   UNL     1       3.506   2.452  -0.019  0.00  0.00    +0.061 A 
ATOM      3  C   UNL     1       4.812   2.057  -0.033  0.00  0.00    +0.094 A 
ATOM      4  C   UNL     1       5.117   0.672  -0.044  0.00  0.00    +0.288 A 
ATOM      5  O   UNL     1       6.279   0.299  -0.056  0.00  0.00    -0.264 OA
ATOM      6  N   UNL     1       4.114  -0.229  -0.039  0.00  0.00    -0.218 N 
ATOM      7  N   UNL     1       2.782   0.196  -0.019  0.00  0.00    -0.165 NA
ENDROOT
BRANCH   1  12
ATOM      8  C   UNL     1      -1.595   4.403   0.041  0.00  0.00    +0.086 C 
ATOM      9  C   UNL     1      -0.720   3.177   0.026  0.00  0.00    +0.103 A 
ATOM     10  C   UNL     1      -1.155   1.901   0.017  0.00  0.00    +0.045 A 
ATOM     11  C   UNL     1      -0.013   1.076   0.008  0.00  0.00    +0.052 A 
ATOM     12  C   UNL     1       1.067   1.902   0.002  0.00  0.00    +0.155 A 
ATOM     13  O   UNL     1       0.623   3.173   0.013  0.00  0.00    -0.458 OA
ENDBRANCH   1  12
BRANCH   3  14
ATOM     14  N   UNL     1       5.835   3.005  -0.038  0.00  0.00    -0.354 N 
ATOM     15  H   UNL     1       5.620   3.951  -0.031  0.00  0.00    +0.142 HD
ATOM     16  H   UNL     1       6.762   2.719  -0.049  0.00  0.00    +0.142 HD
ENDBRANCH   3  14
BRANCH   6  17
ATOM     17  C   UNL     1       4.422  -1.662  -0.049  0.00  0.00    +0.243 C 
BRANCH  17  18
ATOM     18  C   UNL     1       4.541  -2.160   1.368  0.00  0.00    +0.235 C 
ATOM     19  O   UNL     1       4.384  -1.394   2.296  0.00  0.00    -0.274 OA
ATOM     20  N   UNL     1       4.821  -3.457   1.605  0.00  0.00    -0.311 N 
ATOM     21  H   UNL     1       4.947  -4.069   0.864  0.00  0.00    +0.149 HD
BRANCH  20  22
ATOM     22  C   UNL     1       4.937  -3.941   2.983  0.00  0.00    +0.076 C 
ATOM     23  C   UNL     1       6.357  -3.692   3.494  0.00  0.00    +0.022 C 
ATOM     24  C   UNL     1       6.478  -4.198   4.933  0.00  0.00    +0.002 C 
ATOM     25  C   UNL     1       6.177  -5.698   4.973  0.00  0.00    +0.000 C 
ATOM     26  C   UNL     1       4.756  -5.947   4.462  0.00  0.00    +0.005 C 
ATOM     27  C   UNL     1       4.636  -5.441   3.023  0.00  0.00    +0.006 C 
ATOM     28  C   UNL     1       3.215  -5.690   2.512  0.00  0.00    +0.009 C 
ENDBRANCH  20  22
ENDBRANCH  17  18
ENDBRANCH   6  17
TORSDOF 5
