REMARK  Name = ZINC14963330
REMARK  7 active torsions:
REMARK  status: ('A' for Active; 'I' for Inactive)
REMARK    1  A    between atoms: C_1  and  C_2
REMARK    2  A    between atoms: C_2  and  C_37
REMARK    3  A    between atoms: C_7  and  C_11
REMARK    4  A    between atoms: C_11  and  N_73
REMARK    5  A    between atoms: C_15  and  C_25
REMARK    6  A    between atoms: C_16  and  O_23
REMARK    7  A    between atoms: O_23  and  C_24
REMARK                            x       y       z     vdW  Elec       q    Type
REMARK                         _______ _______ _______ _____ _____    ______ ____
ROOT
ATOM      1  C   UNL     1       1.487  -1.099   1.253  0.00  0.00    -0.072 C 
ATOM      2  C   UNL     1       2.880  -0.529   1.513  0.00  0.00    +0.036 C 
ATOM      3  C   UNL     1       3.261  -0.649   2.969  0.00  0.00    +0.036 A 
ATOM      4  C   UNL     1       4.138   0.305   3.462  0.00  0.00    +0.098 A 
ATOM      5  C   UNL     1       4.591   0.219   4.851  0.00  0.00    +0.139 A 
ATOM      6  C   UNL     1       4.123  -0.831   5.616  0.00  0.00    +0.116 A 
ATOM      7  C   UNL     1       3.237  -1.744   5.043  0.00  0.00    +0.255 A 
ATOM      8  O   UNL     1       2.834  -2.678   5.717  0.00  0.00    -0.268 OA
ATOM      9  N   UNL     1       2.809  -1.627   3.764  0.00  0.00    -0.313 N 
ATOM     10  C   UNL     1       1.828  -2.619   3.313  0.00  0.00    +0.106 C 
ATOM     11  C   UNL     1       2.260  -3.263   1.994  0.00  0.00    -0.056 C 
ATOM     12  N   UNL     1       1.601  -2.528   0.898  0.00  0.00    +0.384 N 
ATOM     13  H   UNL     1       0.660  -2.913   0.755  0.00  0.00    -0.081 HD
ENDROOT
BRANCH   4  14
ATOM     14  C   UNL     1       4.611   1.398   2.595  0.00  0.00    +0.252 C 
ATOM     15  O   UNL     1       5.673   1.296   2.012  0.00  0.00    -0.270 OA
ATOM     16  N   UNL     1       3.866   2.512   2.447  0.00  0.00    -0.293 N 
ATOM     17  C   UNL     1       4.260   3.579   1.513  0.00  0.00    +0.113 C 
ATOM     18  C   UNL     1       3.185   3.663   0.424  0.00  0.00    +0.054 C 
ATOM     19  C   UNL     1       1.807   3.682   1.032  0.00  0.00    -0.041 A 
ATOM     20  C   UNL     1       0.765   4.168   0.252  0.00  0.00    +0.004 A 
ATOM     21  C   UNL     1      -0.523   4.201   0.743  0.00  0.00    +0.000 A 
ATOM     22  C   UNL     1      -0.782   3.748   2.023  0.00  0.00    +0.000 A 
ATOM     23  C   UNL     1       0.251   3.270   2.802  0.00  0.00    +0.005 A 
ATOM     24  C   UNL     1       1.549   3.239   2.310  0.00  0.00    -0.027 A 
ATOM     25  C   UNL     1       2.633   2.712   3.216  0.00  0.00    +0.143 C 
ENDBRANCH   4  14
BRANCH   5  26
ATOM     26  O   UNL     1       5.439   1.138   5.369  0.00  0.00    -0.494 OA
ATOM     27  C   UNL     1       5.912   0.908   6.697  0.00  0.00    +0.277 C 
ENDBRANCH   5  26
BRANCH  12  28
ATOM     28  C   UNL     1       2.378  -2.678  -0.351  0.00  0.00    -0.047 C 
BRANCH  28  34
ATOM     29  C   UNL     1       2.769  -4.724  -3.527  0.00  0.00    +0.012 C 
ATOM     30  C   UNL     1       1.420  -5.194  -2.980  0.00  0.00    -0.025 C 
ATOM     31  C   UNL     1       1.515  -6.413  -2.047  0.00  0.00    -0.000 C 
ATOM     32  C   UNL     1       2.793  -6.413  -1.197  0.00  0.00    +0.031 C 
ATOM     33  C   UNL     1       3.041  -5.028  -0.650  0.00  0.00    -0.029 C 
ATOM     34  C   UNL     1       2.172  -4.072  -0.886  0.00  0.00    -0.086 C 
ATOM     35  C   UNL     1       0.949  -4.427  -1.714  0.00  0.00    +0.019 C 
ATOM     36  C   UNL     1       0.344  -5.770  -1.276  0.00  0.00    +0.012 C 
ATOM     37  C   UNL     1       0.344  -5.323  -4.061  0.00  0.00    +0.012 C 
ENDBRANCH  28  34
ENDBRANCH  12  28
TORSDOF 4
