REMARK  Name = ZINC01200925
REMARK  7 active torsions:
REMARK  status: ('A' for Active; 'I' for Inactive)
REMARK    1  A    between atoms: C_1  and  C_2
REMARK    2  A    between atoms: C_3  and  C_26
REMARK    3  A    between atoms: C_6  and  N_7
REMARK    4  A    between atoms: N_7  and  S_8
REMARK    5  A    between atoms: S_8  and  C_11
REMARK    6  A    between atoms: C_14  and  N_17
REMARK    7  A    between atoms: C_18  and  C_20
REMARK                            x       y       z     vdW  Elec       q    Type
REMARK                         _______ _______ _______ _____ _____    ______ ____
ROOT
ATOM      1  C   UNL     1       8.632   2.277   0.202  0.00  0.00    +0.109 A 
ATOM      2  C   UNL     1       8.403   0.917   0.101  0.00  0.00    +0.030 A 
ATOM      3  C   UNL     1       7.111   0.437   0.022  0.00  0.00    +0.025 A 
ATOM      4  C   UNL     1       6.040   1.322   0.043  0.00  0.00    +0.034 A 
ATOM      5  C   UNL     1       6.274   2.688   0.138  0.00  0.00    +0.025 A 
ATOM      6  C   UNL     1       7.569   3.161   0.222  0.00  0.00    +0.030 A 
ENDROOT
BRANCH   4   7
ATOM      7  N   UNL     1       4.730   0.839  -0.038  0.00  0.00    -0.281 N 
ATOM      8  C   UNL     1       4.407  -0.333   0.543  0.00  0.00    +0.255 C 
ATOM      9  O   UNL     1       5.271  -1.012   1.066  0.00  0.00    -0.269 OA
ATOM     10  H   UNL     1       4.054   1.348  -0.513  0.00  0.00    +0.155 HD
BRANCH   8  11
ATOM     11  C   UNL     1       3.015  -0.789   0.546  0.00  0.00    +0.076 A 
ATOM     12  C   UNL     1       2.478  -1.949   1.084  0.00  0.00    +0.022 A 
ATOM     13  C   UNL     1       1.125  -2.134   0.945  0.00  0.00    +0.028 A 
ATOM     14  C   UNL     1       0.389  -1.188   0.299  0.00  0.00    +0.079 A 
ATOM     15  S   UNL     1       1.571   0.001  -0.141  0.00  0.00    -0.072 S 
ATOM     16 CL   UNL     1      -1.319  -1.177  -0.010  0.00  0.00    -0.076 Cl
ENDBRANCH   8  11
ENDBRANCH   4   7
BRANCH   1  17
ATOM     17  S   UNL     1      10.283   2.885   0.303  0.00  0.00    +0.075 S 
ATOM     18  O   UNL     1      10.210   4.154   0.939  0.00  0.00    -0.150 OA
ATOM     19  O   UNL     1      11.076   1.823   0.813  0.00  0.00    -0.150 OA
BRANCH  17  20
ATOM     20  N   UNL     1      10.799   3.161  -1.246  0.00  0.00    -0.183 N 
ATOM     21  H   UNL     1      11.529   2.639  -1.614  0.00  0.00    +0.177 HD
BRANCH  20  27
ATOM     22  C   UNL     1      11.575   3.900  -4.183  0.00  0.00    +0.051 C 
ATOM     23  C   UNL     1      10.503   4.483  -3.298  0.00  0.00    +0.035 A 
ATOM     24  C   UNL     1       9.590   5.511  -3.604  0.00  0.00    +0.085 A 
ATOM     25  N   UNL     1       8.858   5.686  -2.539  0.00  0.00    -0.081 NA
ATOM     26  O   UNL     1       9.175   4.934  -1.647  0.00  0.00    -0.338 OA
ATOM     27  C   UNL     1      10.190   4.136  -2.014  0.00  0.00    +0.240 A 
ATOM     28  C   UNL     1       9.484   6.265  -4.904  0.00  0.00    +0.069 C 
ENDBRANCH  20  27
ENDBRANCH  17  20
ENDBRANCH   1  17
TORSDOF 5
