REMARK  Name = ZINC35673026
REMARK  1 active torsions:
REMARK  status: ('A' for Active; 'I' for Inactive)
REMARK    1  A    between atoms: C_4  and  C_7
REMARK                            x       y       z     vdW  Elec       q    Type
REMARK                         _______ _______ _______ _____ _____    ______ ____
ROOT
ATOM      1  C   UNL     1       3.711  -0.707  -0.038  0.00  0.00    +0.141 C 
ATOM      2  C   UNL     1       4.044  -1.200   1.332  0.00  0.00    +0.072 A 
ATOM      3  C   UNL     1       4.277  -0.480   2.588  0.00  0.00    +0.199 A 
ATOM      4  O   UNL     1       4.054   0.710   2.727  0.00  0.00    -0.287 OA
ATOM      5  C   UNL     1       4.811  -1.338   3.676  0.00  0.00    +0.064 A 
ATOM      6  C   UNL     1       5.271  -0.770   4.864  0.00  0.00    +0.015 A 
ATOM      7  C   UNL     1       5.764  -1.574   5.853  0.00  0.00    +0.001 A 
ATOM      8  C   UNL     1       5.809  -2.950   5.678  0.00  0.00    +0.004 A 
ATOM      9  C   UNL     1       5.358  -3.528   4.513  0.00  0.00    +0.047 A 
ATOM     10  C   UNL     1       4.847  -2.730   3.489  0.00  0.00    +0.139 A 
ATOM     11  O   UNL     1       4.401  -3.319   2.357  0.00  0.00    -0.450 OA
ATOM     12  C   UNL     1       4.121  -2.563   1.277  0.00  0.00    +0.199 A 
ATOM     13  C   UNL     1       3.851  -2.985  -0.108  0.00  0.00    +0.281 C 
ATOM     14  O   UNL     1       3.847  -4.137  -0.496  0.00  0.00    -0.267 OA
ATOM     15  N   UNL     1       3.611  -1.907  -0.884  0.00  0.00    -0.298 N 
ATOM     16  H   UNL     1       3.407  -1.920  -1.833  0.00  0.00    +0.150 HD
ENDROOT
BRANCH   1  20
ATOM     17  C   UNL     1      -0.017   1.378   0.010  0.00  0.00    +0.000 A 
ATOM     18  C   UNL     1       1.171   2.086   0.002  0.00  0.00    +0.000 A 
ATOM     19  C   UNL     1       2.377   1.411  -0.013  0.00  0.00    +0.006 A 
ATOM     20  C   UNL     1       2.396   0.029  -0.020  0.00  0.00    -0.023 A 
ATOM     21  C   UNL     1       1.208  -0.679  -0.012  0.00  0.00    +0.006 A 
ATOM     22  C   UNL     1       0.002  -0.004   0.002  0.00  0.00    +0.000 A 
ENDBRANCH   1  20
TORSDOF 1
