REMARK  Name = ZINC20563777
REMARK  10 active torsions:
REMARK  status: ('A' for Active; 'I' for Inactive)
REMARK    1  A    between atoms: C_1  and  C_2
REMARK    2  A    between atoms: C_2  and  C_3
REMARK    3  A    between atoms: C_3  and  C_5
REMARK    4  A    between atoms: C_3  and  N_16
REMARK    5  A    between atoms: N_7  and  C_8
REMARK    6  A    between atoms: C_11  and  C_15
REMARK    7  A    between atoms: C_21  and  C_23
REMARK    8  A    between atoms: C_24  and  C_34
REMARK    9  A    between atoms: N_25  and  C_27
REMARK   10  A    between atoms: C_30  and  C_33
REMARK                            x       y       z     vdW  Elec       q    Type
REMARK                         _______ _______ _______ _____ _____    ______ ____
ROOT
ATOM      1  N   UNL     1       3.509  -2.406   0.268  0.00  0.00    -0.215 N 
ATOM      2  C   UNL     1       3.946  -3.067   1.360  0.00  0.00    +0.296 A 
ATOM      3  O   UNL     1       4.531  -2.477   2.251  0.00  0.00    -0.264 OA
ATOM      4  C   UNL     1       3.701  -4.511   1.455  0.00  0.00    +0.161 A 
ATOM      5  C   UNL     1       2.985  -5.149   0.334  0.00  0.00    +0.051 A 
ATOM      6  C   UNL     1       2.569  -4.310  -0.787  0.00  0.00    +0.070 A 
ATOM      7  N   UNL     1       2.830  -3.037  -0.772  0.00  0.00    -0.172 NA
ATOM      8  C   UNL     1       1.835  -4.917  -1.954  0.00  0.00    +0.068 C 
ATOM      9  C   UNL     1       2.901  -6.472   0.688  0.00  0.00    +0.052 A 
ATOM     10  N   UNL     1       3.504  -6.594   1.889  0.00  0.00    -0.236 N 
ATOM     11  N   UNL     1       3.955  -5.467   2.314  0.00  0.00    -0.161 NA
ATOM     12  C   UNL     1       2.258  -7.577  -0.111  0.00  0.00    +0.066 C 
ENDROOT
BRANCH  10  13
ATOM     13  C   UNL     1       3.624  -7.802   2.589  0.00  0.00    +0.066 A 
ATOM     14  C   UNL     1       2.606  -8.744   2.530  0.00  0.00    +0.028 A 
ATOM     15  C   UNL     1       2.730  -9.936   3.217  0.00  0.00    +0.005 A 
ATOM     16  C   UNL     1       3.861 -10.187   3.971  0.00  0.00    -0.050 A 
ATOM     17  C   UNL     1       4.875  -9.248   4.036  0.00  0.00    +0.005 A 
ATOM     18  C   UNL     1       4.759  -8.057   3.347  0.00  0.00    +0.028 A 
ATOM     19  C   UNL     1       3.991 -11.486   4.724  0.00  0.00    +0.044 C 
ENDBRANCH  10  13
BRANCH   1  20
ATOM     20  C   UNL     1       3.754  -0.965   0.174  0.00  0.00    +0.196 C 
BRANCH  20  21
ATOM     21  C   UNL     1       2.438  -0.237   0.073  0.00  0.00    +0.242 C 
ATOM     22  O   UNL     1       1.398  -0.862   0.078  0.00  0.00    -0.273 OA
ATOM     23  N   UNL     1       2.416   1.107  -0.024  0.00  0.00    -0.283 N 
ATOM     24  H   UNL     1       3.359   1.667  -0.102  0.00  0.00    +0.155 HD
BRANCH  23  25
ATOM     25  C   UNL     1       1.194   1.789  -0.025  0.00  0.00    +0.052 A 
ATOM     26  C   UNL     1       0.079   1.219  -0.625  0.00  0.00    +0.025 A 
ATOM     27  C   UNL     1      -1.124   1.896  -0.628  0.00  0.00    +0.005 A 
ATOM     28  C   UNL     1      -1.223   3.137  -0.026  0.00  0.00    -0.049 A 
ATOM     29  C   UNL     1      -0.115   3.709   0.573  0.00  0.00    +0.025 A 
ATOM     30  C   UNL     1       1.093   3.038   0.575  0.00  0.00    +0.062 A 
ATOM     31 CL   UNL     1       2.484   3.756   1.327  0.00  0.00    -0.082 Cl
ATOM     32  C   UNL     1      -2.539   3.871  -0.028  0.00  0.00    +0.044 C 
ENDBRANCH  23  25
ENDBRANCH  20  21
BRANCH  20  34
ATOM     33  C   UNL     1       5.979  -1.306  -0.909  0.00  0.00    +0.006 C 
ATOM     34  C   UNL     1       4.596  -0.670  -1.068  0.00  0.00    +0.033 C 
ENDBRANCH  20  34
ENDBRANCH   1  20
TORSDOF 5
