REMARK  Name = ZINC04098236
REMARK  11 active torsions:
REMARK  status: ('A' for Active; 'I' for Inactive)
REMARK    1  A    between atoms: C_1  and  C_2
REMARK    2  A    between atoms: C_2  and  C_3
REMARK    3  A    between atoms: C_10  and  O_35
REMARK    4  A    between atoms: C_11  and  O_33
REMARK    5  A    between atoms: C_17  and  C_19
REMARK    6  A    between atoms: C_19  and  C_20
REMARK    7  A    between atoms: C_27  and  O_31
REMARK    8  A    between atoms: C_28  and  O_30
REMARK    9  A    between atoms: O_31  and  C_32
REMARK   10  A    between atoms: O_33  and  C_34
REMARK   11  A    between atoms: O_35  and  C_36
REMARK                            x       y       z     vdW  Elec       q    Type
REMARK                         _______ _______ _______ _____ _____    ______ ____
ROOT
ATOM      1  C   UNL     1       3.111  -2.343   4.110  0.00  0.00    -0.024 C 
ATOM      2  C   UNL     1       2.515  -3.663   4.608  0.00  0.00    -0.074 C 
ATOM      3  C   UNL     1       2.055  -5.957   3.966  0.00  0.00    -0.073 C 
ATOM      4  C   UNL     1       2.407  -6.987   2.891  0.00  0.00    +0.017 C 
ATOM      5  C   UNL     1       1.913  -6.519   1.546  0.00  0.00    -0.044 A 
ATOM      6  C   UNL     1       1.814  -7.449   0.521  0.00  0.00    +0.053 A 
ATOM      7  C   UNL     1       1.369  -7.065  -0.732  0.00  0.00    +0.162 A 
ATOM      8  C   UNL     1       1.020  -5.737  -0.962  0.00  0.00    +0.162 A 
ATOM      9  C   UNL     1       1.119  -4.815   0.064  0.00  0.00    +0.051 A 
ATOM     10  C   UNL     1       1.564  -5.205   1.319  0.00  0.00    -0.054 A 
ATOM     11  C   UNL     1       1.645  -4.165   2.405  0.00  0.00    -0.037 C 
ATOM     12  C   UNL     1       2.216  -2.864   1.837  0.00  0.00    -0.007 C 
ATOM     13  C   UNL     1       2.267  -1.812   2.948  0.00  0.00    -0.005 C 
ATOM     14  N   UNL     1       2.519  -4.637   3.493  0.00  0.00    +0.385 N 
ATOM     15  H   UNL     1       3.477  -4.728   3.135  0.00  0.00    -0.081 HD
ENDROOT
BRANCH   1  17
ATOM     16  C   UNL     1       4.054  -1.795   6.357  0.00  0.00    +0.004 C 
ATOM     17  C   UNL     1       3.112  -1.322   5.249  0.00  0.00    -0.002 C 
ENDBRANCH   1  17
BRANCH   8  18
ATOM     18  O   UNL     1       0.584  -5.349  -2.190  0.00  0.00    -0.491 OA
ATOM     19  C   UNL     1       0.244  -3.970  -2.351  0.00  0.00    +0.277 C 
ENDBRANCH   8  18
BRANCH   7  20
ATOM     20  O   UNL     1       1.274  -7.980  -1.733  0.00  0.00    -0.491 OA
ATOM     21  C   UNL     1       1.649  -9.323  -1.422  0.00  0.00    +0.277 C 
ENDBRANCH   7  20
BRANCH  13  22
ATOM     22  C   UNL     1       2.896  -0.526   2.406  0.00  0.00    +0.059 C 
BRANCH  22  23
ATOM     23  C   UNL     1       2.001   0.062   1.346  0.00  0.00    +0.044 C 
ATOM     24  N   UNL     1       0.894  -0.525   1.032  0.00  0.00    -0.287 NA
ATOM     25  C   UNL     1       0.002  -0.004   0.002  0.00  0.00    +0.146 C 
ATOM     26  C   UNL     1      -0.019   1.524   0.010  0.00  0.00    +0.059 C 
ATOM     27  C   UNL     1       1.395   2.044  -0.000  0.00  0.00    -0.033 A 
ATOM     28  C   UNL     1       2.386   1.311   0.664  0.00  0.00    +0.003 A 
ATOM     29  C   UNL     1       3.703   1.766   0.672  0.00  0.00    +0.059 A 
ATOM     30  C   UNL     1       4.023   2.943   0.021  0.00  0.00    +0.162 A 
ATOM     31  C   UNL     1       3.032   3.668  -0.639  0.00  0.00    +0.159 A 
ATOM     32  C   UNL     1       1.719   3.214  -0.646  0.00  0.00    +0.053 A 
BRANCH  31  33
ATOM     33  O   UNL     1       3.351   4.824  -1.278  0.00  0.00    -0.503 OA
ATOM     34  H   UNL     1       3.605   4.705  -2.203  0.00  0.00    +0.292 HD
ENDBRANCH  31  33
BRANCH  30  35
ATOM     35  O   UNL     1       5.306   3.394   0.023  0.00  0.00    -0.491 OA
ATOM     36  C   UNL     1       6.271   2.601   0.718  0.00  0.00    +0.277 C 
ENDBRANCH  30  35
ENDBRANCH  22  23
ENDBRANCH  13  22
TORSDOF 7
