REMARK  Name = ZINC37177219
REMARK  5 active torsions:
REMARK  status: ('A' for Active; 'I' for Inactive)
REMARK    1  A    between atoms: C_1  and  C_2
REMARK    2  A    between atoms: C_2  and  C_4
REMARK    3  A    between atoms: C_2  and  N_13
REMARK    4  A    between atoms: C_7  and  N_10
REMARK    5  A    between atoms: N_13  and  C_14
REMARK                            x       y       z     vdW  Elec       q    Type
REMARK                         _______ _______ _______ _____ _____    ______ ____
ROOT
ATOM      1  C   UNL     1      -0.019   1.526   0.010  0.00  0.00    +0.033 C 
ATOM      2  C   UNL     1       0.002  -0.004   0.002  0.00  0.00    +0.098 C 
ENDROOT
BRANCH   2   3
ATOM      3  C   UNL     1       0.707  -0.490  -1.238  0.00  0.00    -0.027 A 
ATOM      4  C   UNL     1       2.089  -0.511  -1.284  0.00  0.00    +0.007 A 
ATOM      5  C   UNL     1       2.736  -0.957  -2.421  0.00  0.00    +0.033 A 
ATOM      6  C   UNL     1       2.002  -1.382  -3.512  0.00  0.00    +0.126 A 
ATOM      7  C   UNL     1       0.620  -1.362  -3.466  0.00  0.00    +0.033 A 
ATOM      8  C   UNL     1      -0.027  -0.920  -2.327  0.00  0.00    +0.007 A 
BRANCH   6   9
ATOM      9  N   UNL     1       2.694  -1.859  -4.731  0.00  0.00    +0.056 N 
ATOM     10  O   UNL     1       3.902  -1.875  -4.771  0.00  0.00    -0.126 OA
ATOM     11  O   UNL     1       2.052  -2.231  -5.685  0.00  0.00    -0.126 OA
ENDBRANCH   6   9
ENDBRANCH   2   3
BRANCH   2  12
ATOM     12  N   UNL     1       0.711  -0.489   1.189  0.00  0.00    -0.336 N 
ATOM     13  H   UNL     1       1.654  -0.707   1.135  0.00  0.00    +0.147 HD
BRANCH  12  14
ATOM     14  C   UNL     1       0.026  -0.639   2.400  0.00  0.00    +0.046 A 
ATOM     15  C   UNL     1      -1.326  -0.333   2.477  0.00  0.00    +0.027 A 
ATOM     16  C   UNL     1      -2.000  -0.481   3.673  0.00  0.00    +0.040 A 
ATOM     17  C   UNL     1      -1.329  -0.934   4.796  0.00  0.00    +0.125 A 
ATOM     18  C   UNL     1       0.020  -1.240   4.723  0.00  0.00    +0.060 A 
ATOM     19  C   UNL     1       0.697  -1.099   3.526  0.00  0.00    +0.064 A 
ATOM     20 CL   UNL     1       2.386  -1.489   3.433  0.00  0.00    -0.082 Cl
ATOM     21  F   UNL     1      -1.990  -1.078   5.965  0.00  0.00    -0.205 F 
ENDBRANCH  12  14
ENDBRANCH   2  12
TORSDOF 4
