REMARK  Name = ZINC06814896
REMARK  4 active torsions:
REMARK  status: ('A' for Active; 'I' for Inactive)
REMARK    1  A    between atoms: C_1  and  C_2
REMARK    2  A    between atoms: C_5  and  C_8
REMARK    3  A    between atoms: C_10  and  C_27
REMARK    4  A    between atoms: C_11  and  N_26
REMARK                            x       y       z     vdW  Elec       q    Type
REMARK                         _______ _______ _______ _____ _____    ______ ____
ROOT
ATOM      1  C   UNL     1      -0.140  -4.702  -0.108  0.00  0.00    +0.097 C 
ATOM      2  C   UNL     1       1.175  -4.914   0.582  0.00  0.00    +0.077 C 
ATOM      3  C   UNL     1       1.253  -4.991   1.935  0.00  0.00    +0.109 C 
ATOM      4  N   UNL     1       0.113  -4.881   2.701  0.00  0.00    -0.229 N 
ATOM      5  C   UNL     1      -1.123  -5.092   2.143  0.00  0.00    +0.027 C 
ATOM      6  C   UNL     1      -1.294  -5.025   0.808  0.00  0.00    +0.025 C 
ATOM      7  C   UNL     1      -2.554  -5.257   0.227  0.00  0.00    +0.162 C 
ATOM      8  O   UNL     1      -2.677  -5.183  -0.979  0.00  0.00    -0.292 OA
ATOM      9  C   UNL     1      -3.752  -5.595   1.072  0.00  0.00    +0.080 C 
ATOM     10  C   UNL     1      -3.280  -6.304   2.346  0.00  0.00    +0.014 C 
ATOM     11  C   UNL     1      -2.281  -5.396   3.062  0.00  0.00    +0.052 C 
ATOM     12  C   UNL     1       0.215  -4.555   4.048  0.00  0.00    +0.223 A 
ATOM     13  H   UNL     1      -1.757  -4.287   4.658  0.00  0.00    +0.192 HD
ATOM     14  N   UNL     1       1.330  -4.446   4.735  0.00  0.00    -0.201 NA
ATOM     15  C   UNL     1       1.051  -4.119   5.997  0.00  0.00    +0.246 A 
ATOM     16  N   UNL     1      -0.244  -4.015   6.135  0.00  0.00    -0.160 NA
ATOM     17  N   UNL     1      -0.813  -4.288   4.880  0.00  0.00    -0.246 N 
ENDROOT
BRANCH   1  22
ATOM     18  C   UNL     1      -0.539   0.817  -1.774  0.00  0.00    +0.044 C 
ATOM     19  C   UNL     1      -0.435  -0.622  -1.339  0.00  0.00    -0.050 A 
ATOM     20  C   UNL     1      -0.473  -1.633  -2.281  0.00  0.00    +0.003 A 
ATOM     21  C   UNL     1      -0.378  -2.953  -1.883  0.00  0.00    +0.005 A 
ATOM     22  C   UNL     1      -0.244  -3.262  -0.542  0.00  0.00    -0.035 A 
ATOM     23  C   UNL     1      -0.205  -2.252   0.400  0.00  0.00    +0.005 A 
ATOM     24  C   UNL     1      -0.296  -0.931   0.001  0.00  0.00    +0.003 A 
ENDBRANCH   1  22
BRANCH   3  25
ATOM     25  N   UNL     1       2.471  -5.178   2.543  0.00  0.00    -0.345 N 
ATOM     26  H   UNL     1       3.290  -5.039   2.041  0.00  0.00    +0.144 HD
ATOM     27  H   UNL     1       2.513  -5.450   3.473  0.00  0.00    +0.144 HD
ENDBRANCH   3  25
BRANCH   2  28
ATOM     28  C   UNL     1       2.368  -5.038  -0.200  0.00  0.00    +0.099 C 
ATOM     29  N   UNL     1       3.314  -5.136  -0.820  0.00  0.00    -0.191 NA
ENDBRANCH   2  28
TORSDOF 3
