REMARK  Name = ZINC13487303
REMARK  3 active torsions:
REMARK  status: ('A' for Active; 'I' for Inactive)
REMARK    1  A    between atoms: C_4  and  C_7
REMARK    2  A    between atoms: C_14  and  O_19
REMARK    3  A    between atoms: C_15  and  O_18
REMARK                            x       y       z     vdW  Elec       q    Type
REMARK                         _______ _______ _______ _____ _____    ______ ____
ROOT
ATOM      1  C   UNL     1      -0.898  -3.544  -0.008  0.00  0.00    +0.058 C 
ATOM      2  C   UNL     1      -0.341  -2.308  -0.029  0.00  0.00    +0.176 C 
ATOM      3  C   UNL     1      -1.065  -1.026  -0.023  0.00  0.00    +0.232 C 
ATOM      4  O   UNL     1      -2.270  -0.851   0.002  0.00  0.00    -0.283 OA
ATOM      5  C   UNL     1      -0.004  -0.003  -0.054  0.00  0.00    +0.071 A 
ATOM      6  C   UNL     1      -0.025   1.393  -0.064  0.00  0.00    +0.019 A 
ATOM      7  C   UNL     1       1.148   2.094  -0.094  0.00  0.00    +0.050 A 
ATOM      8  C   UNL     1       2.365   1.419  -0.116  0.00  0.00    +0.162 A 
ATOM      9  C   UNL     1       2.403   0.031  -0.106  0.00  0.00    +0.202 A 
ATOM     10  C   UNL     1       1.215  -0.697  -0.075  0.00  0.00    +0.184 A 
ATOM     11  O   UNL     1       0.984  -2.028  -0.060  0.00  0.00    -0.448 OA
ENDROOT
BRANCH   1  15
ATOM     12  C   UNL     1       1.555  -6.984  -0.370  0.00  0.00    +0.000 A 
ATOM     13  C   UNL     1       2.136  -5.732  -0.265  0.00  0.00    +0.001 A 
ATOM     14  C   UNL     1       1.346  -4.608  -0.147  0.00  0.00    +0.008 A 
ATOM     15  C   UNL     1      -0.048  -4.736  -0.134  0.00  0.00    -0.021 A 
ATOM     16  C   UNL     1      -0.627  -6.006  -0.234  0.00  0.00    +0.008 A 
ATOM     17  C   UNL     1       0.177  -7.119  -0.357  0.00  0.00    +0.001 A 
ENDBRANCH   1  15
BRANCH   9  18
ATOM     18  O   UNL     1       3.599  -0.618  -0.127  0.00  0.00    -0.501 OA
ATOM     19  H   UNL     1       3.925  -0.812  -1.016  0.00  0.00    +0.292 HD
ENDBRANCH   9  18
BRANCH   8  20
ATOM     20  O   UNL     1       3.525   2.125  -0.146  0.00  0.00    -0.503 OA
ATOM     21  H   UNL     1       3.842   2.323  -1.038  0.00  0.00    +0.292 HD
ENDBRANCH   8  20
TORSDOF 3
