REMARK  Name = ZINC37053264
REMARK  6 active torsions:
REMARK  status: ('A' for Active; 'I' for Inactive)
REMARK    1  A    between atoms: C_1  and  C_2
REMARK    2  A    between atoms: C_2  and  C_3
REMARK    3  A    between atoms: C_6  and  N_19
REMARK    4  A    between atoms: C_8  and  S_9
REMARK    5  A    between atoms: S_9  and  N_12
REMARK    6  A    between atoms: C_16  and  C_18
REMARK                            x       y       z     vdW  Elec       q    Type
REMARK                         _______ _______ _______ _____ _____    ______ ____
ROOT
ATOM      1  C   UNL     1      -1.412  -0.526   0.013  0.00  0.00    -0.021 A 
ATOM      2  C   UNL     1      -2.013  -0.864   1.211  0.00  0.00    +0.007 A 
ATOM      3  C   UNL     1      -3.309  -1.342   1.225  0.00  0.00    +0.023 A 
ATOM      4  C   UNL     1      -4.008  -1.483   0.032  0.00  0.00    +0.026 A 
ATOM      5  C   UNL     1      -3.400  -1.143  -1.169  0.00  0.00    +0.052 A 
ATOM      6  C   UNL     1      -2.106  -0.660  -1.175  0.00  0.00    +0.117 A 
ENDROOT
BRANCH   6   7
ATOM      7  S   UNL     1      -1.337  -0.221  -2.699  0.00  0.00    +0.101 S 
ATOM      8  O   UNL     1      -0.063  -0.849  -2.706  0.00  0.00    -0.146 OA
ATOM      9  O   UNL     1      -2.302  -0.443  -3.719  0.00  0.00    -0.146 OA
BRANCH   7  10
ATOM     10  N   UNL     1      -1.061   1.411  -2.655  0.00  0.00    -0.103 NA
ATOM     11  C   UNL     1      -0.492   2.006  -3.675  0.00  0.00    +0.192 A 
ATOM     12  N   UNL     1      -0.056   1.471  -4.867  0.00  0.00    -0.339 N 
ATOM     13  C   UNL     1       0.512   2.304  -5.785  0.00  0.00    +0.095 A 
ATOM     14  C   UNL     1       0.638   3.605  -5.523  0.00  0.00    +0.006 A 
ATOM     15  S   UNL     1      -0.081   3.731  -3.893  0.00  0.00    -0.054 S 
ATOM     16  C   UNL     1       1.228   4.692  -6.384  0.00  0.00    +0.053 C 
ATOM     17  H   UNL     1      -0.150   0.523  -5.049  0.00  0.00    +0.167 HD
ENDBRANCH   7  10
ENDBRANCH   6   7
BRANCH   4  18
ATOM     18  N   UNL     1      -5.318  -1.967   0.042  0.00  0.00    -0.358 N 
ATOM     19  H   UNL     1      -5.741  -2.205   0.882  0.00  0.00    +0.142 HD
ATOM     20  H   UNL     1      -5.805  -2.066  -0.791  0.00  0.00    +0.142 HD
ENDBRANCH   4  18
BRANCH   1  22
ATOM     21  C   UNL     1      -0.019   1.526   0.010  0.00  0.00    +0.009 C 
ATOM     22  C   UNL     1       0.002  -0.004   0.002  0.00  0.00    +0.034 C 
ENDBRANCH   1  22
TORSDOF 4
