REMARK  Name = ZINC14960685
REMARK  7 active torsions:
REMARK  status: ('A' for Active; 'I' for Inactive)
REMARK    1  A    between atoms: C_1  and  C_2
REMARK    2  A    between atoms: C_3  and  C_7
REMARK    3  A    between atoms: N_17  and  C_20
REMARK    4  A    between atoms: C_20  and  C_21
REMARK    5  A    between atoms: C_21  and  C_22
REMARK    6  A    between atoms: C_21  and  C_23
REMARK    7  A    between atoms: C_21  and  C_24
REMARK                            x       y       z     vdW  Elec       q    Type
REMARK                         _______ _______ _______ _____ _____    ______ ____
ROOT
ATOM      1  C   UNL     1      -6.119   1.968   0.756  0.00  0.00    +0.268 C 
ATOM      2  O   UNL     1      -6.408   0.852   1.143  0.00  0.00    -0.268 OA
ATOM      3  N   UNL     1      -5.051   2.605   1.276  0.00  0.00    -0.295 N 
ATOM      4  C   UNL     1      -4.590   3.951   0.901  0.00  0.00    +0.109 C 
ATOM      5  C   UNL     1      -3.325   4.252   1.734  0.00  0.00    +0.036 C 
ATOM      6  C   UNL     1      -2.831   2.844   2.131  0.00  0.00    +0.064 C 
ATOM      7  C   UNL     1      -4.151   2.068   2.315  0.00  0.00    +0.124 C 
ATOM      8  C   UNL     1      -2.059   2.902   3.442  0.00  0.00    +0.019 C 
ATOM      9  C   UNL     1      -0.661   3.467   3.158  0.00  0.00    +0.020 C 
ATOM     10  C   UNL     1       0.104   2.474   2.283  0.00  0.00    +0.108 C 
ATOM     11  N   UNL     1      -0.683   2.105   1.112  0.00  0.00    -0.300 N 
ATOM     12  C   UNL     1      -2.010   2.248   1.034  0.00  0.00    +0.223 C 
ATOM     13  O   UNL     1      -2.574   1.873   0.028  0.00  0.00    -0.275 OA
ENDROOT
BRANCH   1  16
ATOM     14  C   UNL     1      -8.647   0.750  -0.638  0.00  0.00    +0.089 C 
ATOM     15  C   UNL     1      -8.035   2.104  -0.892  0.00  0.00    +0.134 A 
ATOM     16  C   UNL     1      -6.936   2.623  -0.281  0.00  0.00    +0.166 A 
ATOM     17  N   UNL     1      -6.737   3.864  -0.802  0.00  0.00    -0.211 NA
ATOM     18  C   UNL     1      -7.657   4.089  -1.692  0.00  0.00    +0.308 A 
ATOM     19  O   UNL     1      -8.470   3.026  -1.765  0.00  0.00    -0.447 OA
ENDBRANCH   1  16
BRANCH  11  20
ATOM     20  C   UNL     1       0.021   1.550  -0.046  0.00  0.00    +0.113 C 
BRANCH  20  21
ATOM     21  C   UNL     1       0.138   0.032   0.106  0.00  0.00    -0.022 C 
ATOM     22  C   UNL     1      -1.252  -0.566   0.329  0.00  0.00    +0.012 C 
ATOM     23  C   UNL     1       0.752  -0.563  -1.163  0.00  0.00    +0.012 C 
ATOM     24  C   UNL     1       1.031  -0.293   1.306  0.00  0.00    +0.012 C 
ENDBRANCH  20  21
ENDBRANCH  11  20
TORSDOF 3
