REMARK  Name = ZINC48731185
REMARK  6 active torsions:
REMARK  status: ('A' for Active; 'I' for Inactive)
REMARK    1  A    between atoms: C_3  and  C_6
REMARK    2  A    between atoms: C_6  and  C_8
REMARK    3  A    between atoms: C_6  and  N_23
REMARK    4  A    between atoms: C_8  and  N_9
REMARK    5  A    between atoms: C_10  and  C_12
REMARK    6  A    between atoms: N_14  and  C_15
REMARK                            x       y       z     vdW  Elec       q    Type
REMARK                         _______ _______ _______ _____ _____    ______ ____
ROOT
ATOM      1  N   UNL     1       5.545   0.037  -1.565  0.00  0.00    -0.309 N 
ATOM      2  C   UNL     1       6.152  -0.300  -2.720  0.00  0.00    +0.299 C 
ATOM      3  O   UNL     1       5.497  -0.436  -3.733  0.00  0.00    -0.265 OA
ATOM      4  H   UNL     1       6.069   0.146  -0.756  0.00  0.00    +0.149 HD
ENDROOT
BRANCH   2   5
ATOM      5  C   UNL     1       7.631  -0.505  -2.754  0.00  0.00    +0.303 C 
ATOM      6  O   UNL     1       8.286  -0.368  -1.741  0.00  0.00    -0.265 OA
ATOM      7  N   UNL     1       8.239  -0.842  -3.909  0.00  0.00    -0.275 N 
ATOM      8  H   UNL     1       7.726  -0.887  -4.731  0.00  0.00    +0.155 HD
BRANCH   7   9
ATOM      9  C   UNL     1       9.608  -1.126  -3.922  0.00  0.00    +0.069 A 
ATOM     10  C   UNL     1      10.205  -1.726  -2.821  0.00  0.00    +0.027 A 
ATOM     11  C   UNL     1      11.557  -2.006  -2.837  0.00  0.00    +0.022 A 
ATOM     12  C   UNL     1      12.319  -1.688  -3.948  0.00  0.00    +0.044 A 
ATOM     13  C   UNL     1      11.729  -1.090  -5.048  0.00  0.00    +0.060 A 
ATOM     14  C   UNL     1      10.374  -0.813  -5.041  0.00  0.00    +0.146 A 
ATOM     15  F   UNL     1       9.796  -0.234  -6.116  0.00  0.00    -0.203 F 
ATOM     16 CL   UNL     1      14.019  -2.042  -3.963  0.00  0.00    -0.083 Cl
ENDBRANCH   7   9
ENDBRANCH   2   5
BRANCH   1  17
ATOM     17  C   UNL     1       4.094   0.238  -1.532  0.00  0.00    +0.097 C 
BRANCH  17  18
ATOM     18  C   UNL     1       3.647   0.484  -0.090  0.00  0.00    +0.016 C 
BRANCH  18  19
ATOM     19  N   UNL     1       4.082  -0.636   0.756  0.00  0.00    +0.387 N 
ATOM     20  C   UNL     1       3.572  -1.895   0.199  0.00  0.00    -0.078 C 
ATOM     21  C   UNL     1       4.089  -3.071   1.030  0.00  0.00    -0.019 C 
ATOM     22  C   UNL     1       3.609  -2.918   2.476  0.00  0.00    -0.004 C 
ATOM     23  C   UNL     1       4.084  -1.569   3.022  0.00  0.00    -0.019 C 
ATOM     24  C   UNL     1       3.567  -0.448   2.117  0.00  0.00    -0.078 C 
ATOM     25  H   UNL     1       5.090  -0.665   0.780  0.00  0.00    -0.081 HD
ENDBRANCH  18  19
BRANCH  18  28
ATOM     26  C   UNL     1       0.076   1.375   0.111  0.00  0.00    +0.041 A 
ATOM     27  C   UNL     1       1.444   1.730   0.132  0.00  0.00    +0.043 A 
ATOM     28  C   UNL     1       2.144   0.595  -0.042  0.00  0.00    +0.093 A 
ATOM     29  O   UNL     1       1.277  -0.423  -0.167  0.00  0.00    -0.469 OA
ATOM     30  C   UNL     1       0.022   0.044  -0.075  0.00  0.00    +0.195 A 
ENDBRANCH  18  28
ENDBRANCH  17  18
ENDBRANCH   1  17
TORSDOF 6
