REMARK  Name = ZINC35808500
REMARK  7 active torsions:
REMARK  status: ('A' for Active; 'I' for Inactive)
REMARK    1  A    between atoms: C_1  and  C_2
REMARK    2  A    between atoms: C_6  and  O_33
REMARK    3  A    between atoms: C_7  and  O_31
REMARK    4  A    between atoms: N_12  and  C_13
REMARK    5  A    between atoms: N_18  and  C_21
REMARK    6  A    between atoms: O_31  and  C_32
REMARK    7  A    between atoms: O_33  and  C_34
REMARK                            x       y       z     vdW  Elec       q    Type
REMARK                         _______ _______ _______ _____ _____    ______ ____
ROOT
ATOM      1  C   UNL     1       2.223  -0.090   0.901  0.00  0.00    +0.030 C 
ATOM      2  C   UNL     1       2.765  -0.713  -0.401  0.00  0.00    +0.091 C 
ATOM      3  C   UNL     1       3.905  -1.588   0.072  0.00  0.00    +0.225 C 
ATOM      4  O   UNL     1       4.613  -2.267  -0.641  0.00  0.00    -0.275 OA
ATOM      5  N   UNL     1       4.009  -1.495   1.403  0.00  0.00    -0.211 N 
ATOM      6  C   UNL     1       3.112  -0.676   1.976  0.00  0.00    +0.213 C 
ATOM      7  O   UNL     1       3.026  -0.443   3.163  0.00  0.00    -0.277 OA
ENDROOT
BRANCH   1  18
ATOM      8  C   UNL     1      -0.017   1.609   0.174  0.00  0.00    -0.008 C 
ATOM      9  C   UNL     1      -0.014   0.083   0.056  0.00  0.00    -0.039 C 
ATOM     10  C   UNL     1      -1.427  -0.426   0.169  0.00  0.00    -0.054 A 
ATOM     11  C   UNL     1      -2.436   0.276  -0.475  0.00  0.00    +0.051 A 
ATOM     12  C   UNL     1      -3.747  -0.158  -0.401  0.00  0.00    +0.162 A 
ATOM     13  C   UNL     1      -4.055  -1.305   0.325  0.00  0.00    +0.162 A 
ATOM     14  C   UNL     1      -3.046  -2.001   0.967  0.00  0.00    +0.053 A 
ATOM     15  C   UNL     1      -1.733  -1.561   0.890  0.00  0.00    -0.044 A 
ATOM     16  C   UNL     1      -0.666  -2.345   1.611  0.00  0.00    +0.017 C 
ATOM     17  C   UNL     1       0.713  -1.948   1.084  0.00  0.00    -0.072 C 
ATOM     18  N   UNL     1       0.824  -0.482   1.118  0.00  0.00    +0.392 N 
ATOM     19  H   UNL     1       0.510  -0.140   2.014  0.00  0.00    -0.080 HD
BRANCH  13  20
ATOM     20  O   UNL     1      -5.341  -1.740   0.403  0.00  0.00    -0.491 OA
ATOM     21  C   UNL     1      -5.580  -2.924   1.166  0.00  0.00    +0.277 C 
ENDBRANCH  13  20
BRANCH  12  22
ATOM     22  O   UNL     1      -4.732   0.533  -1.035  0.00  0.00    -0.491 OA
ATOM     23  C   UNL     1      -4.341   1.700  -1.761  0.00  0.00    +0.277 C 
ENDBRANCH  12  22
ENDBRANCH   1  18
BRANCH   5  24
ATOM     24  C   UNL     1       4.974  -2.191   2.139  0.00  0.00    +0.052 A 
ATOM     25  C   UNL     1       6.204  -1.622   2.386  0.00  0.00    +0.024 A 
ATOM     26  C   UNL     1       7.171  -2.306   3.117  0.00  0.00    +0.002 A 
ATOM     27  C   UNL     1       6.931  -3.553   3.606  0.00  0.00    +0.008 A 
ATOM     28  C   UNL     1       5.689  -4.170   3.375  0.00  0.00    -0.016 A 
ATOM     29  C   UNL     1       4.695  -3.481   2.638  0.00  0.00    +0.004 A 
ATOM     30  C   UNL     1       3.453  -4.096   2.413  0.00  0.00    +0.010 A 
ATOM     31  C   UNL     1       3.218  -5.342   2.909  0.00  0.00    +0.001 A 
ATOM     32  C   UNL     1       4.194  -6.018   3.639  0.00  0.00    +0.001 A 
ATOM     33  C   UNL     1       5.413  -5.457   3.868  0.00  0.00    +0.008 A 
ENDBRANCH   5  24
TORSDOF 4
