REMARK  Name = ZINC63139447
REMARK  7 active torsions:
REMARK  status: ('A' for Active; 'I' for Inactive)
REMARK    1  A    between atoms: C_1  and  O_2
REMARK    2  A    between atoms: O_2  and  C_3
REMARK    3  A    between atoms: C_8  and  C_9
REMARK    4  A    between atoms: C_9  and  N_10
REMARK    5  A    between atoms: C_30  and  C_32
REMARK    6  A    between atoms: C_32  and  C_33
REMARK    7  A    between atoms: C_33  and  C_34
REMARK                            x       y       z     vdW  Elec       q    Type
REMARK                         _______ _______ _______ _____ _____    ______ ____
ROOT
ATOM      1  N   UNL     1      -1.870  -3.398   0.134  0.00  0.00    -0.287 N 
ATOM      2  C   UNL     1      -2.822  -2.418   0.689  0.00  0.00    +0.204 C 
ATOM      3  C   UNL     1      -3.609  -1.812  -0.454  0.00  0.00    +0.234 C 
ATOM      4  O   UNL     1      -3.822  -0.620  -0.516  0.00  0.00    -0.274 OA
ATOM      5  N   UNL     1      -4.069  -2.675  -1.419  0.00  0.00    -0.283 N 
ATOM      6  C   UNL     1      -3.808  -4.078  -1.173  0.00  0.00    +0.167 C 
ATOM      7  C   UNL     1      -2.357  -4.263  -0.805  0.00  0.00    +0.237 C 
ATOM      8  O   UNL     1      -1.669  -5.125  -1.307  0.00  0.00    -0.274 OA
ATOM      9  C   UNL     1      -4.271  -5.082  -2.197  0.00  0.00    +0.065 C 
ATOM     10  C   UNL     1      -4.743  -4.369  -3.434  0.00  0.00    -0.034 C 
ATOM     11  C   UNL     1      -4.586  -4.630  -4.725  0.00  0.00    -0.001 A 
ATOM     12  C   UNL     1      -3.926  -5.742  -5.428  0.00  0.00    +0.010 A 
ATOM     13  C   UNL     1      -3.943  -5.689  -6.786  0.00  0.00    +0.001 A 
ATOM     14  C   UNL     1      -4.543  -4.652  -7.507  0.00  0.00    +0.002 A 
ATOM     15  C   UNL     1      -5.177  -3.593  -6.944  0.00  0.00    +0.026 A 
ATOM     16  C   UNL     1      -5.228  -3.539  -5.520  0.00  0.00    +0.043 A 
ATOM     17  N   UNL     1      -5.769  -2.660  -4.732  0.00  0.00    -0.376 N 
ATOM     18  C   UNL     1      -5.568  -3.087  -3.341  0.00  0.00    +0.127 C 
ATOM     19  C   UNL     1      -4.713  -2.084  -2.583  0.00  0.00    +0.104 C 
ATOM     20  H   UNL     1      -6.231  -1.855  -5.015  0.00  0.00    +0.160 HD
ENDROOT
BRANCH   1  21
ATOM     21  C   UNL     1      -0.470  -3.438   0.564  0.00  0.00    +0.147 C 
BRANCH  21  27
ATOM     22  C   UNL     1       0.357  -1.163  -0.087  0.00  0.00    +0.125 A 
ATOM     23  C   UNL     1       1.119  -0.330  -0.894  0.00  0.00    +0.046 A 
ATOM     24  C   UNL     1       1.865  -0.865  -1.926  0.00  0.00    +0.004 A 
ATOM     25  C   UNL     1       1.854  -2.229  -2.155  0.00  0.00    +0.001 A 
ATOM     26  C   UNL     1       1.095  -3.060  -1.352  0.00  0.00    +0.009 A 
ATOM     27  C   UNL     1       0.351  -2.531  -0.315  0.00  0.00    +0.011 A 
BRANCH  22  29
ATOM     28  C   UNL     1      -0.324   0.778   1.106  0.00  0.00    +0.277 C 
ATOM     29  O   UNL     1      -0.377  -0.639   0.930  0.00  0.00    -0.495 OA
ENDBRANCH  22  29
ENDBRANCH  21  27
ENDBRANCH   1  21
BRANCH  19  30
ATOM     30  C   UNL     1      -5.568  -0.899  -2.130  0.00  0.00    +0.029 C 
BRANCH  30  31
ATOM     31  C   UNL     1      -6.519  -1.351  -1.020  0.00  0.00    +0.037 C 
BRANCH  31  32
ATOM     32  C   UNL     1      -7.446  -0.218  -0.661  0.00  0.00    -0.047 A 
ATOM     33  C   UNL     1      -7.086   0.683   0.324  0.00  0.00    +0.003 A 
ATOM     34  C   UNL     1      -7.937   1.722   0.653  0.00  0.00    +0.000 A 
ATOM     35  C   UNL     1      -9.146   1.860  -0.002  0.00  0.00    +0.000 A 
ATOM     36  C   UNL     1      -9.505   0.959  -0.987  0.00  0.00    +0.000 A 
ATOM     37  C   UNL     1      -8.653  -0.077  -1.319  0.00  0.00    +0.003 A 
ENDBRANCH  31  32
ENDBRANCH  30  31
ENDBRANCH  19  30
TORSDOF 6
