REMARK  Name = ZINC15723500
REMARK  5 active torsions:
REMARK  status: ('A' for Active; 'I' for Inactive)
REMARK    1  A    between atoms: C_1  and  C_2
REMARK    2  A    between atoms: C_2  and  C_3
REMARK    3  A    between atoms: C_3  and  C_5
REMARK    4  A    between atoms: C_3  and  N_6
REMARK    5  A    between atoms: C_7  and  C_9
REMARK                            x       y       z     vdW  Elec       q    Type
REMARK                         _______ _______ _______ _____ _____    ______ ____
ROOT
ATOM      1  C   UNL     1      -1.167   1.879   0.017  0.00  0.00    +0.100 A 
ATOM      2  C   UNL     1      -0.013   1.076   0.008  0.00  0.00    +0.150 A 
ATOM      3  N   UNL     1       1.039   1.851   0.002  0.00  0.00    -0.172 NA
ATOM      4  N   UNL     1       0.634   3.190   0.015  0.00  0.00    -0.218 N 
ATOM      5  C   UNL     1      -0.734   3.219   0.025  0.00  0.00    +0.168 A 
ATOM      6  N   UNL     1      -1.395   4.378   0.036  0.00  0.00    -0.235 NA
ATOM      7  C   UNL     1      -0.754   5.528   0.045  0.00  0.00    +0.118 A 
ATOM      8  C   UNL     1       0.641   5.540   0.041  0.00  0.00    -0.008 A 
ATOM      9  C   UNL     1       1.319   4.361   0.018  0.00  0.00    +0.050 A 
ATOM     10  C   UNL     1       2.821   4.423  -0.017  0.00  0.00    +0.056 C 
ATOM     11  C   UNL     1       3.416   4.591   1.346  0.00  0.00    +0.006 C 
ATOM     12  C   UNL     1       3.398   5.973   1.967  0.00  0.00    +0.000 C 
ATOM     13  C   UNL     1       1.982   6.326   2.457  0.00  0.00    +0.000 C 
ATOM     14  C   UNL     1       1.396   7.388   1.488  0.00  0.00    +0.005 C 
ATOM     15  C   UNL     1       1.424   6.824   0.068  0.00  0.00    +0.038 C 
ENDROOT
BRANCH   1  17
ATOM     16  N   UNL     1      -2.821   0.090   0.016  0.00  0.00    -0.309 N 
ATOM     17  C   UNL     1      -2.555   1.411   0.021  0.00  0.00    +0.249 C 
ATOM     18  O   UNL     1      -3.469   2.215   0.029  0.00  0.00    -0.270 OA
ATOM     19  H   UNL     1      -2.093  -0.551   0.010  0.00  0.00    +0.149 HD
BRANCH  16  20
ATOM     20  C   UNL     1      -4.209  -0.378   0.020  0.00  0.00    +0.070 C 
ATOM     21  C   UNL     1      -4.739  -0.415  -1.415  0.00  0.00    +0.028 C 
BRANCH  20  23
ATOM     22  C   UNL     1      -3.861  -1.724   2.095  0.00  0.00    +0.005 C 
ATOM     23  C   UNL     1      -4.272  -1.783   0.623  0.00  0.00    +0.018 C 
ENDBRANCH  20  23
ENDBRANCH  16  20
ENDBRANCH   1  17
TORSDOF 3
