REMARK  Name = ZINC59336049
REMARK  7 active torsions:
REMARK  status: ('A' for Active; 'I' for Inactive)
REMARK    1  A    between atoms: C_1  and  O_2
REMARK    2  A    between atoms: O_2  and  C_3
REMARK    3  A    between atoms: C_4  and  N_25
REMARK    4  A    between atoms: C_6  and  C_10
REMARK    5  A    between atoms: C_11  and  C_12
REMARK    6  A    between atoms: C_11  and  C_14
REMARK    7  A    between atoms: N_16  and  C_17
REMARK                            x       y       z     vdW  Elec       q    Type
REMARK                         _______ _______ _______ _____ _____    ______ ____
ROOT
ATOM      1  C   UNL     1       2.549  -2.623   4.237  0.00  0.00    +0.032 C 
ATOM      2  C   UNL     1       1.877  -2.843   5.420  0.00  0.00    +0.114 C 
ENDROOT
BRANCH   1   6
ATOM      3  C   UNL     1       0.679  -0.477   1.105  0.00  0.00    +0.164 A 
ATOM      4  C   UNL     1       1.398  -1.633   0.824  0.00  0.00    +0.169 A 
ATOM      5  C   UNL     1       2.003  -2.329   1.831  0.00  0.00    +0.044 A 
ATOM      6  C   UNL     1       1.901  -1.879   3.155  0.00  0.00    -0.020 A 
ATOM      7  C   UNL     1       1.176  -0.712   3.439  0.00  0.00    +0.027 A 
ATOM      8  C   UNL     1       0.574  -0.016   2.414  0.00  0.00    +0.062 A 
ATOM      9 BR   UNL     1      -0.400   1.561   2.787  0.00  0.00    -0.046 Br
BRANCH   4  10
ATOM     10  N   UNL     1       1.508  -2.111  -0.573  0.00  0.00    +0.060 N 
ATOM     11  O   UNL     1       2.133  -3.116  -0.820  0.00  0.00    -0.126 OA
ATOM     12  O   UNL     1       0.973  -1.497  -1.466  0.00  0.00    -0.126 OA
ENDBRANCH   4  10
BRANCH   3  14
ATOM     13  C   UNL     1       0.853   1.227  -0.542  0.00  0.00    +0.277 C 
ATOM     14  O   UNL     1       0.081   0.209   0.098  0.00  0.00    -0.492 OA
ENDBRANCH   3  14
ENDBRANCH   1   6
BRANCH   2  15
ATOM     15  C   UNL     1       0.444  -2.526   5.522  0.00  0.00    +0.259 C 
ATOM     16  O   UNL     1      -0.176  -2.188   4.532  0.00  0.00    -0.269 OA
ATOM     17  N   UNL     1      -0.181  -2.611   6.713  0.00  0.00    -0.280 N 
ATOM     18  H   UNL     1       0.297  -2.942   7.489  0.00  0.00    +0.155 HD
BRANCH  17  19
ATOM     19  C   UNL     1      -1.520  -2.223   6.829  0.00  0.00    +0.054 A 
ATOM     20  C   UNL     1      -2.387  -2.384   5.756  0.00  0.00    +0.025 A 
ATOM     21  C   UNL     1      -3.708  -2.000   5.872  0.00  0.00    +0.003 A 
ATOM     22  C   UNL     1      -4.170  -1.454   7.056  0.00  0.00    +0.021 A 
ATOM     23  C   UNL     1      -3.310  -1.290   8.128  0.00  0.00    +0.061 A 
ATOM     24  C   UNL     1      -1.987  -1.679   8.019  0.00  0.00    +0.080 A 
ATOM     25 CL   UNL     1      -0.909  -1.482   9.366  0.00  0.00    -0.080 Cl
ATOM     26 CL   UNL     1      -3.894  -0.604   9.611  0.00  0.00    -0.082 Cl
ENDBRANCH  17  19
ENDBRANCH   2  15
BRANCH   2  27
ATOM     27  C   UNL     1       2.574  -3.380   6.550  0.00  0.00    +0.104 C 
ATOM     28  N   UNL     1       3.127  -3.805   7.446  0.00  0.00    -0.191 NA
ENDBRANCH   2  27
TORSDOF 6
