REMARK  Name = ZINC47872040
REMARK  10 active torsions:
REMARK  status: ('A' for Active; 'I' for Inactive)
REMARK    1  A    between atoms: C_1  and  C_2
REMARK    2  A    between atoms: C_7  and  N_12
REMARK    3  A    between atoms: C_9  and  C_11
REMARK    4  A    between atoms: N_12  and  C_13
REMARK    5  A    between atoms: C_13  and  N_15
REMARK    6  A    between atoms: N_15  and  N_16
REMARK    7  A    between atoms: C_17  and  C_19
REMARK    8  A    between atoms: C_23  and  S_25
REMARK    9  A    between atoms: S_25  and  N_28
REMARK   10  A    between atoms: N_28  and  C_29
REMARK                            x       y       z     vdW  Elec       q    Type
REMARK                         _______ _______ _______ _____ _____    ______ ____
ROOT
ATOM      1  N   UNL     1      -3.180  -3.451   1.244  0.00  0.00    -0.231 N 
ATOM      2  C   UNL     1      -4.444  -3.917   1.253  0.00  0.00    +0.260 C 
ATOM      3  O   UNL     1      -4.680  -5.025   1.694  0.00  0.00    -0.269 OA
ATOM      4  H   UNL     1      -2.992  -2.567   0.892  0.00  0.00    +0.173 HD
ENDROOT
BRANCH   2   5
ATOM      5  C   UNL     1      -5.545  -3.082   0.727  0.00  0.00    +0.040 A 
ATOM      6  C   UNL     1      -5.277  -1.811   0.214  0.00  0.00    +0.013 A 
ATOM      7  C   UNL     1      -6.308  -1.037  -0.275  0.00  0.00    +0.003 A 
ATOM      8  C   UNL     1      -7.606  -1.516  -0.259  0.00  0.00    +0.028 A 
ATOM      9  C   UNL     1      -7.878  -2.774   0.248  0.00  0.00    +0.106 A 
ATOM     10  C   UNL     1      -6.855  -3.562   0.736  0.00  0.00    +0.041 A 
BRANCH   9  11
ATOM     11  S   UNL     1      -9.534  -3.375   0.265  0.00  0.00    +0.058 S 
ATOM     12  O   UNL     1      -9.599  -4.358   1.290  0.00  0.00    -0.153 OA
ATOM     13  O   UNL     1     -10.381  -2.234   0.250  0.00  0.00    -0.153 OA
BRANCH  11  14
ATOM     14  N   UNL     1      -9.782  -4.168  -1.167  0.00  0.00    -0.193 NA
ATOM     15  C   UNL     1      -9.028  -5.387  -1.470  0.00  0.00    +0.127 C 
ATOM     16  H   UNL     1     -10.427  -3.825  -1.806  0.00  0.00    +0.148 HD
ENDBRANCH  11  14
ENDBRANCH   9  11
ENDBRANCH   2   5
BRANCH   1  17
ATOM     17  N   UNL     1      -2.137  -4.243   1.742  0.00  0.00    -0.246 N 
ATOM     18  H   UNL     1      -2.325  -5.127   2.094  0.00  0.00    +0.172 HD
BRANCH  17  19
ATOM     19  C   UNL     1      -0.873  -3.776   1.733  0.00  0.00    +0.147 C 
ATOM     20  S   UNL     1       0.401  -4.744   2.342  0.00  0.00    -0.017 S 
BRANCH  19  21
ATOM     21  N   UNL     1      -0.612  -2.548   1.244  0.00  0.00    -0.322 N 
ATOM     22  H   UNL     1      -1.333  -2.000   0.898  0.00  0.00    +0.148 HD
BRANCH  21  28
ATOM     23  C   UNL     1      -0.019   1.526   0.010  0.00  0.00    +0.008 C 
ATOM     24  C   UNL     1       0.002  -0.004   0.002  0.00  0.00    -0.009 C 
ATOM     25  C   UNL     1       0.718  -0.497  -1.257  0.00  0.00    +0.003 C 
ATOM     26  C   UNL     1       0.739  -2.027  -1.265  0.00  0.00    +0.002 C 
ATOM     27  C   UNL     1       1.479  -2.534  -0.026  0.00  0.00    +0.022 C 
ATOM     28  C   UNL     1       0.763  -2.041   1.233  0.00  0.00    +0.075 C 
ATOM     29  C   UNL     1       0.742  -0.511   1.242  0.00  0.00    +0.009 C 
ATOM     30  C   UNL     1       0.026  -0.018   2.500  0.00  0.00    +0.009 C 
ENDBRANCH  21  28
ENDBRANCH  19  21
ENDBRANCH  17  19
ENDBRANCH   1  17
TORSDOF 7
