REMARK  Name = ZINC04616725
REMARK  4 active torsions:
REMARK  status: ('A' for Active; 'I' for Inactive)
REMARK    1  A    between atoms: C_1  and  N_2
REMARK    2  A    between atoms: N_4  and  C_19
REMARK    3  A    between atoms: C_8  and  C_9
REMARK    4  A    between atoms: C_14  and  O_15
REMARK                            x       y       z     vdW  Elec       q    Type
REMARK                         _______ _______ _______ _____ _____    ______ ____
ROOT
ATOM      1  C   UNL     1      -0.513   1.335  -0.496  0.00  0.00    +0.173 C 
ATOM      2  N   UNL     1      -0.077  -0.059  -0.381  0.00  0.00    -0.266 NA
ATOM      3  C   UNL     1       0.349  -0.698  -1.435  0.00  0.00    +0.163 C 
ATOM      4  N   UNL     1       0.575  -0.206  -2.705  0.00  0.00    -0.249 N 
ATOM      5  C   UNL     1       1.012  -1.001  -3.667  0.00  0.00    +0.259 C 
ATOM      6  O   UNL     1       1.217  -0.585  -4.792  0.00  0.00    -0.269 OA
ATOM      7  C   UNL     1       1.241  -2.415  -3.314  0.00  0.00    +0.078 C 
ATOM      8  C   UNL     1       1.682  -3.436  -4.092  0.00  0.00    +0.032 C 
ATOM      9  S   UNL     1       0.790  -2.422  -1.585  0.00  0.00    -0.049 S 
ATOM     10  C   UNL     1       0.327   1.210  -2.990  0.00  0.00    +0.140 C 
ENDROOT
BRANCH   8  11
ATOM     11  C   UNL     1       2.175  -3.165  -5.448  0.00  0.00    +0.020 A 
ATOM     12  C   UNL     1       3.025  -2.078  -5.684  0.00  0.00    +0.027 A 
ATOM     13  C   UNL     1       3.488  -1.832  -6.959  0.00  0.00    +0.020 A 
ATOM     14  C   UNL     1       3.108  -2.651  -8.011  0.00  0.00    +0.039 A 
ATOM     15  C   UNL     1       2.265  -3.726  -7.793  0.00  0.00    +0.084 A 
ATOM     16  C   UNL     1       1.793  -3.991  -6.517  0.00  0.00    +0.142 A 
ATOM     17 CL   UNL     1       1.798  -4.743  -9.120  0.00  0.00    -0.080 Cl
ATOM     18 BR   UNL     1       4.640  -0.367  -7.276  0.00  0.00    -0.050 Br
BRANCH  16  19
ATOM     19  O   UNL     1       0.966  -5.046  -6.302  0.00  0.00    -0.505 OA
ATOM     20  H   UNL     1       0.027  -4.833  -6.390  0.00  0.00    +0.292 HD
ENDBRANCH  16  19
ENDBRANCH   8  11
TORSDOF 2
