REMARK  Name = ZINC60377271
REMARK  10 active torsions:
REMARK  status: ('A' for Active; 'I' for Inactive)
REMARK    1  A    between atoms: C_1  and  C_2
REMARK    2  A    between atoms: C_2  and  C_4
REMARK    3  A    between atoms: C_2  and  N_14
REMARK    4  A    between atoms: C_8  and  S_10
REMARK    5  A    between atoms: S_10  and  N_13
REMARK    6  A    between atoms: N_14  and  C_15
REMARK    7  A    between atoms: N_14  and  C_16
REMARK    8  A    between atoms: C_16  and  C_17
REMARK    9  A    between atoms: C_17  and  C_18
REMARK   10  A    between atoms: N_23  and  C_26
REMARK                            x       y       z     vdW  Elec       q    Type
REMARK                         _______ _______ _______ _____ _____    ______ ____
ROOT
ATOM      1  N   UNL     1      -1.369  -0.549   0.013  0.00  0.00    +0.383 N 
ATOM      2  C   UNL     1      -1.346  -2.018   0.025  0.00  0.00    -0.095 C 
ATOM      3  H   UNL     1      -1.855  -0.227  -0.810  0.00  0.00    -0.081 HD
ENDROOT
BRANCH   1   5
ATOM      4  C   UNL     1      -0.015   1.492  -0.013  0.00  0.00    -0.008 C 
ATOM      5  C   UNL     1       0.008  -0.038  -0.001  0.00  0.00    -0.041 C 
BRANCH   5   6
ATOM      6  C   UNL     1       0.718  -0.540  -1.232  0.00  0.00    -0.059 A 
ATOM      7  C   UNL     1       0.051  -0.589  -2.442  0.00  0.00    +0.002 A 
ATOM      8  C   UNL     1       0.702  -1.049  -3.571  0.00  0.00    +0.002 A 
ATOM      9  C   UNL     1       2.020  -1.460  -3.490  0.00  0.00    +0.028 A 
ATOM     10  C   UNL     1       2.687  -1.409  -2.281  0.00  0.00    +0.105 A 
ATOM     11  C   UNL     1       2.037  -0.945  -1.152  0.00  0.00    +0.030 A 
BRANCH  10  12
ATOM     12  S   UNL     1       4.366  -1.933  -2.178  0.00  0.00    +0.056 S 
ATOM     13  O   UNL     1       4.595  -2.300  -0.824  0.00  0.00    -0.153 OA
ATOM     14  O   UNL     1       4.578  -2.832  -3.257  0.00  0.00    -0.153 OA
BRANCH  12  15
ATOM     15  N   UNL     1       5.312  -0.606  -2.474  0.00  0.00    -0.204 NA
ATOM     16  H   UNL     1       6.189  -0.535  -2.066  0.00  0.00    +0.144 HD
ATOM     17  H   UNL     1       4.989   0.099  -3.056  0.00  0.00    +0.144 HD
ENDBRANCH  12  15
ENDBRANCH  10  12
ENDBRANCH   5   6
ENDBRANCH   1   5
BRANCH   1  18
ATOM     18  C   UNL     1      -2.061  -0.060   1.213  0.00  0.00    -0.069 C 
BRANCH  18  19
ATOM     19  C   UNL     1      -3.529  -0.487   1.165  0.00  0.00    +0.077 C 
BRANCH  19  20
ATOM     20  C   UNL     1      -4.239   0.014   2.397  0.00  0.00    +0.214 C 
ATOM     21  O   UNL     1      -3.630   0.651   3.230  0.00  0.00    -0.276 OA
ATOM     22  N   UNL     1      -5.550  -0.245   2.571  0.00  0.00    -0.299 N 
ATOM     23  C   UNL     1      -6.298  -1.021   1.573  0.00  0.00    +0.126 C 
ATOM     24  C   UNL     1      -6.958  -2.215   2.274  0.00  0.00    +0.124 C 
ATOM     25  N   UNL     1      -7.664  -1.727   3.467  0.00  0.00    -0.327 N 
ATOM     26  C   UNL     1      -6.916  -0.951   4.465  0.00  0.00    +0.124 C 
ATOM     27  C   UNL     1      -6.255   0.238   3.767  0.00  0.00    +0.126 C 
BRANCH  25  28
ATOM     28  C   UNL     1      -9.024  -1.996   3.648  0.00  0.00    +0.030 A 
ATOM     29  C   UNL     1      -9.654  -1.630   4.831  0.00  0.00    +0.026 A 
ATOM     30  C   UNL     1     -10.998  -1.896   5.008  0.00  0.00    +0.040 A 
ATOM     31  C   UNL     1     -11.717  -2.527   4.007  0.00  0.00    +0.124 A 
ATOM     32  C   UNL     1     -11.091  -2.893   2.827  0.00  0.00    +0.040 A 
ATOM     33  C   UNL     1      -9.749  -2.624   2.644  0.00  0.00    +0.026 A 
ATOM     34  F   UNL     1     -13.031  -2.787   4.182  0.00  0.00    -0.205 F 
ENDBRANCH  25  28
ENDBRANCH  19  20
ENDBRANCH  18  19
ENDBRANCH   1  18
TORSDOF 8
