REMARK  Name = ZINC08644980
REMARK  4 active torsions:
REMARK  status: ('A' for Active; 'I' for Inactive)
REMARK    1  A    between atoms: C_1  and  C_2
REMARK    2  A    between atoms: C_2  and  C_18
REMARK    3  A    between atoms: N_5  and  C_9
REMARK    4  A    between atoms: C_9  and  C_10
REMARK                            x       y       z     vdW  Elec       q    Type
REMARK                         _______ _______ _______ _____ _____    ______ ____
ROOT
ATOM      1  C   UNL     1      -6.395  -2.556   1.131  0.00  0.00    +0.047 C 
ATOM      2  C   UNL     1      -4.968  -2.858   0.668  0.00  0.00    +0.136 C 
ATOM      3  C   UNL     1      -4.011  -1.790   1.158  0.00  0.00    +0.251 C 
ATOM      4  O   UNL     1      -3.763  -1.500   2.309  0.00  0.00    -0.272 OA
ATOM      5  N   UNL     1      -3.493  -1.228   0.048  0.00  0.00    -0.215 N 
ATOM      6  C   UNL     1      -3.988  -1.785  -1.064  0.00  0.00    +0.310 C 
ATOM      7  O   UNL     1      -3.674  -1.443  -2.188  0.00  0.00    -0.252 OA
ATOM      8  N   UNL     1      -4.869  -2.766  -0.799  0.00  0.00    -0.281 N 
ATOM      9  H   UNL     1      -5.347  -3.306  -1.447  0.00  0.00    +0.152 HD
ENDROOT
BRANCH   2  10
ATOM     10  C   UNL     1      -4.534  -4.219   1.148  0.00  0.00    -0.008 A 
ATOM     11  C   UNL     1      -4.173  -5.178   0.251  0.00  0.00    +0.007 A 
ATOM     12  C   UNL     1      -3.769  -6.442   0.676  0.00  0.00    +0.001 A 
ATOM     13  C   UNL     1      -3.723  -6.755   2.000  0.00  0.00    +0.008 A 
ATOM     14  C   UNL     1      -4.088  -5.791   2.955  0.00  0.00    -0.018 A 
ATOM     15  C   UNL     1      -4.494  -4.504   2.523  0.00  0.00    -0.012 A 
ATOM     16  C   UNL     1      -4.865  -3.542   3.478  0.00  0.00    +0.009 A 
ATOM     17  C   UNL     1      -4.819  -3.855   4.802  0.00  0.00    +0.001 A 
ATOM     18  C   UNL     1      -4.415  -5.119   5.227  0.00  0.00    +0.001 A 
ATOM     19  C   UNL     1      -4.054  -6.077   4.331  0.00  0.00    +0.008 A 
ENDBRANCH   2  10
BRANCH   5  20
ATOM     20  C   UNL     1      -2.512  -0.140   0.057  0.00  0.00    +0.214 C 
BRANCH  20  21
ATOM     21  C   UNL     1      -1.120  -0.717   0.072  0.00  0.00    +0.241 C 
ATOM     22  O   UNL     1      -0.963  -1.919   0.075  0.00  0.00    -0.273 OA
ATOM     23  N   UNL     1      -0.051   0.103   0.083  0.00  0.00    -0.223 N 
ATOM     24  C   UNL     1       1.355  -0.329   0.097  0.00  0.00    +0.137 C 
ATOM     25  C   UNL     1       2.147   0.992   0.104  0.00  0.00    +0.125 C 
ATOM     26  N   UNL     1       1.105   2.029   0.093  0.00  0.00    -0.297 N 
ATOM     27  C   UNL     1      -0.099   1.442   0.081  0.00  0.00    +0.309 C 
ATOM     28  O   UNL     1      -1.141   2.067   0.065  0.00  0.00    -0.252 OA
ATOM     29  H   UNL     1       1.264   2.986   0.093  0.00  0.00    +0.150 HD
ENDBRANCH  20  21
ENDBRANCH   5  20
TORSDOF 3
