REMARK  Name = ZINC66474056
REMARK  3 active torsions:
REMARK  status: ('A' for Active; 'I' for Inactive)
REMARK    1  A    between atoms: C_6  and  S_7
REMARK    2  A    between atoms: S_7  and  N_10
REMARK    3  A    between atoms: N_13  and  C_16
REMARK                            x       y       z     vdW  Elec       q    Type
REMARK                         _______ _______ _______ _____ _____    ______ ____
ROOT
ATOM      1  S   UNL     1      -1.514  -0.902   0.012  0.00  0.00    +0.061 S 
ATOM      2  O   UNL     1      -1.223  -2.183   0.553  0.00  0.00    -0.153 OA
ATOM      3  O   UNL     1      -2.493  -0.041   0.577  0.00  0.00    -0.153 OA
ENDROOT
BRANCH   1   9
ATOM      4  C   UNL     1      -0.017   1.380   0.010  0.00  0.00    +0.030 A 
ATOM      5  C   UNL     1       1.167   2.093   0.002  0.00  0.00    +0.030 A 
ATOM      6  C   UNL     1       2.378   1.419  -0.013  0.00  0.00    +0.067 A 
ATOM      7  C   UNL     1       2.397   0.022  -0.021  0.00  0.00    +0.069 A 
ATOM      8  C   UNL     1       1.204  -0.684  -0.014  0.00  0.00    +0.056 A 
ATOM      9  C   UNL     1       0.002  -0.004   0.002  0.00  0.00    +0.108 A 
ATOM     10  N   UNL     1       3.736  -0.362  -0.035  0.00  0.00    -0.306 N 
ATOM     11  H   UNL     1       4.064  -1.275  -0.043  0.00  0.00    +0.170 HD
ATOM     12  C   UNL     1       4.496   0.749  -0.035  0.00  0.00    +0.325 A 
ATOM     13  O   UNL     1       5.713   0.766  -0.047  0.00  0.00    -0.247 OA
ATOM     14  N   UNL     1       3.706   1.839  -0.023  0.00  0.00    -0.306 N 
ATOM     15  H   UNL     1       4.010   2.760  -0.020  0.00  0.00    +0.170 HD
ENDBRANCH   1   9
BRANCH   1  16
ATOM     16  N   UNL     1      -1.951  -1.143  -1.567  0.00  0.00    -0.174 NA
ATOM     17  C   UNL     1      -2.788  -0.164  -2.276  0.00  0.00    +0.125 C 
ATOM     18  C   UNL     1      -2.105   0.191  -3.601  0.00  0.00    +0.102 C 
ATOM     19  N   UNL     1      -1.822  -1.041  -4.349  0.00  0.00    -0.293 NA
ATOM     20  C   UNL     1      -0.879  -1.901  -3.621  0.00  0.00    +0.102 C 
ATOM     21  C   UNL     1      -1.507  -2.339  -2.299  0.00  0.00    +0.125 C 
BRANCH  19  22
ATOM     22  C   UNL     1      -1.325  -0.737  -5.697  0.00  0.00    +0.079 C 
ATOM     23  C   UNL     1      -1.287  -2.023  -6.526  0.00  0.00    +0.023 C 
ATOM     24  C   UNL     1      -0.529  -1.738  -7.828  0.00  0.00    +0.006 C 
ATOM     25  C   UNL     1       0.938  -1.469  -7.486  0.00  0.00    +0.027 C 
ATOM     26  C   UNL     1       1.033  -0.460  -6.379  0.00  0.00    -0.030 C 
ATOM     27  C   UNL     1       0.051  -0.148  -5.598  0.00  0.00    -0.012 C 
ENDBRANCH  19  22
ENDBRANCH   1  16
TORSDOF 3
