REMARK  Name = ZINC46458188
REMARK  5 active torsions:
REMARK  status: ('A' for Active; 'I' for Inactive)
REMARK    1  A    between atoms: C_1  and  C_2
REMARK    2  A    between atoms: N_14  and  C_15
REMARK    3  A    between atoms: C_15  and  C_17
REMARK    4  A    between atoms: C_15  and  C_24
REMARK    5  A    between atoms: C_17  and  N_18
REMARK                            x       y       z     vdW  Elec       q    Type
REMARK                         _______ _______ _______ _____ _____    ______ ____
ROOT
ATOM      1  C   UNL     1      -0.027   1.527   0.018  0.00  0.00    +0.033 C 
ATOM      2  C   UNL     1      -0.004  -0.003   0.007  0.00  0.00    +0.105 C 
ATOM      3  C   UNL     1      -1.424  -0.542   0.167  0.00  0.00    -0.017 A 
ATOM      4  C   UNL     1      -2.508  -0.070  -0.572  0.00  0.00    +0.013 A 
ATOM      5  C   UNL     1      -3.738  -0.599  -0.380  0.00  0.00    +0.046 A 
ATOM      6  S   UNL     1      -3.422  -1.820   0.885  0.00  0.00    -0.101 S 
ATOM      7  C   UNL     1      -1.681  -1.533   1.064  0.00  0.00    -0.004 A 
ATOM      8  C   UNL     1      -0.718  -2.211   1.983  0.00  0.00    +0.062 C 
ATOM      9  C   UNL     1       0.712  -1.919   1.503  0.00  0.00    +0.115 C 
ATOM     10  N   UNL     1       0.795  -0.497   1.136  0.00  0.00    -0.278 N 
ATOM     11  C   UNL     1       1.593   0.341   1.828  0.00  0.00    +0.303 C 
ATOM     12  O   UNL     1       1.590   1.530   1.574  0.00  0.00    -0.253 OA
ATOM     13  N   UNL     1       2.393  -0.139   2.800  0.00  0.00    -0.291 N 
ATOM     14  H   UNL     1       2.451  -1.095   2.953  0.00  0.00    +0.151 HD
ENDROOT
BRANCH  13  15
ATOM     15  C   UNL     1       3.177   0.783   3.626  0.00  0.00    +0.122 C 
BRANCH  15  16
ATOM     16  C   UNL     1       4.469   1.113   2.924  0.00  0.00    -0.026 A 
ATOM     17  C   UNL     1       5.157   0.126   2.243  0.00  0.00    +0.005 A 
ATOM     18  C   UNL     1       6.342   0.427   1.599  0.00  0.00    +0.000 A 
ATOM     19  C   UNL     1       6.839   1.717   1.635  0.00  0.00    +0.000 A 
ATOM     20  C   UNL     1       6.151   2.704   2.316  0.00  0.00    +0.000 A 
ATOM     21  C   UNL     1       4.964   2.403   2.956  0.00  0.00    +0.005 A 
ENDBRANCH  15  16
BRANCH  15  22
ATOM     22  C   UNL     1       3.482   0.127   4.974  0.00  0.00    +0.134 C 
BRANCH  22  23
ATOM     23  N   UNL     1       2.230  -0.301   5.603  0.00  0.00    -0.299 N 
ATOM     24  C   UNL     1       1.425   0.537   6.500  0.00  0.00    +0.108 C 
ATOM     25  C   UNL     1       0.035  -0.135   6.555  0.00  0.00    +0.028 C 
ATOM     26  C   UNL     1       0.382  -1.605   6.221  0.00  0.00    +0.097 C 
ATOM     27  C   UNL     1       1.667  -1.509   5.428  0.00  0.00    +0.216 C 
ATOM     28  O   UNL     1       2.125  -2.395   4.738  0.00  0.00    -0.276 OA
ENDBRANCH  22  23
ENDBRANCH  15  22
ENDBRANCH  13  15
TORSDOF 4
