REMARK  Name = ZINC35000102
REMARK  10 active torsions:
REMARK  status: ('A' for Active; 'I' for Inactive)
REMARK    1  A    between atoms: C_1  and  C_2
REMARK    2  A    between atoms: C_2  and  N_3
REMARK    3  A    between atoms: N_6  and  C_7
REMARK    4  A    between atoms: C_7  and  C_9
REMARK    5  A    between atoms: C_7  and  C_20
REMARK    6  A    between atoms: C_9  and  C_10
REMARK    7  A    between atoms: C_26  and  C_29
REMARK    8  A    between atoms: N_32  and  C_33
REMARK    9  A    between atoms: C_33  and  C_34
REMARK   10  A    between atoms: C_33  and  C_35
REMARK                            x       y       z     vdW  Elec       q    Type
REMARK                         _______ _______ _______ _____ _____    ______ ____
ROOT
ATOM      1  C   UNL     1      -3.001  -3.821   0.241  0.00  0.00    +0.165 C 
ENDROOT
BRANCH   1   2
ATOM      2  C   UNL     1      -2.333  -4.351  -1.001  0.00  0.00    +0.236 C 
ATOM      3  O   UNL     1      -1.377  -3.771  -1.470  0.00  0.00    -0.274 OA
ATOM      4  N   UNL     1      -2.798  -5.470  -1.591  0.00  0.00    -0.297 N 
ATOM      5  C   UNL     1      -3.959  -6.180  -1.038  0.00  0.00    +0.127 C 
ATOM      6  C   UNL     1      -3.565  -7.640  -0.781  0.00  0.00    +0.128 C 
ATOM      7  N   UNL     1      -2.919  -8.172  -1.989  0.00  0.00    -0.280 N 
ATOM      8  C   UNL     1      -1.758  -7.462  -2.543  0.00  0.00    +0.092 C 
ATOM      9  C   UNL     1      -2.156  -5.999  -2.803  0.00  0.00    +0.130 C 
ATOM     10  C   UNL     1      -1.331  -8.121  -3.856  0.00  0.00    +0.030 C 
ATOM     11  C   UNL     1      -3.384  -9.291  -2.579  0.00  0.00    +0.303 C 
ATOM     12  O   UNL     1      -2.903  -9.669  -3.630  0.00  0.00    -0.253 OA
ATOM     13  N   UNL     1      -4.383  -9.990  -2.005  0.00  0.00    -0.297 N 
ATOM     14  H   UNL     1      -4.816  -9.651  -1.206  0.00  0.00    +0.150 HD
BRANCH  13  15
ATOM     15  C   UNL     1      -4.814 -11.264  -2.587  0.00  0.00    +0.068 C 
ATOM     16  C   UNL     1      -3.921 -12.391  -2.065  0.00  0.00    +0.027 C 
ATOM     17  C   UNL     1      -6.266 -11.539  -2.192  0.00  0.00    +0.027 C 
ENDBRANCH  13  15
ENDBRANCH   1   2
BRANCH   1  21
ATOM     18  N   UNL     1      -1.053  -0.739   0.716  0.00  0.00    -0.300 N 
ATOM     19  C   UNL     1      -1.369  -2.039   0.556  0.00  0.00    +0.300 C 
ATOM     20  O   UNL     1      -0.491  -2.881   0.539  0.00  0.00    -0.253 OA
ATOM     21  N   UNL     1      -2.658  -2.407   0.414  0.00  0.00    -0.288 N 
ATOM     22  H   UNL     1      -1.753  -0.068   0.729  0.00  0.00    +0.150 HD
ATOM     23  H   UNL     1      -3.358  -1.736   0.428  0.00  0.00    +0.151 HD
BRANCH  18  25
ATOM     24  C   UNL     1       0.429   1.180   1.033  0.00  0.00    +0.024 C 
ATOM     25  C   UNL     1       0.348  -0.339   0.870  0.00  0.00    +0.102 C 
ENDBRANCH  18  25
ENDBRANCH   1  21
BRANCH   1  26
ATOM     26  C   UNL     1      -2.522  -4.615   1.457  0.00  0.00    +0.069 C 
BRANCH  26  27
ATOM     27  C   UNL     1      -3.280  -4.168   2.680  0.00  0.00    -0.020 A 
ATOM     28  C   UNL     1      -2.887  -3.243   3.569  0.00  0.00    +0.087 A 
ATOM     29  N   UNL     1      -3.834  -3.102   4.547  0.00  0.00    -0.360 N 
ATOM     30  H   UNL     1      -3.773  -2.492   5.298  0.00  0.00    +0.165 HD
ATOM     31  C   UNL     1      -4.887  -3.956   4.304  0.00  0.00    +0.047 A 
ATOM     32  C   UNL     1      -4.589  -4.657   3.121  0.00  0.00    +0.003 A 
ATOM     33  C   UNL     1      -5.491  -5.599   2.623  0.00  0.00    +0.010 A 
ATOM     34  C   UNL     1      -6.662  -5.833   3.287  0.00  0.00    +0.001 A 
ATOM     35  C   UNL     1      -6.962  -5.142   4.452  0.00  0.00    +0.002 A 
ATOM     36  C   UNL     1      -6.082  -4.215   4.966  0.00  0.00    +0.026 A 
ENDBRANCH  26  27
ENDBRANCH   1  26
TORSDOF 6
