REMARK  Name = ZINC39751946
REMARK  6 active torsions:
REMARK  status: ('A' for Active; 'I' for Inactive)
REMARK    1  A    between atoms: C_1  and  C_2
REMARK    2  A    between atoms: C_2  and  C_4
REMARK    3  A    between atoms: C_2  and  S_15
REMARK    4  A    between atoms: C_4  and  C_6
REMARK    5  A    between atoms: S_15  and  C_16
REMARK    6  A    between atoms: C_20  and  C_22
REMARK                            x       y       z     vdW  Elec       q    Type
REMARK                         _______ _______ _______ _____ _____    ______ ____
ROOT
ATOM      1  C   UNL     1      -0.019   1.526   0.010  0.00  0.00    +0.027 C 
ATOM      2  C   UNL     1       0.002  -0.004   0.002  0.00  0.00    +0.119 C 
ENDROOT
BRANCH   2   3
ATOM      3  C   UNL     1       0.731  -0.503   1.223  0.00  0.00    +0.174 C 
ATOM      4  O   UNL     1       0.108  -0.806   2.220  0.00  0.00    -0.291 OA
BRANCH   3   5
ATOM      5  C   UNL     1       2.137  -0.619   1.207  0.00  0.00    +0.024 C 
ATOM      6  C   UNL     1       2.952  -1.062   2.233  0.00  0.00    +0.006 A 
ATOM      7  C   UNL     1       2.684  -1.515   3.547  0.00  0.00    +0.010 A 
ATOM      8  C   UNL     1       3.699  -1.896   4.356  0.00  0.00    +0.001 A 
ATOM      9  C   UNL     1       5.041  -1.864   3.947  0.00  0.00    +0.002 A 
ATOM     10  C   UNL     1       5.404  -1.448   2.714  0.00  0.00    +0.026 A 
ATOM     11  C   UNL     1       4.360  -1.016   1.770  0.00  0.00    +0.043 A 
ATOM     12  N   UNL     1       4.424  -0.577   0.545  0.00  0.00    -0.380 N 
ATOM     13  C   UNL     1       3.069  -0.290   0.061  0.00  0.00    +0.152 C 
ATOM     14  H   UNL     1       5.239  -0.461   0.032  0.00  0.00    +0.160 HD
ENDBRANCH   3   5
ENDBRANCH   2   3
BRANCH   2  15
ATOM     15  S   UNL     1      -1.700  -0.632   0.015  0.00  0.00    -0.085 S 
BRANCH  15  16
ATOM     16  C   UNL     1      -2.384  -0.077  -1.571  0.00  0.00    +0.340 C 
ATOM     17  N   UNL     1      -2.306   1.390  -1.681  0.00  0.00    -0.219 N 
ATOM     18  N   UNL     1      -1.487   1.637  -2.793  0.00  0.00    -0.145 NA
ATOM     19  C   UNL     1      -1.097   0.524  -3.319  0.00  0.00    +0.242 C 
ATOM     20  O   UNL     1      -1.582  -0.558  -2.660  0.00  0.00    -0.442 OA
ATOM     21  H   UNL     1      -2.731   2.046  -1.107  0.00  0.00    +0.173 HD
BRANCH  19  22
ATOM     22  C   UNL     1      -0.222   0.438  -4.506  0.00  0.00    +0.073 A 
ATOM     23  C   UNL     1       0.149  -0.808  -5.016  0.00  0.00    +0.016 A 
ATOM     24  C   UNL     1       0.966  -0.881  -6.125  0.00  0.00    +0.001 A 
ATOM     25  C   UNL     1       1.419   0.276  -6.734  0.00  0.00    +0.003 A 
ATOM     26  C   UNL     1       1.057   1.515  -6.236  0.00  0.00    +0.039 A 
ATOM     27  C   UNL     1       0.234   1.604  -5.129  0.00  0.00    +0.136 A 
ATOM     28  F   UNL     1      -0.123   2.814  -4.646  0.00  0.00    -0.205 F 
ENDBRANCH  19  22
ENDBRANCH  15  16
ENDBRANCH   2  15
TORSDOF 5
