REMARK  Name = ZINC59159317
REMARK  4 active torsions:
REMARK  status: ('A' for Active; 'I' for Inactive)
REMARK    1  A    between atoms: C_4  and  N_7
REMARK    2  A    between atoms: N_7  and  N_8
REMARK    3  A    between atoms: N_16  and  C_19
REMARK    4  A    between atoms: C_19  and  C_20
REMARK                            x       y       z     vdW  Elec       q    Type
REMARK                         _______ _______ _______ _____ _____    ______ ____
ROOT
ATOM      1  N   UNL     1       3.638  -1.938  -0.044  0.00  0.00    -0.177 NA
ATOM      2  C   UNL     1       4.786  -2.578  -0.059  0.00  0.00    +0.153 C 
ATOM      3  C   UNL     1       5.001  -4.043  -0.074  0.00  0.00    +0.028 A 
ATOM      4  C   UNL     1       4.138  -5.133  -0.078  0.00  0.00    +0.012 A 
ATOM      5  C   UNL     1       4.652  -6.414  -0.094  0.00  0.00    +0.001 A 
ATOM      6  C   UNL     1       6.022  -6.611  -0.106  0.00  0.00    +0.002 A 
ATOM      7  C   UNL     1       6.888  -5.536  -0.102  0.00  0.00    +0.024 A 
ATOM      8  C   UNL     1       6.388  -4.238  -0.087  0.00  0.00    +0.046 A 
ATOM      9  N   UNL     1       7.025  -3.003  -0.079  0.00  0.00    -0.261 N 
ATOM     10  C   UNL     1       6.138  -1.994  -0.069  0.00  0.00    +0.272 C 
ATOM     11  O   UNL     1       6.405  -0.806  -0.066  0.00  0.00    -0.268 OA
ENDROOT
BRANCH   1  12
ATOM     12  N   UNL     1       3.619  -0.648  -0.036  0.00  0.00    -0.237 N 
ATOM     13  H   UNL     1       4.452  -0.150  -0.042  0.00  0.00    +0.174 HD
BRANCH  12  17
ATOM     14  C   UNL     1      -0.017   1.379   0.010  0.00  0.00    +0.000 A 
ATOM     15  C   UNL     1       1.169   2.090   0.002  0.00  0.00    +0.002 A 
ATOM     16  C   UNL     1       2.377   1.421  -0.013  0.00  0.00    +0.025 A 
ATOM     17  C   UNL     1       2.400   0.032  -0.021  0.00  0.00    +0.048 A 
ATOM     18  C   UNL     1       1.206  -0.680  -0.013  0.00  0.00    +0.025 A 
ATOM     19  C   UNL     1       0.002  -0.004   0.002  0.00  0.00    +0.002 A 
ENDBRANCH  12  17
ENDBRANCH   1  12
BRANCH   9  20
ATOM     20  C   UNL     1       8.479  -2.824  -0.088  0.00  0.00    +0.152 C 
BRANCH  20  21
ATOM     21  C   UNL     1       8.967  -2.748  -1.512  0.00  0.00    +0.005 A 
ATOM     22  C   UNL     1       9.525  -3.862  -2.111  0.00  0.00    +0.008 A 
ATOM     23  C   UNL     1       9.973  -3.793  -3.417  0.00  0.00    +0.000 A 
ATOM     24  C   UNL     1       9.864  -2.611  -4.125  0.00  0.00    +0.003 A 
ATOM     25  C   UNL     1       9.306  -1.496  -3.528  0.00  0.00    +0.038 A 
ATOM     26  C   UNL     1       8.852  -1.566  -2.222  0.00  0.00    +0.128 A 
ATOM     27  F   UNL     1       8.302  -0.478  -1.639  0.00  0.00    -0.205 F 
ENDBRANCH  20  21
ENDBRANCH   9  20
TORSDOF 4
