REMARK  Name = ZINC13388280
REMARK  2 active torsions:
REMARK  status: ('A' for Active; 'I' for Inactive)
REMARK    1  A    between atoms: C_5  and  C_7
REMARK    2  A    between atoms: C_10  and  C_12
REMARK                            x       y       z     vdW  Elec       q    Type
REMARK                         _______ _______ _______ _____ _____    ______ ____
ROOT
ATOM      1  C   UNL     1      -3.412   2.445   0.033  0.00  0.00    +0.137 A 
ATOM      2  C   UNL     1      -2.784   3.670   0.036  0.00  0.00    +0.050 A 
ATOM      3  C   UNL     1      -1.409   3.424   0.033  0.00  0.00    +0.050 A 
ATOM      4  C   UNL     1      -1.248   2.050   0.019  0.00  0.00    +0.130 A 
ATOM      5  O   UNL     1      -2.472   1.482   0.022  0.00  0.00    -0.455 OA
ENDROOT
BRANCH   4   6
ATOM      6  C   UNL     1      -0.016   1.361   0.009  0.00  0.00    +0.066 C 
ATOM      7  C   UNL     1       0.002  -0.004   0.002  0.00  0.00    +0.082 C 
ATOM      8  C   UNL     1       1.116  -0.897  -0.019  0.00  0.00    +0.258 C 
ATOM      9  O   UNL     1       2.258  -0.475  -0.034  0.00  0.00    -0.269 OA
ATOM     10  N   UNL     1       0.870  -2.196  -0.019  0.00  0.00    -0.243 N 
ATOM     11  C   UNL     1      -0.398  -2.664  -0.010  0.00  0.00    +0.283 C 
ATOM     12  O   UNL     1      -0.785  -3.817  -0.013  0.00  0.00    -0.262 OA
ATOM     13  S   UNL     1      -1.361  -1.160   0.008  0.00  0.00    -0.026 S 
ATOM     14  H   UNL     1       1.611  -2.822  -0.030  0.00  0.00    +0.159 HD
ENDBRANCH   4   6
BRANCH   1  19
ATOM     15  C   UNL     1      -6.818   1.156  -0.877  0.00  0.00    +0.001 A 
ATOM     16  C   UNL     1      -7.610   1.811   0.050  0.00  0.00    +0.001 A 
ATOM     17  C   UNL     1      -7.041   2.672   0.971  0.00  0.00    +0.021 A 
ATOM     18  C   UNL     1      -5.676   2.878   0.976  0.00  0.00    +0.052 A 
ATOM     19  C   UNL     1      -4.871   2.224   0.039  0.00  0.00    +0.036 A 
ATOM     20  C   UNL     1      -5.454   1.357  -0.889  0.00  0.00    +0.013 A 
ATOM     21 CL   UNL     1      -4.963   3.953   2.138  0.00  0.00    -0.083 Cl
ENDBRANCH   1  19
TORSDOF 2
