REMARK  Name = ZINC32670999
REMARK  5 active torsions:
REMARK  status: ('A' for Active; 'I' for Inactive)
REMARK    1  A    between atoms: C_1  and  C_2
REMARK    2  A    between atoms: N_6  and  C_29
REMARK    3  A    between atoms: C_8  and  C_10
REMARK    4  A    between atoms: N_15  and  S_18
REMARK    5  A    between atoms: S_18  and  C_21
REMARK                            x       y       z     vdW  Elec       q    Type
REMARK                         _______ _______ _______ _____ _____    ______ ____
ROOT
ATOM      1  C   UNL     1      -4.034   0.291   5.222  0.00  0.00    +0.281 C 
ATOM      2  O   UNL     1      -3.456  -0.687   5.656  0.00  0.00    -0.267 OA
ATOM      3  N   UNL     1      -4.436   0.322   3.936  0.00  0.00    -0.293 N 
ATOM      4  C   UNL     1      -5.279   1.419   3.442  0.00  0.00    +0.125 C 
ATOM      5  C   UNL     1      -6.545   0.822   2.815  0.00  0.00    +0.128 C 
ATOM      6  N   UNL     1      -6.148  -0.243   1.882  0.00  0.00    -0.174 NA
ATOM      7  C   UNL     1      -5.310  -1.343   2.378  0.00  0.00    +0.128 C 
ATOM      8  C   UNL     1      -4.040  -0.742   3.003  0.00  0.00    +0.125 C 
ENDROOT
BRANCH   1  15
ATOM      9  C   UNL     1      -6.284   1.502   8.532  0.00  0.00    +0.038 C 
ATOM     10  C   UNL     1      -4.909   2.154   8.379  0.00  0.00    +0.157 C 
ATOM     11  C   UNL     1      -5.060   3.527   7.769  0.00  0.00    +0.259 C 
ATOM     12  O   UNL     1      -5.253   4.493   8.476  0.00  0.00    -0.271 OA
ATOM     13  N   UNL     1      -4.978   3.670   6.431  0.00  0.00    -0.157 N 
ATOM     14  N   UNL     1      -4.736   2.566   5.606  0.00  0.00    -0.152 NA
ATOM     15  C   UNL     1      -4.295   1.444   6.104  0.00  0.00    +0.201 C 
ATOM     16  N   UNL     1      -4.077   1.342   7.481  0.00  0.00    -0.313 N 
ATOM     17  H   UNL     1      -3.307   0.676   7.897  0.00  0.00    +0.148 HD
BRANCH  13  18
ATOM     18  C   UNL     1      -5.137   4.937   5.860  0.00  0.00    +0.060 A 
ATOM     19  C   UNL     1      -4.225   5.396   4.918  0.00  0.00    +0.025 A 
ATOM     20  C   UNL     1      -4.388   6.645   4.352  0.00  0.00    +0.002 A 
ATOM     21  C   UNL     1      -5.453   7.444   4.730  0.00  0.00    +0.000 A 
ATOM     22  C   UNL     1      -6.360   6.992   5.671  0.00  0.00    +0.002 A 
ATOM     23  C   UNL     1      -6.205   5.742   6.237  0.00  0.00    +0.025 A 
ENDBRANCH  13  18
ENDBRANCH   1  15
BRANCH   6  24
ATOM     24  S   UNL     1      -6.643  -0.206   0.302  0.00  0.00    +0.061 S 
ATOM     25  O   UNL     1      -7.826   0.581   0.265  0.00  0.00    -0.153 OA
ATOM     26  O   UNL     1      -6.606  -1.547  -0.167  0.00  0.00    -0.153 OA
BRANCH  24  27
ATOM     27  C   UNL     1      -5.421   0.680  -0.607  0.00  0.00    +0.108 A 
ATOM     28  C   UNL     1      -5.525   2.051  -0.750  0.00  0.00    +0.031 A 
ATOM     29  C   UNL     1      -4.571   2.747  -1.467  0.00  0.00    +0.043 A 
ATOM     30  C   UNL     1      -3.505   2.072  -2.038  0.00  0.00    +0.159 A 
ATOM     31  C   UNL     1      -3.397   0.698  -1.889  0.00  0.00    +0.160 A 
ATOM     32  C   UNL     1      -4.355   0.004  -1.170  0.00  0.00    +0.069 A 
ATOM     33  F   UNL     1      -2.358   0.037  -2.444  0.00  0.00    -0.202 F 
ATOM     34  F   UNL     1      -2.571   2.752  -2.738  0.00  0.00    -0.202 F 
ENDBRANCH  24  27
ENDBRANCH   6  24
TORSDOF 4
