REMARK  Name = ZINC39940562
REMARK  3 active torsions:
REMARK  status: ('A' for Active; 'I' for Inactive)
REMARK    1  A    between atoms: C_12  and  C_20
REMARK    2  A    between atoms: C_14  and  C_18
REMARK    3  A    between atoms: C_15  and  N_17
REMARK                            x       y       z     vdW  Elec       q    Type
REMARK                         _______ _______ _______ _____ _____    ______ ____
ROOT
ATOM      1  C   UNL     1       0.034   1.397   0.015  0.00  0.00    +0.001 A 
ATOM      2  C   UNL     1       1.228   2.102   0.013  0.00  0.00    +0.004 A 
ATOM      3  C   UNL     1       2.437   1.439  -0.001  0.00  0.00    +0.047 A 
ATOM      4  C   UNL     1       2.466   0.051  -0.012  0.00  0.00    +0.143 A 
ATOM      5  C   UNL     1       1.258  -0.665  -0.010  0.00  0.00    +0.060 A 
ATOM      6  C   UNL     1       0.040   0.019   0.004  0.00  0.00    +0.015 A 
ATOM      7  C   UNL     1       1.303  -2.135  -0.024  0.00  0.00    +0.151 A 
ATOM      8  C   UNL     1       2.523  -2.743  -0.042  0.00  0.00    +0.089 A 
ATOM      9  C   UNL     1       3.689  -1.958  -0.043  0.00  0.00    +0.345 A 
ATOM     10  O   UNL     1       4.775  -2.510  -0.061  0.00  0.00    -0.245 OA
ATOM     11  O   UNL     1       3.640  -0.616  -0.025  0.00  0.00    -0.422 OA
ATOM     12  C   UNL     1       2.632  -4.243  -0.061  0.00  0.00    +0.082 C 
ATOM     13  C   UNL     1       1.325  -4.864   0.345  0.00  0.00    +0.094 C 
ATOM     14  C   UNL     1       0.178  -4.144   0.343  0.00  0.00    +0.198 C 
ATOM     15  O   UNL     1       0.161  -2.849  -0.021  0.00  0.00    -0.440 OA
ENDROOT
BRANCH  12  16
ATOM     16  C   UNL     1       2.992  -4.707  -1.474  0.00  0.00    +0.024 C 
ATOM     17  C   UNL     1       1.843  -4.370  -2.427  0.00  0.00    +0.009 C 
ATOM     18  C   UNL     1       2.105  -5.066  -3.768  0.00  0.00    +0.005 C 
ATOM     19  C   UNL     1       1.988  -6.578  -3.560  0.00  0.00    +0.027 C 
ATOM     20  C   UNL     1       2.805  -7.000  -2.374  0.00  0.00    -0.031 C 
ATOM     21  C   UNL     1       3.235  -6.188  -1.465  0.00  0.00    -0.027 C 
ENDBRANCH  12  16
BRANCH  14  22
ATOM     22  N   UNL     1      -0.995  -4.749   0.720  0.00  0.00    -0.328 N 
ATOM     23  H   UNL     1      -0.995  -5.682   0.985  0.00  0.00    +0.145 HD
ATOM     24  H   UNL     1      -1.823  -4.244   0.723  0.00  0.00    +0.145 HD
ENDBRANCH  14  22
BRANCH  13  25
ATOM     25  C   UNL     1       1.292  -6.240   0.742  0.00  0.00    +0.100 C 
ATOM     26  N   UNL     1       1.265  -7.331   1.056  0.00  0.00    -0.191 NA
ENDBRANCH  13  25
TORSDOF 3
