REMARK  Name = ZINC63138841
REMARK  10 active torsions:
REMARK  status: ('A' for Active; 'I' for Inactive)
REMARK    1  A    between atoms: C_1  and  C_2
REMARK    2  A    between atoms: C_2  and  C_3
REMARK    3  A    between atoms: C_3  and  C_4
REMARK    4  A    between atoms: C_4  and  O_5
REMARK    5  A    between atoms: O_5  and  C_6
REMARK    6  A    between atoms: C_6  and  C_7
REMARK    7  A    between atoms: C_7  and  C_8
REMARK    8  A    between atoms: C_8  and  N_9
REMARK    9  A    between atoms: C_29  and  C_30
REMARK   10  A    between atoms: C_29  and  C_31
REMARK                            x       y       z     vdW  Elec       q    Type
REMARK                         _______ _______ _______ _____ _____    ______ ____
ROOT
ATOM      1  N   UNL     1      -5.828  -6.322   0.024  0.00  0.00    -0.291 N 
ATOM      2  C   UNL     1      -6.490  -6.501   1.303  0.00  0.00    +0.203 C 
ATOM      3  C   UNL     1      -7.960  -6.758   1.135  0.00  0.00    +0.234 C 
ATOM      4  O   UNL     1      -8.624  -6.425   2.094  0.00  0.00    -0.274 OA
ATOM      5  N   UNL     1      -8.521  -7.207   0.015  0.00  0.00    -0.281 N 
ATOM      6  C   UNL     1      -7.844  -7.007  -1.278  0.00  0.00    +0.167 C 
ATOM      7  C   UNL     1      -6.453  -6.488  -1.140  0.00  0.00    +0.237 C 
ATOM      8  O   UNL     1      -5.851  -6.198  -2.153  0.00  0.00    -0.274 OA
ATOM      9  C   UNL     1      -8.683  -6.035  -2.132  0.00  0.00    +0.065 C 
ATOM     10  C   UNL     1     -10.105  -6.540  -2.066  0.00  0.00    -0.034 C 
ATOM     11  C   UNL     1     -11.005  -6.785  -3.008  0.00  0.00    -0.001 A 
ATOM     12  C   UNL     1     -10.974  -6.596  -4.468  0.00  0.00    +0.010 A 
ATOM     13  C   UNL     1     -12.090  -6.974  -5.145  0.00  0.00    +0.001 A 
ATOM     14  C   UNL     1     -13.221  -7.514  -4.525  0.00  0.00    +0.002 A 
ATOM     15  C   UNL     1     -13.338  -7.718  -3.189  0.00  0.00    +0.026 A 
ATOM     16  C   UNL     1     -12.231  -7.353  -2.369  0.00  0.00    +0.043 A 
ATOM     17  N   UNL     1     -12.082  -7.421  -1.077  0.00  0.00    -0.375 N 
ATOM     18  C   UNL     1     -10.779  -6.864  -0.736  0.00  0.00    +0.129 C 
ATOM     19  C   UNL     1      -9.848  -7.855  -0.024  0.00  0.00    +0.057 C 
ATOM     20  C   UNL     1     -10.409  -8.202   1.351  0.00  0.00    +0.034 C 
ATOM     21  C   UNL     1      -9.775  -9.152  -0.846  0.00  0.00    +0.034 C 
ATOM     22  H   UNL     1     -12.737  -7.780  -0.457  0.00  0.00    +0.160 HD
ENDROOT
BRANCH   1  23
ATOM     23  C   UNL     1      -4.420  -5.925   0.012  0.00  0.00    +0.110 C 
BRANCH  23  24
ATOM     24  C   UNL     1      -4.319  -4.399   0.020  0.00  0.00    +0.047 C 
BRANCH  24  25
ATOM     25  C   UNL     1      -2.847  -3.984   0.008  0.00  0.00    +0.161 C 
BRANCH  25  26
ATOM     26  O   UNL     1      -2.753  -2.558   0.015  0.00  0.00    -0.380 OA
BRANCH  26  27
ATOM     27  C   UNL     1      -1.413  -2.063   0.004  0.00  0.00    +0.160 C 
BRANCH  27  28
ATOM     28  C   UNL     1      -1.433  -0.534   0.013  0.00  0.00    +0.028 C 
BRANCH  28  30
ATOM     29  C   UNL     1      -0.019   1.526   0.010  0.00  0.00    +0.004 C 
ATOM     30  C   UNL     1       0.002  -0.004   0.002  0.00  0.00    -0.001 C 
ENDBRANCH  28  30
ENDBRANCH  27  28
ENDBRANCH  26  27
ENDBRANCH  25  26
ENDBRANCH  24  25
ENDBRANCH  23  24
ENDBRANCH   1  23
TORSDOF 7
