REMARK  Name = ZINC62672523
REMARK  4 active torsions:
REMARK  status: ('A' for Active; 'I' for Inactive)
REMARK    1  A    between atoms: C_1  and  C_2
REMARK    2  A    between atoms: C_2  and  C_22
REMARK    3  A    between atoms: C_5  and  C_9
REMARK    4  A    between atoms: C_15  and  C_17
REMARK                            x       y       z     vdW  Elec       q    Type
REMARK                         _______ _______ _______ _____ _____    ______ ____
ROOT
ATOM      1  C   UNL     1      -0.876   0.600  -0.640  0.00  0.00    +0.029 C 
ATOM      2  C   UNL     1      -0.619  -0.854  -0.239  0.00  0.00    +0.029 C 
ATOM      3  C   UNL     1      -1.929  -1.494   0.234  0.00  0.00    +0.130 C 
ATOM      4  N   UNL     1      -2.351  -0.830   1.477  0.00  0.00    -0.285 N 
ATOM      5  C   UNL     1      -1.372  -0.711   2.568  0.00  0.00    +0.120 C 
ATOM      6  C   UNL     1      -0.084  -0.102   2.003  0.00  0.00    +0.108 C 
ATOM      7  N   UNL     1       0.364  -0.896   0.851  0.00  0.00    -0.308 NA
ATOM      8  C   UNL     1      -3.600  -0.344   1.612  0.00  0.00    +0.282 C 
ATOM      9  O   UNL     1      -3.969   0.097   2.684  0.00  0.00    -0.267 OA
ATOM     10  C   UNL     1      -0.079  -1.627  -1.444  0.00  0.00    +0.029 C 
ATOM     11  H   UNL     1       0.563  -1.847   1.122  0.00  0.00    +0.123 HD
ENDROOT
BRANCH   5  12
ATOM     12  C   UNL     1      -1.926   0.180   3.650  0.00  0.00    -0.026 A 
ATOM     13  C   UNL     1      -2.324   1.469   3.347  0.00  0.00    +0.005 A 
ATOM     14  C   UNL     1      -2.832   2.287   4.339  0.00  0.00    +0.000 A 
ATOM     15  C   UNL     1      -2.943   1.815   5.634  0.00  0.00    +0.000 A 
ATOM     16  C   UNL     1      -2.546   0.526   5.936  0.00  0.00    +0.000 A 
ATOM     17  C   UNL     1      -2.042  -0.293   4.944  0.00  0.00    +0.005 A 
ENDBRANCH   5  12
BRANCH   8  18
ATOM     18  C   UNL     1      -4.516  -0.346   0.466  0.00  0.00    +0.189 A 
ATOM     19  C   UNL     1      -5.834   0.008   0.492  0.00  0.00    +0.054 A 
ATOM     20  C   UNL     1      -6.319  -0.143  -0.817  0.00  0.00    +0.042 A 
ATOM     21  C   UNL     1      -5.287  -0.577  -1.575  0.00  0.00    +0.196 A 
ATOM     22  O   UNL     1      -4.202  -0.694  -0.799  0.00  0.00    -0.458 OA
ENDBRANCH   8  18
TORSDOF 2
