REMARK  Name = ZINC43040578
REMARK  4 active torsions:
REMARK  status: ('A' for Active; 'I' for Inactive)
REMARK    1  A    between atoms: C_1  and  C_2
REMARK    2  A    between atoms: C_7  and  N_12
REMARK    3  A    between atoms: C_9  and  C_11
REMARK    4  A    between atoms: C_20  and  C_22
REMARK                            x       y       z     vdW  Elec       q    Type
REMARK                         _______ _______ _______ _____ _____    ______ ____
ROOT
ATOM      1  N   UNL     1       2.182  -2.852   2.016  0.00  0.00    -0.296 N 
ATOM      2  C   UNL     1       1.670  -3.939   2.626  0.00  0.00    +0.303 C 
ATOM      3  O   UNL     1       0.736  -4.535   2.124  0.00  0.00    -0.253 OA
ATOM      4  N   UNL     1       2.192  -4.367   3.792  0.00  0.00    -0.278 N 
ATOM      5  C   UNL     1       3.236  -3.593   4.484  0.00  0.00    +0.137 C 
ATOM      6  C   UNL     1       4.394  -4.538   4.822  0.00  0.00    +0.179 C 
ATOM      7  O   UNL     1       3.884  -5.678   5.517  0.00  0.00    -0.376 OA
ATOM      8  C   UNL     1       2.968  -6.468   4.754  0.00  0.00    +0.182 C 
ATOM      9  C   UNL     1       1.732  -5.619   4.415  0.00  0.00    +0.100 C 
ATOM     10  C   UNL     1       0.834  -6.380   3.438  0.00  0.00    +0.030 C 
ATOM     11  H   UNL     1       2.877  -2.334   2.452  0.00  0.00    +0.151 HD
ENDROOT
BRANCH   1  17
ATOM     12  C   UNL     1       1.636   0.965  -1.078  0.00  0.00    +0.008 C 
ATOM     13  C   UNL     1       1.405  -0.535  -0.880  0.00  0.00    -0.009 C 
ATOM     14  C   UNL     1       2.155  -1.314  -1.963  0.00  0.00    +0.003 C 
ATOM     15  C   UNL     1       1.924  -2.813  -1.765  0.00  0.00    +0.002 C 
ATOM     16  C   UNL     1       2.439  -3.231  -0.386  0.00  0.00    +0.022 C 
ATOM     17  C   UNL     1       1.689  -2.452   0.696  0.00  0.00    +0.078 C 
ATOM     18  C   UNL     1       1.920  -0.953   0.498  0.00  0.00    +0.009 C 
ATOM     19  C   UNL     1       1.170  -0.173   1.581  0.00  0.00    +0.009 C 
ENDBRANCH   1  17
TORSDOF 1
