REMARK  Name = ZINC36532860
REMARK  2 active torsions:
REMARK  status: ('A' for Active; 'I' for Inactive)
REMARK    1  A    between atoms: C_1  and  C_2
REMARK    2  A    between atoms: C_7  and  N_8
REMARK                            x       y       z     vdW  Elec       q    Type
REMARK                         _______ _______ _______ _____ _____    ______ ____
ROOT
ATOM      1  C   UNL     1      -0.018   1.503   0.010  0.00  0.00    +0.046 C 
ATOM      2  C   UNL     1       0.002  -0.004   0.002  0.00  0.00    -0.018 A 
ATOM      3  C   UNL     1       0.006  -0.689  -1.199  0.00  0.00    +0.021 A 
ATOM      4  C   UNL     1       0.025  -2.071  -1.207  0.00  0.00    +0.019 A 
ATOM      5  C   UNL     1       0.040  -2.770  -0.013  0.00  0.00    +0.032 A 
ATOM      6  C   UNL     1       0.037  -2.085   1.188  0.00  0.00    +0.049 A 
ATOM      7  C   UNL     1       0.023  -0.701   1.195  0.00  0.00    +0.143 A 
ATOM      8 BR   UNL     1       0.058  -3.039   2.821  0.00  0.00    -0.048 Br
ATOM      9 BR   UNL     1       0.028  -3.007  -2.850  0.00  0.00    -0.050 Br
ENDROOT
BRANCH   7  10
ATOM     10  N   UNL     1       0.025   0.032   2.481  0.00  0.00    +0.058 N 
ATOM     11  O   UNL     1      -1.022   0.317   3.015  0.00  0.00    -0.126 OA
ATOM     12  O   UNL     1       1.072   0.346   2.996  0.00  0.00    -0.126 OA
ENDBRANCH   7  10
TORSDOF 1
