REMARK  Name = ZINC65502553
REMARK  6 active torsions:
REMARK  status: ('A' for Active; 'I' for Inactive)
REMARK    1  A    between atoms: C_1  and  O_2
REMARK    2  A    between atoms: O_2  and  C_3
REMARK    3  A    between atoms: C_5  and  C_10
REMARK    4  A    between atoms: C_8  and  O_9
REMARK    5  A    between atoms: C_11  and  C_12
REMARK    6  A    between atoms: C_20  and  C_24
REMARK                            x       y       z     vdW  Elec       q    Type
REMARK                         _______ _______ _______ _____ _____    ______ ____
ROOT
ATOM      1  C   UNL     1      -7.306   0.405   0.057  0.00  0.00    +0.056 C 
ATOM      2  C   UNL     1      -8.141   0.059  -1.179  0.00  0.00    +0.108 C 
ATOM      3  C   UNL     1      -8.807  -1.278  -1.045  0.00  0.00    +0.219 C 
ATOM      4  O   UNL     1      -8.894  -1.984  -2.028  0.00  0.00    -0.275 OA
ATOM      5  N   UNL     1      -9.314  -1.730   0.121  0.00  0.00    -0.269 N 
ATOM      6  C   UNL     1      -9.072  -0.974   1.279  0.00  0.00    +0.151 A 
ATOM      7  C   UNL     1      -8.110   0.061   1.285  0.00  0.00    +0.027 A 
ATOM      8  C   UNL     1      -8.089   0.607   2.522  0.00  0.00    +0.071 A 
ATOM      9  N   UNL     1      -9.013  -0.061   3.276  0.00  0.00    -0.275 N 
ATOM     10  H   UNL     1      -9.222   0.111   4.208  0.00  0.00    +0.189 HD
ATOM     11  N   UNL     1      -9.607  -1.043   2.462  0.00  0.00    -0.158 NA
ATOM     12  H   UNL     1      -9.829  -2.551   0.159  0.00  0.00    +0.156 HD
ENDROOT
BRANCH   8  13
ATOM     13  C   UNL     1      -7.228   1.722   2.975  0.00  0.00    +0.000 A 
ATOM     14  C   UNL     1      -5.872   1.738   2.645  0.00  0.00    +0.010 A 
ATOM     15  C   UNL     1      -5.074   2.781   3.070  0.00  0.00    +0.001 A 
ATOM     16  C   UNL     1      -5.615   3.808   3.822  0.00  0.00    +0.000 A 
ATOM     17  C   UNL     1      -6.959   3.797   4.153  0.00  0.00    +0.001 A 
ATOM     18  C   UNL     1      -7.768   2.763   3.729  0.00  0.00    +0.010 A 
ENDBRANCH   8  13
BRANCH   1  20
ATOM     19  C   UNL     1      -4.857   0.229   0.038  0.00  0.00    +0.004 C 
ATOM     20  C   UNL     1      -6.028  -0.393   0.046  0.00  0.00    -0.018 C 
BRANCH  19  23
ATOM     21  C   UNL     1      -1.201  -0.638   0.010  0.00  0.00    +0.162 A 
ATOM     22  C   UNL     1      -2.371   0.099   0.019  0.00  0.00    +0.057 A 
ATOM     23  C   UNL     1      -3.604  -0.554   0.028  0.00  0.00    -0.022 A 
ATOM     24  C   UNL     1      -3.651  -1.949   0.027  0.00  0.00    +0.012 A 
ATOM     25  C   UNL     1      -2.481  -2.679   0.017  0.00  0.00    +0.050 A 
ATOM     26  C   UNL     1      -1.255  -2.030   0.003  0.00  0.00    +0.158 A 
BRANCH  21  28
ATOM     27  C   UNL     1      -0.017   1.425   0.010  0.00  0.00    +0.277 C 
ATOM     28  O   UNL     1       0.002  -0.004   0.002  0.00  0.00    -0.491 OA
ENDBRANCH  21  28
BRANCH  26  29
ATOM     29  O   UNL     1      -0.104  -2.753  -0.012  0.00  0.00    -0.503 OA
ATOM     30  H   UNL     1       0.237  -2.967   0.867  0.00  0.00    +0.292 HD
ENDBRANCH  26  29
ENDBRANCH  19  23
ENDBRANCH   1  20
TORSDOF 5
