REMARK  Name = CHEMBL462162
REMARK  4 active torsions:
REMARK  status: ('A' for Active; 'I' for Inactive)
REMARK    1  A    between atoms: C_1  and  O_2
REMARK    2  A    between atoms: O_2  and  C_3
REMARK    3  A    between atoms: C_5  and  N_18
REMARK    4  A    between atoms: C_8  and  C_9
REMARK                            x       y       z     vdW  Elec       q    Type
REMARK                         _______ _______ _______ _____ _____    ______ ____
ROOT
ATOM      1  C   UNL     1       0.765  -0.632   0.968  0.00  0.00    +0.132 A 
ATOM      2  C   UNL     1       1.344   0.124   1.971  0.00  0.00    +0.069 A 
ATOM      3  C   UNL     1       1.833  -0.496   3.114  0.00  0.00    +0.036 A 
ATOM      4  C   UNL     1       1.745  -1.878   3.253  0.00  0.00    +0.024 A 
ATOM      5  C   UNL     1       1.171  -2.639   2.260  0.00  0.00    +0.016 A 
ATOM      6  C   UNL     1       0.669  -2.023   1.110  0.00  0.00    +0.049 A 
ENDROOT
BRANCH   3   7
ATOM      7  N   UNL     1       2.417   0.269   4.124  0.00  0.00    -0.299 N 
ATOM      8  C   UNL     1       3.456  -0.253   4.874  0.00  0.00    +0.135 A 
ATOM      9  C   UNL     1       3.979   0.453   5.969  0.00  0.00    +0.059 A 
ATOM     10  C   UNL     1       3.691   1.736   6.606  0.00  0.00    +0.032 A 
ATOM     11  C   UNL     1       4.546   1.860   7.635  0.00  0.00    +0.085 A 
ATOM     12  N   UNL     1       5.355   0.755   7.701  0.00  0.00    -0.346 N 
ATOM     13  H   UNL     1       6.053   0.616   8.361  0.00  0.00    +0.167 HD
ATOM     14  C   UNL     1       5.035  -0.120   6.700  0.00  0.00    +0.143 A 
ATOM     15  N   UNL     1       5.498  -1.311   6.323  0.00  0.00    -0.218 NA
ATOM     16  C   UNL     1       4.978  -1.937   5.289  0.00  0.00    +0.225 A 
ATOM     17  N   UNL     1       3.982  -1.438   4.580  0.00  0.00    -0.220 NA
ATOM     18  H   UNL     1       2.094   1.166   4.301  0.00  0.00    +0.154 HD
ENDBRANCH   3   7
BRANCH   6  19
ATOM     19  C   UNL     1       0.047  -2.835   0.047  0.00  0.00    +0.113 A 
ATOM     20  N   UNL     1      -0.466  -2.442  -1.100  0.00  0.00    -0.239 NA
ATOM     21  C   UNL     1      -1.006  -3.303  -1.985  0.00  0.00    +0.079 A 
ATOM     22  C   UNL     1      -1.587  -3.014  -3.242  0.00  0.00    +0.029 A 
ATOM     23  C   UNL     1      -2.093  -4.007  -4.021  0.00  0.00    +0.002 A 
ATOM     24  C   UNL     1      -2.062  -5.335  -3.620  0.00  0.00    +0.001 A 
ATOM     25  C   UNL     1      -1.503  -5.661  -2.398  0.00  0.00    +0.017 A 
ATOM     26  C   UNL     1      -0.989  -4.665  -1.604  0.00  0.00    +0.040 A 
ATOM     27  S   UNL     1      -0.195  -4.605  -0.016  0.00  0.00    -0.067 S 
ENDBRANCH   6  19
BRANCH   1  29
ATOM     28  C   UNL     1       0.417   1.393  -0.226  0.00  0.00    +0.277 C 
ATOM     29  O   UNL     1       0.285  -0.028  -0.150  0.00  0.00    -0.494 OA
ENDBRANCH   1  29
TORSDOF 3
