REMARK  Name = CHEMBL398960
REMARK  14 active torsions:
REMARK  status: ('A' for Active; 'I' for Inactive)
REMARK    1  A    between atoms: C_1  and  C_2
REMARK    2  A    between atoms: C_2  and  N_3
REMARK    3  A    between atoms: N_3  and  C_4
REMARK    4  A    between atoms: N_3  and  C_6
REMARK    5  A    between atoms: C_4  and  C_5
REMARK    6  A    between atoms: C_6  and  C_7
REMARK    7  A    between atoms: C_6  and  C_8
REMARK    8  A    between atoms: C_6  and  C_15
REMARK    9  A    between atoms: C_8  and  C_9
REMARK   10  A    between atoms: C_16  and  C_17
REMARK   11  A    between atoms: C_20  and  O_29
REMARK   12  A    between atoms: C_21  and  O_27
REMARK   13  A    between atoms: O_27  and  C_28
REMARK   14  A    between atoms: O_29  and  C_30
REMARK                            x       y       z     vdW  Elec       q    Type
REMARK                         _______ _______ _______ _____ _____    ______ ____
ROOT
ATOM      1  C   UNL     1      -2.631   2.253   0.889  0.00  0.00    -0.107 C 
ATOM      2  C   UNL     1      -3.224   3.139   0.398  0.00  0.00    -0.047 C 
ENDROOT
BRANCH   2   3
ATOM      3  C   UNL     1      -3.948   4.219  -0.201  0.00  0.00    +0.124 A 
ATOM      4  C   UNL     1      -3.537   4.774  -1.439  0.00  0.00    +0.038 A 
ATOM      5  C   UNL     1      -2.417   4.298  -2.131  0.00  0.00    +0.062 A 
ATOM      6  C   UNL     1      -2.067   4.870  -3.321  0.00  0.00    +0.162 A 
ATOM      7  C   UNL     1      -2.817   5.928  -3.856  0.00  0.00    +0.164 A 
ATOM      8  C   UNL     1      -3.914   6.411  -3.201  0.00  0.00    +0.077 A 
ATOM      9  C   UNL     1      -4.297   5.843  -1.979  0.00  0.00    +0.079 A 
ATOM     10  N   UNL     1      -5.366   6.280  -1.299  0.00  0.00    -0.235 NA
ATOM     11  C   UNL     1      -5.700   5.729  -0.156  0.00  0.00    +0.223 A 
ATOM     12  N   UNL     1      -5.028   4.727   0.386  0.00  0.00    -0.227 NA
BRANCH   7  13
ATOM     13  O   UNL     1      -2.447   6.479  -5.041  0.00  0.00    -0.491 OA
ATOM     14  C   UNL     1      -3.249   7.553  -5.536  0.00  0.00    +0.277 C 
ENDBRANCH   7  13
BRANCH   6  15
ATOM     15  O   UNL     1      -0.979   4.409  -3.994  0.00  0.00    -0.491 OA
ATOM     16  C   UNL     1      -0.256   3.330  -3.397  0.00  0.00    +0.277 C 
ENDBRANCH   6  15
ENDBRANCH   2   3
BRANCH   1  17
ATOM     17  C   UNL     1      -1.887   1.142   1.505  0.00  0.00    +0.000 C 
ATOM     18  C   UNL     1      -1.376   1.572   2.881  0.00  0.00    +0.004 C 
BRANCH  17  19
ATOM     19  N   UNL     1      -0.748   0.782   0.650  0.00  0.00    +0.390 N 
ATOM     20  H   UNL     1      -0.259   1.619   0.372  0.00  0.00    -0.080 HD
BRANCH  19  22
ATOM     21  C   UNL     1       1.581   0.483   1.344  0.00  0.00    -0.017 C 
ATOM     22  C   UNL     1       0.165  -0.095   1.395  0.00  0.00    -0.080 C 
ENDBRANCH  19  22
BRANCH  19  23
ATOM     23  C   UNL     1      -1.235   0.080  -0.545  0.00  0.00    -0.080 C 
ATOM     24  C   UNL     1      -2.113   1.024  -1.369  0.00  0.00    -0.017 C 
ENDBRANCH  19  23
ENDBRANCH  17  19
BRANCH  17  25
ATOM     25  C   UNL     1      -2.812  -0.068   1.659  0.00  0.00    +0.035 C 
BRANCH  25  26
ATOM     26  C   UNL     1      -2.088  -1.161   2.402  0.00  0.00    -0.045 A 
ATOM     27  C   UNL     1      -1.495  -2.211   1.718  0.00  0.00    +0.023 A 
ATOM     28  C   UNL     1      -0.840  -3.196   2.433  0.00  0.00    +0.111 A 
ATOM     29  N   UNL     1      -0.777  -3.145   3.750  0.00  0.00    -0.263 NA
ATOM     30  C   UNL     1      -1.330  -2.162   4.433  0.00  0.00    +0.111 A 
ATOM     31  C   UNL     1      -1.996  -1.138   3.785  0.00  0.00    +0.023 A 
ENDBRANCH  25  26
ENDBRANCH  17  25
ENDBRANCH   1  17
TORSDOF 9
