REMARK  Name = CHEMBL92006
REMARK  6 active torsions:
REMARK  status: ('A' for Active; 'I' for Inactive)
REMARK    1  A    between atoms: C_1  and  O_2
REMARK    2  A    between atoms: O_2  and  C_3
REMARK    3  A    between atoms: C_8  and  O_9
REMARK    4  A    between atoms: O_9  and  C_10
REMARK    5  A    between atoms: C_14  and  N_15
REMARK    6  A    between atoms: N_16  and  C_17
REMARK                            x       y       z     vdW  Elec       q    Type
REMARK                         _______ _______ _______ _____ _____    ______ ____
ROOT
ATOM      1  C   UNL     1       0.606  -0.607  -1.056  0.00  0.00    +0.162 A 
ATOM      2  C   UNL     1       1.162   0.158  -2.043  0.00  0.00    +0.063 A 
ATOM      3  C   UNL     1       1.783  -0.465  -3.130  0.00  0.00    +0.050 A 
ATOM      4  C   UNL     1       1.831  -1.882  -3.200  0.00  0.00    +0.080 A 
ATOM      5  C   UNL     1       1.253  -2.641  -2.174  0.00  0.00    +0.078 A 
ATOM      6  C   UNL     1       0.656  -2.008  -1.119  0.00  0.00    +0.164 A 
ATOM      7  N   UNL     1       2.432  -2.454  -4.251  0.00  0.00    -0.235 NA
ATOM      8  C   UNL     1       2.966  -1.717  -5.198  0.00  0.00    +0.224 A 
ATOM      9  N   UNL     1       2.947  -0.396  -5.179  0.00  0.00    -0.214 NA
ATOM     10  C   UNL     1       2.377   0.277  -4.183  0.00  0.00    +0.185 A 
ENDROOT
BRANCH   1  12
ATOM     11  C   UNL     1      -0.017   1.425   0.010  0.00  0.00    +0.277 C 
ATOM     12  O   UNL     1       0.002  -0.004   0.002  0.00  0.00    -0.491 OA
ENDBRANCH   1  12
BRANCH   6  13
ATOM     13  O   UNL     1       0.101  -2.745  -0.123  0.00  0.00    -0.491 OA
ATOM     14  C   UNL     1       0.184  -4.166  -0.243  0.00  0.00    +0.277 C 
ENDBRANCH   6  13
BRANCH  10  15
ATOM     15  N   UNL     1       2.364   1.641  -4.174  0.00  0.00    -0.128 NA
ATOM     16  N   UNL     1       2.909   2.297  -5.141  0.00  0.00    -0.148 NA
BRANCH  16  17
ATOM     17  C   UNL     1       2.896   3.660  -5.133  0.00  0.00    +0.088 A 
ATOM     18  C   UNL     1       2.296   4.350  -4.073  0.00  0.00    +0.032 A 
ATOM     19  C   UNL     1       2.286   5.728  -4.070  0.00  0.00    +0.042 A 
ATOM     20  C   UNL     1       2.869   6.431  -5.114  0.00  0.00    +0.142 A 
ATOM     21  C   UNL     1       3.465   5.753  -6.168  0.00  0.00    +0.078 A 
ATOM     22  C   UNL     1       3.487   4.375  -6.181  0.00  0.00    +0.052 A 
ATOM     23 CL   UNL     1       4.191   6.643  -7.471  0.00  0.00    -0.081 Cl
ATOM     24  F   UNL     1       2.855   7.782  -5.105  0.00  0.00    -0.204 F 
ENDBRANCH  16  17
ENDBRANCH  10  15
TORSDOF 4
