REMARK  Name = CHEMBL402316
REMARK  7 active torsions:
REMARK  status: ('A' for Active; 'I' for Inactive)
REMARK    1  A    between atoms: C_1  and  O_2
REMARK    2  A    between atoms: O_2  and  N_3
REMARK    3  A    between atoms: C_4  and  C_5
REMARK    4  A    between atoms: C_10  and  N_11
REMARK    5  A    between atoms: N_11  and  C_12
REMARK    6  A    between atoms: C_19  and  C_21
REMARK    7  A    between atoms: C_21  and  C_22
REMARK                            x       y       z     vdW  Elec       q    Type
REMARK                         _______ _______ _______ _____ _____    ______ ____
ROOT
ATOM      1  C   UNL     1       1.089  -6.138   1.312  0.00  0.00    +0.034 A 
ATOM      2  C   UNL     1       1.871  -6.742   2.295  0.00  0.00    +0.025 A 
ATOM      3  C   UNL     1       2.082  -8.090   2.284  0.00  0.00    +0.032 A 
ATOM      4  C   UNL     1       1.512  -8.878   1.279  0.00  0.00    +0.089 A 
ATOM      5  C   UNL     1       0.724  -8.273   0.286  0.00  0.00    +0.068 A 
ATOM      6  C   UNL     1       0.511  -6.902   0.312  0.00  0.00    +0.051 A 
ATOM      7  N   UNL     1       0.310  -9.293  -0.547  0.00  0.00    -0.341 N 
ATOM      8  C   UNL     1       0.836 -10.451  -0.061  0.00  0.00    +0.113 A 
ATOM      9  N   UNL     1       1.539 -10.209   1.007  0.00  0.00    -0.232 NA
ATOM     10  H   UNL     1      -0.252  -9.202  -1.332  0.00  0.00    +0.167 HD
ENDROOT
BRANCH   1  11
ATOM     11  N   UNL     1       0.883  -4.754   1.339  0.00  0.00    -0.299 N 
ATOM     12  H   UNL     1       1.580  -4.166   1.669  0.00  0.00    +0.154 HD
BRANCH  11  18
ATOM     13  C   UNL     1      -0.496  -2.832   0.812  0.00  0.00    +0.076 A 
ATOM     14  C   UNL     1      -1.735  -2.355   0.347  0.00  0.00    +0.130 A 
ATOM     15  N   UNL     1      -2.676  -3.233   0.013  0.00  0.00    -0.220 NA
ATOM     16  C   UNL     1      -2.462  -4.530   0.112  0.00  0.00    +0.225 A 
ATOM     17  N   UNL     1      -1.319  -5.024   0.542  0.00  0.00    -0.220 NA
ATOM     18  C   UNL     1      -0.315  -4.225   0.894  0.00  0.00    +0.137 A 
ATOM     19  N   UNL     1      -1.971  -0.997   0.240  0.00  0.00    -0.342 N 
ATOM     20  H   UNL     1      -1.251  -0.366   0.397  0.00  0.00    +0.144 HD
ATOM     21  H   UNL     1      -2.855  -0.675   0.006  0.00  0.00    +0.144 HD
BRANCH  13  23
ATOM     22  N   UNL     1       0.430  -0.630   1.014  0.00  0.00    -0.093 NA
ATOM     23  C   UNL     1       0.579  -1.904   1.196  0.00  0.00    +0.167 C 
BRANCH  22  25
ATOM     24  C   UNL     1       1.166   1.637   1.127  0.00  0.00    +0.313 C 
ATOM     25  O   UNL     1       1.465   0.264   1.383  0.00  0.00    -0.397 OA
ENDBRANCH  22  25
ENDBRANCH  13  23
ENDBRANCH  11  18
ENDBRANCH   1  11
BRANCH   8  26
ATOM     26  C   UNL     1       0.633 -11.814  -0.670  0.00  0.00    +0.109 C 
BRANCH  26  27
ATOM     27  C   UNL     1       1.974 -12.445  -0.947  0.00  0.00    -0.037 A 
ATOM     28  C   UNL     1       2.595 -12.242  -2.165  0.00  0.00    +0.004 A 
ATOM     29  C   UNL     1       3.824 -12.820  -2.421  0.00  0.00    +0.003 A 
ATOM     30  C   UNL     1       4.434 -13.603  -1.458  0.00  0.00    +0.038 A 
ATOM     31  C   UNL     1       3.813 -13.807  -0.238  0.00  0.00    +0.124 A 
ATOM     32  C   UNL     1       2.584 -13.222   0.019  0.00  0.00    +0.042 A 
ATOM     33  F   UNL     1       4.408 -14.572   0.703  0.00  0.00    -0.205 F 
ENDBRANCH  26  27
ENDBRANCH   8  26
TORSDOF 6
