REMARK  Name = CHEMBL272935
REMARK  11 active torsions:
REMARK  status: ('A' for Active; 'I' for Inactive)
REMARK    1  A    between atoms: C_1  and  N_2
REMARK    2  A    between atoms: N_5  and  C_8
REMARK    3  A    between atoms: C_8  and  C_9
REMARK    4  A    between atoms: C_9  and  C_10
REMARK    5  A    between atoms: C_10  and  O_11
REMARK    6  A    between atoms: O_11  and  C_12
REMARK    7  A    between atoms: C_21  and  N_22
REMARK    8  A    between atoms: N_22  and  C_23
REMARK    9  A    between atoms: C_26  and  O_30
REMARK   10  A    between atoms: O_30  and  C_31
REMARK   11  A    between atoms: C_31  and  C_32
REMARK                            x       y       z     vdW  Elec       q    Type
REMARK                         _______ _______ _______ _____ _____    ______ ____
ROOT
ATOM      1  C   UNL     1       1.228  -7.968   3.414  0.00  0.00    +0.246 A 
ATOM      2  C   UNL     1       1.505  -8.700   4.645  0.00  0.00    +0.121 A 
ATOM      3  C   UNL     1       1.417 -10.069   4.323  0.00  0.00    +0.164 A 
ATOM      4  N   UNL     1       1.110 -10.142   2.998  0.00  0.00    -0.257 N 
ATOM      5  H   UNL     1       0.985 -10.963   2.495  0.00  0.00    +0.191 HD
ATOM      6  N   UNL     1       0.997  -8.849   2.477  0.00  0.00    -0.134 NA
ATOM      7  N   UNL     1       1.631 -10.967   5.284  0.00  0.00    -0.216 NA
ATOM      8  C   UNL     1       1.918 -10.583   6.509  0.00  0.00    +0.225 A 
ATOM      9  N   UNL     1       2.011  -9.312   6.856  0.00  0.00    -0.220 NA
ATOM     10  C   UNL     1       1.815  -8.341   5.968  0.00  0.00    +0.141 A 
ENDROOT
BRANCH  10  11
ATOM     11  N   UNL     1       1.913  -7.013   6.337  0.00  0.00    -0.299 N 
ATOM     12  H   UNL     1       1.687  -6.316   5.702  0.00  0.00    +0.154 HD
BRANCH  11  13
ATOM     13  C   UNL     1       2.340  -6.675   7.627  0.00  0.00    +0.034 A 
ATOM     14  C   UNL     1       1.798  -5.570   8.270  0.00  0.00    +0.027 A 
ATOM     15  C   UNL     1       2.219  -5.236   9.542  0.00  0.00    +0.049 A 
ATOM     16  C   UNL     1       3.183  -6.004  10.178  0.00  0.00    +0.139 A 
ATOM     17  C   UNL     1       3.725  -7.109   9.536  0.00  0.00    +0.084 A 
ATOM     18  C   UNL     1       3.301  -7.447   8.265  0.00  0.00    +0.047 A 
ATOM     19 CL   UNL     1       4.932  -8.070  10.333  0.00  0.00    -0.080 Cl
BRANCH  16  20
ATOM     20  O   UNL     1       3.598  -5.675  11.431  0.00  0.00    -0.484 OA
BRANCH  20  21
ATOM     21  C   UNL     1       2.997  -4.525  12.031  0.00  0.00    +0.284 C 
BRANCH  21  22
ATOM     22  C   UNL     1       3.576  -4.317  13.407  0.00  0.00    +0.078 A 
ATOM     23  C   UNL     1       4.541  -5.186  13.881  0.00  0.00    +0.027 A 
ATOM     24  C   UNL     1       5.067  -4.985  15.148  0.00  0.00    +0.003 A 
ATOM     25  C   UNL     1       4.601  -3.914  15.894  0.00  0.00    +0.020 A 
ATOM     26  C   UNL     1       3.634  -3.087  15.354  0.00  0.00    +0.111 A 
ATOM     27  N   UNL     1       3.160  -3.305  14.143  0.00  0.00    -0.256 NA
ENDBRANCH  21  22
ENDBRANCH  20  21
ENDBRANCH  16  20
ENDBRANCH  11  13
ENDBRANCH  10  11
BRANCH   1  28
ATOM     28  O   UNL     1       1.207  -6.617   3.271  0.00  0.00    -0.475 OA
BRANCH  28  29
ATOM     29  C   UNL     1       0.905  -6.108   1.970  0.00  0.00    +0.229 C 
BRANCH  29  30
ATOM     30  C   UNL     1       0.928  -4.578   2.003  0.00  0.00    +0.022 C 
BRANCH  30  31
ATOM     31  C   UNL     1       0.604  -4.033   0.611  0.00  0.00    -0.075 C 
BRANCH  31  36
ATOM     32  C   UNL     1       1.618   1.432  -0.313  0.00  0.00    +0.104 C 
ATOM     33  N   UNL     1       1.559  -0.036  -0.304  0.00  0.00    -0.309 NA
ATOM     34  C   UNL     1       0.205  -0.510  -0.622  0.00  0.00    +0.065 C 
ATOM     35  C   UNL     1       0.200  -2.040  -0.661  0.00  0.00    -0.063 C 
ATOM     36  N   UNL     1       0.627  -2.564   0.643  0.00  0.00    +0.381 N 
ATOM     37  C   UNL     1       1.990  -2.102   0.936  0.00  0.00    -0.063 C 
ATOM     38  C   UNL     1       2.010  -0.573   0.988  0.00  0.00    +0.065 C 
ATOM     39  H   UNL     1      -0.002  -2.234   1.360  0.00  0.00    -0.082 HD
ENDBRANCH  31  36
ENDBRANCH  30  31
ENDBRANCH  29  30
ENDBRANCH  28  29
ENDBRANCH   1  28
TORSDOF 10
