REMARK  Name = CHEMBL171311
REMARK  7 active torsions:
REMARK  status: ('A' for Active; 'I' for Inactive)
REMARK    1  A    between atoms: C_4  and  C_7
REMARK    2  A    between atoms: C_7  and  C_8
REMARK    3  A    between atoms: C_8  and  C_9
REMARK    4  A    between atoms: C_8  and  N_11
REMARK    5  A    between atoms: C_9  and  O_10
REMARK    6  A    between atoms: C_13  and  C_21
REMARK    7  A    between atoms: C_19  and  N_20
REMARK                            x       y       z     vdW  Elec       q    Type
REMARK                         _______ _______ _______ _____ _____    ______ ____
ROOT
ATOM      1  N   UNL     1       5.504  -1.571   1.384  0.00  0.00    -0.326 N 
ATOM      2  C   UNL     1       5.815  -2.759   0.781  0.00  0.00    +0.097 A 
ATOM      3  C   UNL     1       7.132  -3.028   0.956  0.00  0.00    +0.012 A 
ATOM      4  C   UNL     1       7.686  -1.912   1.733  0.00  0.00    +0.066 A 
ATOM      5  C   UNL     1       6.618  -1.028   1.965  0.00  0.00    +0.147 A 
ATOM      6  N   UNL     1       6.854   0.087   2.655  0.00  0.00    -0.218 NA
ATOM      7  C   UNL     1       8.060   0.357   3.105  0.00  0.00    +0.225 A 
ATOM      8  N   UNL     1       9.091  -0.444   2.905  0.00  0.00    -0.220 NA
ATOM      9  C   UNL     1       8.953  -1.586   2.236  0.00  0.00    +0.129 A 
ENDROOT
BRANCH   3  10
ATOM     10  C   UNL     1       7.869  -4.215   0.460  0.00  0.00    -0.016 A 
ATOM     11  C   UNL     1       9.067  -4.056  -0.234  0.00  0.00    +0.008 A 
ATOM     12  C   UNL     1       9.748  -5.165  -0.692  0.00  0.00    +0.001 A 
ATOM     13  C   UNL     1       9.244  -6.433  -0.465  0.00  0.00    +0.000 A 
ATOM     14  C   UNL     1       8.055  -6.597   0.223  0.00  0.00    +0.001 A 
ATOM     15  C   UNL     1       7.368  -5.496   0.692  0.00  0.00    +0.008 A 
ENDBRANCH   3  10
BRANCH   9  16
ATOM     16  N   UNL     1      10.035  -2.422   2.028  0.00  0.00    -0.343 N 
ATOM     17  H   UNL     1       9.923  -3.245   1.529  0.00  0.00    +0.144 HD
ATOM     18  H   UNL     1      10.906  -2.184   2.382  0.00  0.00    +0.144 HD
ENDBRANCH   9  16
BRANCH   1  19
ATOM     19  C   UNL     1       4.171  -0.963   1.399  0.00  0.00    +0.118 C 
BRANCH  19  20
ATOM     20  C   UNL     1       3.711  -0.707  -0.038  0.00  0.00    +0.062 C 
BRANCH  20  24
ATOM     21  C   UNL     1      -0.017   1.378   0.010  0.00  0.00    +0.000 A 
ATOM     22  C   UNL     1       1.171   2.086   0.002  0.00  0.00    +0.000 A 
ATOM     23  C   UNL     1       2.377   1.411  -0.013  0.00  0.00    +0.004 A 
ATOM     24  C   UNL     1       2.396   0.029  -0.020  0.00  0.00    -0.045 A 
ATOM     25  C   UNL     1       1.208  -0.679  -0.012  0.00  0.00    +0.004 A 
ATOM     26  C   UNL     1       0.002  -0.004   0.002  0.00  0.00    +0.000 A 
ENDBRANCH  20  24
ENDBRANCH  19  20
BRANCH  19  27
ATOM     27  C   UNL     1       3.187  -1.910   2.089  0.00  0.00    +0.181 C 
BRANCH  27  28
ATOM     28  O   UNL     1       3.551  -2.057   3.463  0.00  0.00    -0.393 OA
ATOM     29  H   UNL     1       2.969  -2.646   3.963  0.00  0.00    +0.209 HD
ENDBRANCH  27  28
ENDBRANCH  19  27
ENDBRANCH   1  19
TORSDOF 7
