REMARK  Name = CHEMBL570709
REMARK  8 active torsions:
REMARK  status: ('A' for Active; 'I' for Inactive)
REMARK    1  A    between atoms: C_1  and  N_2
REMARK    2  A    between atoms: N_2  and  N_15
REMARK    3  A    between atoms: C_3  and  O_5
REMARK    4  A    between atoms: O_5  and  C_6
REMARK    5  A    between atoms: C_9  and  N_12
REMARK    6  A    between atoms: N_16  and  C_17
REMARK    7  A    between atoms: C_23  and  N_27
REMARK    8  A    between atoms: N_27  and  C_28
REMARK                            x       y       z     vdW  Elec       q    Type
REMARK                         _______ _______ _______ _____ _____    ______ ____
ROOT
ATOM      1  C   UNL     1      -0.098   1.508  -2.354  0.00  0.00    +0.088 A 
ATOM      2  C   UNL     1       0.063   2.218  -1.152  0.00  0.00    +0.032 A 
ATOM      3  C   UNL     1      -0.150   3.560  -1.101  0.00  0.00    +0.030 A 
ATOM      4  C   UNL     1      -0.536   4.253  -2.258  0.00  0.00    +0.076 A 
ATOM      5  C   UNL     1      -0.701   3.546  -3.475  0.00  0.00    +0.042 A 
ATOM      6  C   UNL     1      -0.474   2.168  -3.515  0.00  0.00    +0.043 A 
ATOM      7  C   UNL     1      -1.091   4.275  -4.626  0.00  0.00    +0.134 A 
ATOM      8  N   UNL     1      -1.282   5.582  -4.504  0.00  0.00    -0.220 NA
ATOM      9  C   UNL     1      -1.115   6.199  -3.345  0.00  0.00    +0.223 A 
ATOM     10  N   UNL     1      -0.755   5.576  -2.249  0.00  0.00    -0.235 NA
ENDROOT
BRANCH   1  12
ATOM     11  N   UNL     1       0.528  -0.387  -3.419  0.00  0.00    -0.069 NA
ATOM     12  N   UNL     1       0.122   0.155  -2.380  0.00  0.00    -0.133 NA
BRANCH  11  14
ATOM     13  C   UNL     1       2.040   1.532  -3.856  0.00  0.00    +0.166 C 
ATOM     14  N   UNL     1       1.344   0.325  -4.308  0.00  0.00    -0.143 N 
ATOM     15  C   UNL     1       1.489  -0.101  -5.579  0.00  0.00    +0.429 C 
ATOM     16  O   UNL     1       2.197   0.516  -6.349  0.00  0.00    -0.224 OA
BRANCH  15  17
ATOM     17  O   UNL     1       0.849  -1.211  -5.994  0.00  0.00    -0.410 OA
BRANCH  17  18
ATOM     18  C   UNL     1       1.106  -1.663  -7.249  0.00  0.00    +0.133 A 
ATOM     19  C   UNL     1       0.106  -1.648  -8.211  0.00  0.00    +0.048 A 
ATOM     20  C   UNL     1       0.370  -2.108  -9.487  0.00  0.00    +0.036 A 
ATOM     21  C   UNL     1       1.628  -2.584  -9.805  0.00  0.00    +0.126 A 
ATOM     22  C   UNL     1       2.626  -2.600  -8.848  0.00  0.00    +0.036 A 
ATOM     23  C   UNL     1       2.369  -2.136  -7.573  0.00  0.00    +0.048 A 
BRANCH  21  24
ATOM     24  N   UNL     1       1.908  -3.078 -11.172  0.00  0.00    +0.056 N 
ATOM     25  O   UNL     1       1.036  -3.065 -12.010  0.00  0.00    -0.126 OA
ATOM     26  O   UNL     1       3.008  -3.494 -11.451  0.00  0.00    -0.126 OA
ENDBRANCH  21  24
ENDBRANCH  17  18
ENDBRANCH  15  17
ENDBRANCH  11  14
ENDBRANCH   1  12
BRANCH   7  27
ATOM     27  N   UNL     1      -1.268   3.644  -5.839  0.00  0.00    -0.299 N 
ATOM     28  H   UNL     1      -1.203   2.678  -5.897  0.00  0.00    +0.154 HD
BRANCH  27  29
ATOM     29  C   UNL     1      -1.541   4.396  -6.985  0.00  0.00    +0.034 A 
ATOM     30  C   UNL     1      -2.385   3.889  -7.966  0.00  0.00    +0.023 A 
ATOM     31  C   UNL     1      -2.653   4.634  -9.097  0.00  0.00    +0.003 A 
ATOM     32  C   UNL     1      -2.082   5.883  -9.256  0.00  0.00    +0.020 A 
ATOM     33  C   UNL     1      -1.241   6.392  -8.282  0.00  0.00    +0.043 A 
ATOM     34  C   UNL     1      -0.974   5.653  -7.144  0.00  0.00    +0.043 A 
ATOM     35 CL   UNL     1      -0.526   7.960  -8.485  0.00  0.00    -0.083 Cl
ENDBRANCH  27  29
ENDBRANCH   7  27
TORSDOF 7
