REMARK  Name = CHEMBL179274
REMARK  14 active torsions:
REMARK  status: ('A' for Active; 'I' for Inactive)
REMARK    1  A    between atoms: C_1  and  C_2
REMARK    2  A    between atoms: C_2  and  O_3
REMARK    3  A    between atoms: O_3  and  C_4
REMARK    4  A    between atoms: C_9  and  N_10
REMARK    5  A    between atoms: C_11  and  C_13
REMARK    6  A    between atoms: C_14  and  C_15
REMARK    7  A    between atoms: C_15  and  N_16
REMARK    8  A    between atoms: N_16  and  C_17
REMARK    9  A    between atoms: N_16  and  C_18
REMARK   10  A    between atoms: C_19  and  N_25
REMARK   11  A    between atoms: C_20  and  C_23
REMARK   12  A    between atoms: N_25  and  C_26
REMARK   13  A    between atoms: C_29  and  O_33
REMARK   14  A    between atoms: O_33  and  C_34
REMARK                            x       y       z     vdW  Elec       q    Type
REMARK                         _______ _______ _______ _____ _____    ______ ____
ROOT
ATOM      1  C   UNL     1      -1.309  -4.552   4.083  0.00  0.00    +0.144 A 
ATOM      2  C   UNL     1      -0.346  -4.495   3.103  0.00  0.00    +0.076 A 
ATOM      3  C   UNL     1      -0.621  -4.996   1.821  0.00  0.00    +0.076 A 
ATOM      4  C   UNL     1      -1.894  -5.555   1.555  0.00  0.00    +0.025 A 
ATOM      5  C   UNL     1      -2.863  -5.605   2.567  0.00  0.00    +0.039 A 
ATOM      6  C   UNL     1      -2.568  -5.112   3.819  0.00  0.00    +0.077 A 
ATOM      7  C   UNL     1      -2.166  -6.058   0.261  0.00  0.00    +0.060 A 
ATOM      8  C   UNL     1      -1.148  -5.975  -0.701  0.00  0.00    +0.091 A 
ATOM      9  C   UNL     1       0.085  -5.404  -0.349  0.00  0.00    +0.132 A 
ATOM     10  N   UNL     1       0.310  -4.947   0.856  0.00  0.00    -0.253 NA
ENDROOT
BRANCH   6  11
ATOM     11  N   UNL     1      -3.532  -5.166   4.832  0.00  0.00    -0.279 N 
ATOM     12  C   UNL     1      -4.841  -5.076   4.523  0.00  0.00    +0.241 C 
ATOM     13  O   UNL     1      -5.191  -5.059   3.358  0.00  0.00    -0.271 OA
ATOM     14  H   UNL     1      -3.259  -5.268   5.757  0.00  0.00    +0.155 HD
BRANCH  12  15
ATOM     15  C   UNL     1      -5.846  -4.999   5.594  0.00  0.00    +0.064 C 
ATOM     16  C   UNL     1      -7.138  -4.910   5.289  0.00  0.00    -0.007 C 
BRANCH  16  17
ATOM     17  C   UNL     1      -8.168  -4.830   6.386  0.00  0.00    +0.111 C 
BRANCH  17  18
ATOM     18  N   UNL     1      -9.000  -3.636   6.191  0.00  0.00    -0.305 NA
ATOM     19  C   UNL     1     -10.158  -3.648   7.095  0.00  0.00    +0.104 C 
ATOM     20  C   UNL     1      -8.210  -2.410   6.364  0.00  0.00    +0.104 C 
ENDBRANCH  17  18
ENDBRANCH  16  17
ENDBRANCH  12  15
ENDBRANCH   6  11
BRANCH   8  21
ATOM     21  C   UNL     1      -1.365  -6.468  -2.028  0.00  0.00    +0.103 C 
ATOM     22  N   UNL     1      -1.537  -6.859  -3.081  0.00  0.00    -0.191 NA
ENDBRANCH   8  21
BRANCH   7  23
ATOM     23  N   UNL     1      -3.393  -6.613  -0.044  0.00  0.00    -0.313 N 
ATOM     24  H   UNL     1      -4.107  -6.052  -0.386  0.00  0.00    +0.152 HD
BRANCH  23  25
ATOM     25  C   UNL     1      -3.605  -7.984   0.138  0.00  0.00    +0.033 A 
ATOM     26  C   UNL     1      -2.628  -8.765   0.741  0.00  0.00    +0.027 A 
ATOM     27  C   UNL     1      -2.838 -10.117   0.921  0.00  0.00    +0.049 A 
ATOM     28  C   UNL     1      -4.025 -10.698   0.499  0.00  0.00    +0.140 A 
ATOM     29  C   UNL     1      -5.003  -9.919  -0.104  0.00  0.00    +0.084 A 
ATOM     30  C   UNL     1      -4.796  -8.564  -0.280  0.00  0.00    +0.047 A 
ATOM     31 CL   UNL     1      -6.488 -10.646  -0.633  0.00  0.00    -0.080 Cl
BRANCH  28  32
ATOM     32  O   UNL     1      -4.231 -12.030   0.677  0.00  0.00    -0.483 OA
BRANCH  32  33
ATOM     33  C   UNL     1      -3.154 -12.785   1.235  0.00  0.00    +0.204 C 
ATOM     34  C   UNL     1      -3.232 -14.254   0.770  0.00  0.00    +0.054 C 
ATOM     35  C   UNL     1      -4.045 -14.917   1.902  0.00  0.00    +0.039 C 
ATOM     36  C   UNL     1      -3.789 -14.065   3.126  0.00  0.00    -0.041 A 
ATOM     37  C   UNL     1      -3.275 -12.837   2.743  0.00  0.00    -0.004 A 
ATOM     38  C   UNL     1      -2.962 -11.889   3.702  0.00  0.00    +0.007 A 
ATOM     39  C   UNL     1      -3.159 -12.162   5.041  0.00  0.00    +0.000 A 
ATOM     40  C   UNL     1      -3.672 -13.387   5.426  0.00  0.00    +0.000 A 
ATOM     41  C   UNL     1      -3.987 -14.339   4.468  0.00  0.00    +0.004 A 
ENDBRANCH  32  33
ENDBRANCH  28  32
ENDBRANCH  23  25
ENDBRANCH   7  23
BRANCH   1  42
ATOM     42  O   UNL     1      -1.036  -4.066   5.322  0.00  0.00    -0.490 OA
BRANCH  42  44
ATOM     43  C   UNL     1       0.383  -3.017   6.973  0.00  0.00    +0.048 C 
ATOM     44  C   UNL     1       0.263  -3.508   5.529  0.00  0.00    +0.226 C 
ENDBRANCH  42  44
ENDBRANCH   1  42
TORSDOF 11
