REMARK  Name = CHEMBL122243
REMARK  2 active torsions:
REMARK  status: ('A' for Active; 'I' for Inactive)
REMARK    1  A    between atoms: C_4  and  C_7
REMARK    2  A    between atoms: N_14  and  C_16
REMARK                            x       y       z     vdW  Elec       q    Type
REMARK                         _______ _______ _______ _____ _____    ______ ____
ROOT
ATOM      1  C   UNL     1       3.861  -0.445   0.386  0.00  0.00    +0.106 A 
ATOM      2  C   UNL     1       4.096  -1.794   0.901  0.00  0.00    +0.086 A 
ATOM      3  C   UNL     1       3.325  -2.740   1.597  0.00  0.00    +0.131 A 
ATOM      4  N   UNL     1       3.886  -3.902   1.912  0.00  0.00    -0.220 NA
ATOM      5  C   UNL     1       5.138  -4.167   1.583  0.00  0.00    +0.225 A 
ATOM      6  N   UNL     1       5.897  -3.312   0.932  0.00  0.00    -0.216 NA
ATOM      7  C   UNL     1       5.424  -2.120   0.571  0.00  0.00    +0.169 A 
ATOM      8  N   UNL     1       5.944  -1.045  -0.092  0.00  0.00    -0.213 N 
ATOM      9  N   UNL     1       4.969  -0.046  -0.193  0.00  0.00    -0.164 NA
ATOM     10  N   UNL     1       2.015  -2.468   1.944  0.00  0.00    -0.342 N 
ATOM     11  H   UNL     1       1.542  -1.736   1.518  0.00  0.00    +0.144 HD
ATOM     12  H   UNL     1       1.569  -3.009   2.615  0.00  0.00    +0.144 HD
ENDROOT
BRANCH   1  16
ATOM     13  C   UNL     1       0.246   1.771   0.691  0.00  0.00    +0.000 A 
ATOM     14  C   UNL     1       0.731   1.090   1.793  0.00  0.00    +0.001 A 
ATOM     15  C   UNL     1       1.904   0.368   1.700  0.00  0.00    +0.010 A 
ATOM     16  C   UNL     1       2.600   0.328   0.492  0.00  0.00    +0.003 A 
ATOM     17  C   UNL     1       2.106   1.017  -0.615  0.00  0.00    +0.010 A 
ATOM     18  C   UNL     1       0.932   1.735  -0.509  0.00  0.00    +0.001 A 
ENDBRANCH   1  16
BRANCH   8  19
ATOM     19  C   UNL     1       7.247  -0.958  -0.597  0.00  0.00    +0.068 A 
ATOM     20  C   UNL     1       8.298  -1.560   0.083  0.00  0.00    +0.028 A 
ATOM     21  C   UNL     1       9.582  -1.472  -0.417  0.00  0.00    +0.002 A 
ATOM     22  C   UNL     1       9.822  -0.786  -1.594  0.00  0.00    +0.000 A 
ATOM     23  C   UNL     1       8.778  -0.186  -2.273  0.00  0.00    +0.002 A 
ATOM     24  C   UNL     1       7.490  -0.275  -1.781  0.00  0.00    +0.028 A 
ENDBRANCH   8  19
TORSDOF 2
