REMARK  Name = CHEMBL179577
REMARK  15 active torsions:
REMARK  status: ('A' for Active; 'I' for Inactive)
REMARK    1  A    between atoms: C_1  and  C_2
REMARK    2  A    between atoms: C_2  and  O_3
REMARK    3  A    between atoms: O_3  and  C_4
REMARK    4  A    between atoms: C_9  and  N_10
REMARK    5  A    between atoms: C_11  and  C_13
REMARK    6  A    between atoms: C_14  and  C_15
REMARK    7  A    between atoms: C_15  and  N_16
REMARK    8  A    between atoms: N_16  and  C_17
REMARK    9  A    between atoms: N_16  and  C_18
REMARK   10  A    between atoms: C_19  and  N_25
REMARK   11  A    between atoms: C_20  and  C_23
REMARK   12  A    between atoms: N_25  and  C_26
REMARK   13  A    between atoms: C_29  and  N_33
REMARK   14  A    between atoms: N_33  and  C_34
REMARK   15  A    between atoms: C_34  and  C_35
REMARK                            x       y       z     vdW  Elec       q    Type
REMARK                         _______ _______ _______ _____ _____    ______ ____
ROOT
ATOM      1  C   UNL     1      -2.087  -3.791  -0.654  0.00  0.00    +0.144 A 
ATOM      2  C   UNL     1      -1.220  -4.117   0.363  0.00  0.00    +0.076 A 
ATOM      3  C   UNL     1      -0.009  -4.762   0.071  0.00  0.00    +0.076 A 
ATOM      4  C   UNL     1       0.306  -5.068  -1.275  0.00  0.00    +0.025 A 
ATOM      5  C   UNL     1      -0.590  -4.728  -2.298  0.00  0.00    +0.039 A 
ATOM      6  C   UNL     1      -1.775  -4.101  -1.987  0.00  0.00    +0.077 A 
ATOM      7  C   UNL     1       1.529  -5.718  -1.563  0.00  0.00    +0.060 A 
ATOM      8  C   UNL     1       2.375  -6.028  -0.488  0.00  0.00    +0.091 A 
ATOM      9  C   UNL     1       1.982  -5.686   0.816  0.00  0.00    +0.132 A 
ATOM     10  N   UNL     1       0.845  -5.086   1.054  0.00  0.00    -0.253 NA
ENDROOT
BRANCH   6  11
ATOM     11  N   UNL     1      -2.673  -3.765  -3.007  0.00  0.00    -0.279 N 
ATOM     12  C   UNL     1      -2.217  -3.505  -4.248  0.00  0.00    +0.241 C 
ATOM     13  O   UNL     1      -1.039  -3.663  -4.508  0.00  0.00    -0.271 OA
ATOM     14  H   UNL     1      -3.624  -3.719  -2.821  0.00  0.00    +0.155 HD
BRANCH  12  15
ATOM     15  C   UNL     1      -3.143  -3.032  -5.288  0.00  0.00    +0.064 C 
ATOM     16  C   UNL     1      -2.692  -2.776  -6.513  0.00  0.00    -0.007 C 
BRANCH  16  17
ATOM     17  C   UNL     1      -3.641  -2.291  -7.579  0.00  0.00    +0.111 C 
BRANCH  17  18
ATOM     18  N   UNL     1      -3.140  -1.031  -8.144  0.00  0.00    -0.305 NA
ATOM     19  C   UNL     1      -3.903  -0.650  -9.340  0.00  0.00    +0.104 C 
ATOM     20  C   UNL     1      -3.163   0.042  -7.141  0.00  0.00    +0.104 C 
ENDBRANCH  17  18
ENDBRANCH  16  17
ENDBRANCH  12  15
ENDBRANCH   6  11
BRANCH   8  21
ATOM     21  C   UNL     1       3.626  -6.686  -0.718  0.00  0.00    +0.103 C 
ATOM     22  N   UNL     1       4.619  -7.207  -0.900  0.00  0.00    -0.191 NA
ENDBRANCH   8  21
BRANCH   7  23
ATOM     23  N   UNL     1       1.878  -6.037  -2.860  0.00  0.00    -0.313 N 
ATOM     24  H   UNL     1       2.244  -5.355  -3.445  0.00  0.00    +0.152 HD
BRANCH  23  25
ATOM     25  C   UNL     1       1.704  -7.343  -3.330  0.00  0.00    +0.033 A 
ATOM     26  C   UNL     1       0.858  -8.216  -2.659  0.00  0.00    +0.025 A 
ATOM     27  C   UNL     1       0.686  -9.505  -3.122  0.00  0.00    +0.026 A 
ATOM     28  C   UNL     1       1.359  -9.930  -4.261  0.00  0.00    +0.046 A 
ATOM     29  C   UNL     1       2.205  -9.057  -4.933  0.00  0.00    +0.064 A 
ATOM     30  C   UNL     1       2.373  -7.765  -4.472  0.00  0.00    +0.045 A 
ATOM     31 CL   UNL     1       3.046  -9.587  -6.356  0.00  0.00    -0.082 Cl
BRANCH  28  32
ATOM     32  N   UNL     1       1.185 -11.237  -4.730  0.00  0.00    -0.339 N 
ATOM     33  H   UNL     1       1.655 -11.534  -5.525  0.00  0.00    +0.146 HD
BRANCH  32  34
ATOM     34  C   UNL     1       0.293 -12.158  -4.021  0.00  0.00    +0.137 C 
BRANCH  34  35
ATOM     35  C   UNL     1       0.283 -13.490  -4.725  0.00  0.00    -0.030 A 
ATOM     36  C   UNL     1      -0.635 -13.734  -5.729  0.00  0.00    +0.005 A 
ATOM     37  C   UNL     1      -0.644 -14.956  -6.375  0.00  0.00    +0.000 A 
ATOM     38  C   UNL     1       0.264 -15.934  -6.017  0.00  0.00    +0.000 A 
ATOM     39  C   UNL     1       1.182 -15.690  -5.013  0.00  0.00    +0.000 A 
ATOM     40  C   UNL     1       1.194 -14.466  -4.370  0.00  0.00    +0.005 A 
ENDBRANCH  34  35
ENDBRANCH  32  34
ENDBRANCH  28  32
ENDBRANCH  23  25
ENDBRANCH   7  23
BRANCH   1  41
ATOM     41  O   UNL     1      -3.259  -3.167  -0.365  0.00  0.00    -0.490 OA
BRANCH  41  43
ATOM     42  C   UNL     1      -4.873  -2.181   1.138  0.00  0.00    +0.048 C 
ATOM     43  C   UNL     1      -3.518  -2.879   1.010  0.00  0.00    +0.226 C 
ENDBRANCH  41  43
ENDBRANCH   1  41
TORSDOF 12
