REMARK  Name = CHEMBL379001
REMARK  7 active torsions:
REMARK  status: ('A' for Active; 'I' for Inactive)
REMARK    1  A    between atoms: C_1  and  C_2
REMARK    2  A    between atoms: C_2  and  C_4
REMARK    3  A    between atoms: C_2  and  N_10
REMARK    4  A    between atoms: C_20  and  O_28
REMARK    5  A    between atoms: C_21  and  O_26
REMARK    6  A    between atoms: O_26  and  C_27
REMARK    7  A    between atoms: O_28  and  C_29
REMARK                            x       y       z     vdW  Elec       q    Type
REMARK                         _______ _______ _______ _____ _____    ______ ____
ROOT
ATOM      1  N   UNL     1       0.711  -0.489   1.189  0.00  0.00    -0.321 N 
ATOM      2  C   UNL     1       2.096  -0.603   1.173  0.00  0.00    +0.145 A 
ATOM      3  C   UNL     1       2.788  -1.068   2.289  0.00  0.00    +0.106 A 
ATOM      4  C   UNL     1       4.166  -1.184   2.216  0.00  0.00    +0.126 A 
ATOM      5  N   UNL     1       4.799  -0.810   1.110  0.00  0.00    -0.333 N 
ATOM      6  C   UNL     1       4.112  -0.366   0.073  0.00  0.00    +0.200 A 
ATOM      7  N   UNL     1       2.797  -0.276   0.088  0.00  0.00    -0.221 NA
ATOM      8  N   UNL     1       4.819  -1.749   3.294  0.00  0.00    -0.299 N 
ATOM      9  C   UNL     1       4.848  -1.183   4.567  0.00  0.00    +0.041 A 
ATOM     10  C   UNL     1       6.102  -1.161   5.190  0.00  0.00    +0.073 A 
ATOM     11  C   UNL     1       6.258  -0.630   6.453  0.00  0.00    +0.163 A 
ATOM     12  C   UNL     1       5.150  -0.110   7.116  0.00  0.00    +0.162 A 
ATOM     13  C   UNL     1       3.916  -0.132   6.500  0.00  0.00    +0.056 A 
ATOM     14  C   UNL     1       3.751  -0.666   5.220  0.00  0.00    -0.006 A 
ATOM     15  C   UNL     1       2.344  -0.606   4.685  0.00  0.00    +0.139 C 
ATOM     16  N   UNL     1       2.137  -1.389   3.482  0.00  0.00    -0.334 N 
ATOM     17  H   UNL     1       0.213  -0.731   1.986  0.00  0.00    +0.148 HD
ATOM     18  H   UNL     1       5.285  -2.589   3.157  0.00  0.00    +0.154 HD
ATOM     19  H   UNL     1       1.535  -2.149   3.506  0.00  0.00    +0.147 HD
ATOM     20  H   UNL     1       5.767  -0.863   1.064  0.00  0.00    +0.168 HD
ENDROOT
BRANCH   1  22
ATOM     21  C   UNL     1      -0.019   1.526   0.010  0.00  0.00    +0.033 C 
ATOM     22  C   UNL     1       0.002  -0.004   0.002  0.00  0.00    +0.099 C 
BRANCH  22  23
ATOM     23  C   UNL     1      -1.412  -0.526   0.013  0.00  0.00    -0.028 A 
ATOM     24  C   UNL     1      -2.123  -0.571   1.197  0.00  0.00    +0.005 A 
ATOM     25  C   UNL     1      -3.420  -1.049   1.207  0.00  0.00    +0.000 A 
ATOM     26  C   UNL     1      -4.006  -1.482   0.032  0.00  0.00    +0.000 A 
ATOM     27  C   UNL     1      -3.295  -1.436  -1.153  0.00  0.00    +0.000 A 
ATOM     28  C   UNL     1      -2.000  -0.954  -1.163  0.00  0.00    +0.005 A 
ENDBRANCH  22  23
ENDBRANCH   1  22
BRANCH  12  29
ATOM     29  O   UNL     1       5.283   0.416   8.364  0.00  0.00    -0.491 OA
ATOM     30  C   UNL     1       4.101   0.931   8.980  0.00  0.00    +0.277 C 
ENDBRANCH  12  29
BRANCH  11  31
ATOM     31  O   UNL     1       7.482  -0.616   7.046  0.00  0.00    -0.491 OA
ATOM     32  C   UNL     1       8.570  -1.168   6.302  0.00  0.00    +0.277 C 
ENDBRANCH  11  31
TORSDOF 4
