REMARK  Name = CHEMBL255866
REMARK  5 active torsions:
REMARK  status: ('A' for Active; 'I' for Inactive)
REMARK    1  A    between atoms: C_1  and  O_2
REMARK    2  A    between atoms: O_2  and  N_3
REMARK    3  A    between atoms: C_4  and  C_5
REMARK    4  A    between atoms: C_10  and  N_11
REMARK    5  A    between atoms: N_11  and  C_12
REMARK                            x       y       z     vdW  Elec       q    Type
REMARK                         _______ _______ _______ _____ _____    ______ ____
ROOT
ATOM      1  C   UNL     1      -2.960  -2.519   0.204  0.00  0.00    +0.076 A 
ATOM      2  C   UNL     1      -4.114  -1.754   0.455  0.00  0.00    +0.130 A 
ATOM      3  N   UNL     1      -5.281  -2.377   0.590  0.00  0.00    -0.220 NA
ATOM      4  C   UNL     1      -5.366  -3.689   0.492  0.00  0.00    +0.225 A 
ATOM      5  N   UNL     1      -4.314  -4.448   0.258  0.00  0.00    -0.220 NA
ATOM      6  C   UNL     1      -3.105  -3.915   0.103  0.00  0.00    +0.137 A 
ATOM      7  N   UNL     1      -4.036  -0.378   0.560  0.00  0.00    -0.342 N 
ATOM      8  H   UNL     1      -3.200   0.076   0.370  0.00  0.00    +0.144 HD
ATOM      9  H   UNL     1      -4.817   0.134   0.823  0.00  0.00    +0.144 HD
ENDROOT
BRANCH   1  11
ATOM     10  N   UNL     1      -1.549  -0.588   0.038  0.00  0.00    -0.093 NA
ATOM     11  C   UNL     1      -1.645  -1.879   0.046  0.00  0.00    +0.167 C 
BRANCH  10  13
ATOM     12  C   UNL     1      -0.327   1.456  -0.104  0.00  0.00    +0.313 C 
ATOM     13  O   UNL     1      -0.283   0.028  -0.114  0.00  0.00    -0.397 OA
ENDBRANCH  10  13
ENDBRANCH   1  11
BRANCH   6  14
ATOM     14  N   UNL     1      -2.009  -4.720  -0.148  0.00  0.00    -0.299 N 
ATOM     15  H   UNL     1      -1.120  -4.333  -0.181  0.00  0.00    +0.154 HD
BRANCH  14  16
ATOM     16  C   UNL     1      -2.182  -6.094  -0.355  0.00  0.00    +0.033 A 
ATOM     17  C   UNL     1      -1.196  -6.989   0.064  0.00  0.00    +0.025 A 
ATOM     18  C   UNL     1      -1.346  -8.332  -0.129  0.00  0.00    +0.029 A 
ATOM     19  C   UNL     1      -2.490  -8.825  -0.750  0.00  0.00    +0.066 A 
ATOM     20  C   UNL     1      -3.491  -7.931  -1.177  0.00  0.00    +0.021 A 
ATOM     21  C   UNL     1      -3.329  -6.557  -0.968  0.00  0.00    +0.034 A 
ATOM     22  C   UNL     1      -4.540  -8.747  -1.779  0.00  0.00    +0.142 A 
ATOM     23  N   UNL     1      -4.170  -9.993  -1.702  0.00  0.00    -0.181 NA
ATOM     24  N   UNL     1      -2.921 -10.086  -1.079  0.00  0.00    -0.277 N 
ATOM     25  H   UNL     1      -2.437 -10.909  -0.907  0.00  0.00    +0.189 HD
ENDBRANCH  14  16
ENDBRANCH   6  14
TORSDOF 4
