REMARK  Name = CHEMBL460722
REMARK  9 active torsions:
REMARK  status: ('A' for Active; 'I' for Inactive)
REMARK    1  A    between atoms: C_3  and  N_8
REMARK    2  A    between atoms: C_12  and  C_19
REMARK    3  A    between atoms: C_19  and  C_20
REMARK    4  A    between atoms: C_20  and  C_22
REMARK    5  A    between atoms: C_23  and  C_24
REMARK    6  A    between atoms: N_26  and  C_27
REMARK    7  A    between atoms: C_27  and  C_28
REMARK    8  A    between atoms: C_28  and  C_29
REMARK    9  A    between atoms: C_29  and  N_30
REMARK                            x       y       z     vdW  Elec       q    Type
REMARK                         _______ _______ _______ _____ _____    ______ ____
ROOT
ATOM      1  N   UNL     1       3.583   2.124  -0.021  0.00  0.00    -0.299 N 
ATOM      2  C   UNL     1       4.785   1.453   0.068  0.00  0.00    +0.134 A 
ATOM      3  C   UNL     1       6.007   2.159   0.173  0.00  0.00    +0.044 A 
ATOM      4  C   UNL     1       6.083   3.556   0.194  0.00  0.00    +0.037 A 
ATOM      5  C   UNL     1       7.313   4.141   0.299  0.00  0.00    +0.049 A 
ATOM      6  N   UNL     1       8.422   3.422   0.381  0.00  0.00    -0.257 NA
ATOM      7  C   UNL     1       8.422   2.109   0.366  0.00  0.00    +0.139 A 
ATOM      8  C   UNL     1       7.209   1.413   0.262  0.00  0.00    +0.094 A 
ATOM      9  N   UNL     1       7.140   0.076   0.243  0.00  0.00    -0.234 NA
ATOM     10  C   UNL     1       5.978  -0.526   0.144  0.00  0.00    +0.224 A 
ATOM     11  N   UNL     1       4.829   0.127   0.063  0.00  0.00    -0.220 NA
ATOM     12  H   UNL     1       3.558   3.089   0.073  0.00  0.00    +0.154 HD
ENDROOT
BRANCH   1  15
ATOM     13  C   UNL     1       0.045   1.132   0.109  0.00  0.00    +0.003 A 
ATOM     14  C   UNL     1       1.212   1.837   0.334  0.00  0.00    +0.023 A 
ATOM     15  C   UNL     1       2.401   1.413  -0.247  0.00  0.00    +0.033 A 
ATOM     16  C   UNL     1       2.412   0.281  -1.052  0.00  0.00    +0.038 A 
ATOM     17  C   UNL     1       1.242  -0.419  -1.273  0.00  0.00    +0.020 A 
ATOM     18  C   UNL     1       0.059   0.006  -0.693  0.00  0.00    +0.015 A 
ATOM     19 BR   UNL     1       1.255  -1.959  -2.370  0.00  0.00    -0.050 Br
ENDBRANCH   1  15
BRANCH   5  20
ATOM     20  C   UNL     1       7.410   5.645   0.322  0.00  0.00    +0.134 C 
BRANCH  20  21
ATOM     21  C   UNL     1       8.160   6.081   1.555  0.00  0.00    +0.162 C 
ATOM     22  O   UNL     1       8.574   5.252   2.337  0.00  0.00    -0.292 OA
BRANCH  21  23
ATOM     23  C   UNL     1       8.388   7.509   1.809  0.00  0.00    +0.051 C 
ATOM     24  C   UNL     1       9.057   7.898   2.909  0.00  0.00    +0.070 C 
BRANCH  24  25
ATOM     25  C   UNL     1       9.287   9.335   3.164  0.00  0.00    +0.237 C 
ATOM     26  O   UNL     1       8.872  10.166   2.380  0.00  0.00    -0.271 OA
ATOM     27  N   UNL     1       9.958   9.725   4.266  0.00  0.00    -0.312 N 
ATOM     28  H   UNL     1      10.289   9.062   4.892  0.00  0.00    +0.149 HD
BRANCH  27  29
ATOM     29  C   UNL     1      10.186  11.150   4.519  0.00  0.00    +0.102 C 
BRANCH  29  30
ATOM     30  C   UNL     1      10.964  11.318   5.826  0.00  0.00    +0.000 C 
BRANCH  30  31
ATOM     31  C   UNL     1      11.202  12.806   6.090  0.00  0.00    -0.077 C 
BRANCH  31  32
ATOM     32  N   UNL     1      11.949  12.967   7.345  0.00  0.00    +0.383 N 
ATOM     33  C   UNL     1      11.126  12.500   8.469  0.00  0.00    -0.050 C 
ATOM     34  C   UNL     1      11.907  12.669   9.774  0.00  0.00    +0.141 C 
ATOM     35  O   UNL     1      12.277  14.042   9.929  0.00  0.00    -0.383 OA
ATOM     36  C   UNL     1      13.061  14.550   8.845  0.00  0.00    +0.141 C 
ATOM     37  C   UNL     1      12.282  14.385   7.538  0.00  0.00    -0.050 C 
ATOM     38  H   UNL     1      12.799  12.425   7.302  0.00  0.00    -0.082 HD
ENDBRANCH  31  32
ENDBRANCH  30  31
ENDBRANCH  29  30
ENDBRANCH  27  29
ENDBRANCH  24  25
ENDBRANCH  21  23
ENDBRANCH  20  21
ENDBRANCH   5  20
TORSDOF 9
