REMARK  Name = CHEMBL342828
REMARK  8 active torsions:
REMARK  status: ('A' for Active; 'I' for Inactive)
REMARK    1  A    between atoms: C_3  and  N_8
REMARK    2  A    between atoms: C_12  and  N_19
REMARK    3  A    between atoms: C_20  and  C_22
REMARK    4  A    between atoms: C_23  and  C_24
REMARK    5  A    between atoms: N_26  and  C_27
REMARK    6  A    between atoms: C_27  and  C_28
REMARK    7  A    between atoms: C_28  and  C_29
REMARK    8  A    between atoms: C_29  and  N_30
REMARK                            x       y       z     vdW  Elec       q    Type
REMARK                         _______ _______ _______ _____ _____    ______ ____
ROOT
ATOM      1  N   UNL     1      10.848   1.518  -0.052  0.00  0.00    -0.299 N 
ATOM      2  C   UNL     1       9.552   1.057  -0.159  0.00  0.00    +0.134 A 
ATOM      3  C   UNL     1       8.425   1.979  -0.263  0.00  0.00    +0.045 A 
ATOM      4  C   UNL     1       8.570   3.368  -0.261  0.00  0.00    +0.057 A 
ATOM      5  C   UNL     1       7.431   4.148  -0.365  0.00  0.00    +0.126 A 
ATOM      6  N   UNL     1       6.224   3.600  -0.464  0.00  0.00    -0.238 NA
ATOM      7  C   UNL     1       6.030   2.301  -0.470  0.00  0.00    +0.141 A 
ATOM      8  C   UNL     1       7.122   1.428  -0.370  0.00  0.00    +0.094 A 
ATOM      9  N   UNL     1       6.989   0.096  -0.371  0.00  0.00    -0.234 NA
ATOM     10  C   UNL     1       8.037  -0.685  -0.276  0.00  0.00    +0.224 A 
ATOM     11  N   UNL     1       9.280  -0.243  -0.178  0.00  0.00    -0.220 NA
ATOM     12  H   UNL     1      11.018   2.469   0.035  0.00  0.00    +0.154 HD
ENDROOT
BRANCH   1  15
ATOM     13  C   UNL     1      12.881  -1.444  -0.830  0.00  0.00    +0.003 A 
ATOM     14  C   UNL     1      11.825  -0.553  -0.815  0.00  0.00    +0.023 A 
ATOM     15  C   UNL     1      11.914   0.615  -0.069  0.00  0.00    +0.033 A 
ATOM     16  C   UNL     1      13.066   0.884   0.660  0.00  0.00    +0.038 A 
ATOM     17  C   UNL     1      14.118  -0.011   0.641  0.00  0.00    +0.020 A 
ATOM     18  C   UNL     1      14.026  -1.174  -0.103  0.00  0.00    +0.015 A 
ATOM     19 BR   UNL     1      15.686   0.354   1.633  0.00  0.00    -0.050 Br
ENDBRANCH   1  15
BRANCH   5  20
ATOM     20  N   UNL     1       7.552   5.537  -0.365  0.00  0.00    -0.267 N 
ATOM     21  C   UNL     1       6.448   6.309  -0.355  0.00  0.00    +0.242 C 
ATOM     22  O   UNL     1       5.348   5.799  -0.439  0.00  0.00    -0.270 OA
ATOM     23  H   UNL     1       8.431   5.947  -0.372  0.00  0.00    +0.157 HD
BRANCH  21  24
ATOM     24  C   UNL     1       6.575   7.776  -0.243  0.00  0.00    +0.072 C 
ATOM     25  C   UNL     1       5.475   8.546  -0.234  0.00  0.00    +0.072 C 
BRANCH  25  26
ATOM     26  C   UNL     1       5.602  10.012  -0.122  0.00  0.00    +0.237 C 
ATOM     27  O   UNL     1       6.702  10.522  -0.039  0.00  0.00    -0.271 OA
ATOM     28  N   UNL     1       4.498  10.785  -0.113  0.00  0.00    -0.312 N 
ATOM     29  H   UNL     1       3.620  10.377  -0.179  0.00  0.00    +0.149 HD
BRANCH  28  30
ATOM     30  C   UNL     1       4.623  12.240  -0.002  0.00  0.00    +0.106 C 
BRANCH  30  31
ATOM     31  C   UNL     1       3.231  12.875  -0.014  0.00  0.00    +0.040 C 
BRANCH  31  32
ATOM     32  C   UNL     1       3.362  14.395   0.102  0.00  0.00    +0.124 C 
BRANCH  32  33
ATOM     33  N   UNL     1       2.030  15.002   0.089  0.00  0.00    -0.338 N 
ATOM     34  C   UNL     1       1.334  15.413  -1.016  0.00  0.00    +0.104 A 
ATOM     35  C   UNL     1       0.161  15.909  -0.576  0.00  0.00    +0.101 A 
ATOM     36  N   UNL     1       0.141  15.803   0.761  0.00  0.00    -0.352 N 
ATOM     37  C   UNL     1       1.255  15.256   1.166  0.00  0.00    +0.173 A 
ATOM     38  H   UNL     1      -0.588  16.084   1.335  0.00  0.00    +0.166 HD
ENDBRANCH  32  33
ENDBRANCH  31  32
ENDBRANCH  30  31
ENDBRANCH  28  30
ENDBRANCH  25  26
ENDBRANCH  21  24
ENDBRANCH   5  20
TORSDOF 8
