REMARK  Name = CHEMBL234580
REMARK  5 active torsions:
REMARK  status: ('A' for Active; 'I' for Inactive)
REMARK    1  A    between atoms: C_3  and  C_8
REMARK    2  A    between atoms: C_8  and  N_9
REMARK    3  A    between atoms: C_13  and  N_18
REMARK    4  A    between atoms: C_21  and  C_28
REMARK    5  A    between atoms: C_28  and  N_29
REMARK                            x       y       z     vdW  Elec       q    Type
REMARK                         _______ _______ _______ _____ _____    ______ ____
ROOT
ATOM      1  N   UNL     1       3.262   6.401   5.100  0.00  0.00    -0.298 N 
ATOM      2  C   UNL     1       2.567   7.560   4.814  0.00  0.00    +0.151 A 
ATOM      3  C   UNL     1       2.481   8.596   5.772  0.00  0.00    +0.110 A 
ATOM      4  C   UNL     1       2.967   8.757   7.055  0.00  0.00    -0.003 A 
ATOM      5  C   UNL     1       2.544  10.012   7.494  0.00  0.00    +0.027 A 
ATOM      6  C   UNL     1       1.823  10.584   6.493  0.00  0.00    +0.113 A 
ATOM      7  N   UNL     1       1.776   9.739   5.446  0.00  0.00    -0.235 N 
ATOM      8  N   UNL     1       1.181   9.815   4.179  0.00  0.00    -0.155 NA
ATOM      9  C   UNL     1       1.299   8.822   3.341  0.00  0.00    +0.245 A 
ATOM     10  N   UNL     1       1.979   7.716   3.639  0.00  0.00    -0.217 NA
ATOM     11  H   UNL     1       3.760   6.325   5.929  0.00  0.00    +0.154 HD
ENDROOT
BRANCH   1  16
ATOM     12  N   UNL     1       2.953   2.252   1.469  0.00  0.00    -0.259 N 
ATOM     13  C   UNL     1       3.254   3.211   2.403  0.00  0.00    +0.069 A 
ATOM     14  C   UNL     1       4.400   3.516   3.133  0.00  0.00    +0.030 A 
ATOM     15  C   UNL     1       4.394   4.560   4.012  0.00  0.00    +0.025 A 
ATOM     16  C   UNL     1       3.247   5.334   4.192  0.00  0.00    +0.033 A 
ATOM     17  C   UNL     1       2.098   5.054   3.481  0.00  0.00    +0.034 A 
ATOM     18  C   UNL     1       2.091   3.986   2.576  0.00  0.00    +0.021 A 
ATOM     19  C   UNL     1       1.084   3.421   1.684  0.00  0.00    +0.143 A 
ATOM     20  N   UNL     1       1.627   2.417   1.055  0.00  0.00    -0.178 NA
BRANCH  12  21
ATOM     21  C   UNL     1       3.874   1.223   0.980  0.00  0.00    +0.179 C 
BRANCH  21  24
ATOM     22  C   UNL     1       6.507   2.892  -1.149  0.00  0.00    +0.003 A 
ATOM     23  C   UNL     1       5.821   2.411  -0.049  0.00  0.00    +0.005 A 
ATOM     24  C   UNL     1       4.621   1.746  -0.219  0.00  0.00    -0.023 A 
ATOM     25  C   UNL     1       4.106   1.561  -1.489  0.00  0.00    +0.043 A 
ATOM     26  C   UNL     1       4.793   2.042  -2.590  0.00  0.00    +0.124 A 
ATOM     27  C   UNL     1       5.995   2.708  -2.419  0.00  0.00    +0.038 A 
ATOM     28  F   UNL     1       4.292   1.861  -3.832  0.00  0.00    -0.205 F 
ENDBRANCH  21  24
ENDBRANCH  12  21
ENDBRANCH   1  16
BRANCH   4  29
ATOM     29  C   UNL     1       3.795   7.766   7.832  0.00  0.00    +0.122 C 
BRANCH  29  30
ATOM     30  N   UNL     1       5.196   7.850   7.396  0.00  0.00    -0.293 NA
ATOM     31  C   UNL     1       5.944   6.665   7.809  0.00  0.00    +0.066 C 
ATOM     32  C   UNL     1       6.827   6.343   6.629  0.00  0.00    -0.066 C 
ATOM     33  N   UNL     1       8.206   6.838   6.869  0.00  0.00    +0.384 N 
ATOM     34  C   UNL     1       8.173   8.152   7.559  0.00  0.00    -0.006 C 
ATOM     35  C   UNL     1       7.158   9.124   7.086  0.00  0.00    +0.131 C 
ATOM     36  O   UNL     1       7.420   9.917   6.213  0.00  0.00    -0.298 OA
ATOM     37  C   UNL     1       5.757   9.097   7.738  0.00  0.00    +0.156 C 
ATOM     38  H   UNL     1       8.704   6.174   7.442  0.00  0.00    -0.085 HD
ATOM     39  H   UNL     1       8.684   6.938   5.986  0.00  0.00    -0.085 HD
ENDBRANCH  29  30
ENDBRANCH   4  29
TORSDOF 5
