REMARK  Name = CHEMBL204085
REMARK  6 active torsions:
REMARK  status: ('A' for Active; 'I' for Inactive)
REMARK    1  A    between atoms: C_6  and  N_7
REMARK    2  A    between atoms: C_8  and  C_10
REMARK    3  A    between atoms: C_11  and  C_12
REMARK    4  A    between atoms: C_12  and  C_13
REMARK    5  A    between atoms: C_13  and  N_14
REMARK    6  A    between atoms: N_24  and  C_25
REMARK                            x       y       z     vdW  Elec       q    Type
REMARK                         _______ _______ _______ _____ _____    ______ ____
ROOT
ATOM      1  C   UNL     1      -0.571   0.532   0.169  0.00  0.00    +0.025 A 
ATOM      2  C   UNL     1       0.095   1.691  -0.093  0.00  0.00    +0.030 A 
ATOM      3  C   UNL     1       1.476   1.662  -0.333  0.00  0.00    +0.076 A 
ATOM      4  C   UNL     1       2.164   0.424  -0.299  0.00  0.00    +0.042 A 
ATOM      5  C   UNL     1       1.461  -0.754  -0.029  0.00  0.00    +0.036 A 
ATOM      6  C   UNL     1       0.102  -0.693   0.203  0.00  0.00    +0.035 A 
ATOM      7  C   UNL     1       3.559   0.428  -0.545  0.00  0.00    +0.134 A 
ATOM      8  N   UNL     1       4.149   1.589  -0.794  0.00  0.00    -0.220 NA
ATOM      9  C   UNL     1       3.464   2.722  -0.815  0.00  0.00    +0.223 A 
ATOM     10  N   UNL     1       2.172   2.779  -0.595  0.00  0.00    -0.235 NA
ATOM     11  N   UNL     1       4.285  -0.746  -0.526  0.00  0.00    -0.299 N 
ATOM     12  H   UNL     1       3.830  -1.596  -0.425  0.00  0.00    +0.154 HD
ENDROOT
BRANCH  11  13
ATOM     13  C   UNL     1       5.678  -0.709  -0.652  0.00  0.00    +0.034 A 
ATOM     14  C   UNL     1       6.345  -1.743  -1.296  0.00  0.00    +0.026 A 
ATOM     15  C   UNL     1       7.720  -1.705  -1.420  0.00  0.00    +0.041 A 
ATOM     16  C   UNL     1       8.434  -0.637  -0.903  0.00  0.00    +0.142 A 
ATOM     17  C   UNL     1       7.771   0.396  -0.261  0.00  0.00    +0.078 A 
ATOM     18  C   UNL     1       6.394   0.364  -0.140  0.00  0.00    +0.046 A 
ATOM     19 CL   UNL     1       8.668   1.733   0.387  0.00  0.00    -0.081 Cl
ATOM     20  F   UNL     1       9.779  -0.603  -1.025  0.00  0.00    -0.204 F 
ENDBRANCH  11  13
BRANCH   6  21
ATOM     21  N   UNL     1      -0.608  -1.867   0.475  0.00  0.00    -0.275 N 
ATOM     22  C   UNL     1      -1.882  -1.996   0.055  0.00  0.00    +0.293 C 
ATOM     23  O   UNL     1      -2.385  -1.131  -0.637  0.00  0.00    -0.260 OA
ATOM     24  H   UNL     1      -0.184  -2.588   0.966  0.00  0.00    +0.156 HD
BRANCH  22  25
ATOM     25  C   UNL     1      -2.644  -3.152   0.422  0.00  0.00    -0.008 C 
ATOM     26  C   UNL     1      -3.268  -4.099   0.724  0.00  0.00    -0.091 C 
BRANCH  26  27
ATOM     27  C   UNL     1      -4.051  -5.287   1.102  0.00  0.00    +0.104 C 
BRANCH  27  28
ATOM     28  C   UNL     1      -5.453  -5.187   0.499  0.00  0.00    +0.097 C 
BRANCH  28  29
ATOM     29  N   UNL     1      -6.234  -6.372   0.877  0.00  0.00    -0.297 NA
ATOM     30  C   UNL     1      -5.682  -7.586   0.258  0.00  0.00    +0.112 C 
ATOM     31  C   UNL     1      -6.487  -8.802   0.724  0.00  0.00    +0.175 C 
ATOM     32  O   UNL     1      -7.866  -8.608   0.398  0.00  0.00    -0.377 OA
ATOM     33  C   UNL     1      -8.437  -7.435   0.984  0.00  0.00    +0.175 C 
ATOM     34  C   UNL     1      -7.651  -6.205   0.521  0.00  0.00    +0.112 C 
ENDBRANCH  28  29
ENDBRANCH  27  28
ENDBRANCH  26  27
ENDBRANCH  22  25
ENDBRANCH   6  21
TORSDOF 6
