REMARK  Name = CHEMBL155100
REMARK  1 active torsions:
REMARK  status: ('A' for Active; 'I' for Inactive)
REMARK    1  A    between atoms: C_3  and  N_8
REMARK                            x       y       z     vdW  Elec       q    Type
REMARK                         _______ _______ _______ _____ _____    ______ ____
ROOT
ATOM      1  N   UNL     1       3.583   2.124  -0.021  0.00  0.00    -0.299 N 
ATOM      2  C   UNL     1       4.786   1.452   0.068  0.00  0.00    +0.134 A 
ATOM      3  C   UNL     1       6.006   2.160   0.173  0.00  0.00    +0.043 A 
ATOM      4  C   UNL     1       6.047   3.564   0.191  0.00  0.00    +0.015 A 
ATOM      5  C   UNL     1       7.238   4.212   0.293  0.00  0.00    +0.028 A 
ATOM      6  C   UNL     1       8.438   3.499   0.382  0.00  0.00    +0.068 A 
ATOM      7  C   UNL     1       8.436   2.100   0.368  0.00  0.00    +0.115 A 
ATOM      8  C   UNL     1       7.204   1.415   0.262  0.00  0.00    +0.103 A 
ATOM      9  N   UNL     1       7.135   0.079   0.242  0.00  0.00    -0.233 NA
ATOM     10  C   UNL     1       5.974  -0.528   0.143  0.00  0.00    +0.224 A 
ATOM     11  N   UNL     1       4.827   0.126   0.063  0.00  0.00    -0.220 NA
ATOM     12  N   UNL     1       9.725   1.698   0.468  0.00  0.00    -0.234 NA
ATOM     13  C   UNL     1      10.503   2.739   0.541  0.00  0.00    +0.197 A 
ATOM     14  N   UNL     1       9.759   3.876   0.493  0.00  0.00    -0.344 N 
ATOM     15  H   UNL     1      10.096   4.785   0.529  0.00  0.00    +0.167 HD
ATOM     16  H   UNL     1       3.571   3.091  -0.094  0.00  0.00    +0.154 HD
ENDROOT
BRANCH   1  19
ATOM     17  C   UNL     1       1.088  -0.466   0.744  0.00  0.00    +0.003 A 
ATOM     18  C   UNL     1       2.277   0.238   0.731  0.00  0.00    +0.023 A 
ATOM     19  C   UNL     1       2.381   1.410  -0.007  0.00  0.00    +0.033 A 
ATOM     20  C   UNL     1       1.289   1.871  -0.730  0.00  0.00    +0.038 A 
ATOM     21  C   UNL     1       0.102   1.163  -0.713  0.00  0.00    +0.020 A 
ATOM     22  C   UNL     1       0.002  -0.004   0.024  0.00  0.00    +0.015 A 
ATOM     23 BR   UNL     1      -1.386   1.791  -1.696  0.00  0.00    -0.050 Br
ENDBRANCH   1  19
TORSDOF 1
