REMARK  Name = CHEMBL1095761
REMARK  3 active torsions:
REMARK  status: ('A' for Active; 'I' for Inactive)
REMARK    1  A    between atoms: C_3  and  N_8
REMARK    2  A    between atoms: C_12  and  C_20
REMARK    3  A    between atoms: C_20  and  C_21
REMARK                            x       y       z     vdW  Elec       q    Type
REMARK                         _______ _______ _______ _____ _____    ______ ____
ROOT
ATOM      1  N   UNL     1       3.583   2.124  -0.021  0.00  0.00    -0.299 N 
ATOM      2  C   UNL     1       4.789   1.451   0.068  0.00  0.00    +0.137 A 
ATOM      3  C   UNL     1       5.999   2.155   0.172  0.00  0.00    +0.059 A 
ATOM      4  C   UNL     1       6.372   3.569   0.217  0.00  0.00    +0.036 A 
ATOM      5  C   UNL     1       7.709   3.615   0.324  0.00  0.00    +0.023 A 
ATOM      6  N   UNL     1       8.217   2.340   0.351  0.00  0.00    -0.343 N 
ATOM      7  H   UNL     1       9.158   2.117   0.425  0.00  0.00    +0.167 HD
ATOM      8  C   UNL     1       7.200   1.429   0.261  0.00  0.00    +0.145 A 
ATOM      9  N   UNL     1       7.144   0.098   0.242  0.00  0.00    -0.197 NA
ATOM     10  C   UNL     1       5.983  -0.527   0.143  0.00  0.00    +0.216 A 
ATOM     11  N   UNL     1       4.828   0.122   0.063  0.00  0.00    -0.199 NA
ATOM     12  N   UNL     1       5.971  -1.912   0.127  0.00  0.00    -0.327 N 
ATOM     13  H   UNL     1       3.571   3.091  -0.094  0.00  0.00    +0.154 HD
ATOM     14  H   UNL     1       6.805  -2.405   0.188  0.00  0.00    +0.145 HD
ATOM     15  H   UNL     1       5.130  -2.389   0.054  0.00  0.00    +0.145 HD
ENDROOT
BRANCH   1  18
ATOM     16  C   UNL     1       1.088  -0.466   0.743  0.00  0.00    +0.003 A 
ATOM     17  C   UNL     1       2.277   0.237   0.731  0.00  0.00    +0.023 A 
ATOM     18  C   UNL     1       2.381   1.410  -0.007  0.00  0.00    +0.033 A 
ATOM     19  C   UNL     1       1.289   1.872  -0.730  0.00  0.00    +0.038 A 
ATOM     20  C   UNL     1       0.102   1.163  -0.713  0.00  0.00    +0.020 A 
ATOM     21  C   UNL     1       0.002  -0.004   0.023  0.00  0.00    +0.015 A 
ATOM     22 BR   UNL     1      -1.386   1.791  -1.696  0.00  0.00    -0.050 Br
ENDBRANCH   1  18
BRANCH   5  23
ATOM     23  C   UNL     1       8.530   4.876   0.403  0.00  0.00    +0.089 C 
BRANCH  23  24
ATOM     24  C   UNL     1       8.587   5.350   1.832  0.00  0.00    -0.023 A 
ATOM     25  C   UNL     1       7.685   6.295   2.284  0.00  0.00    +0.007 A 
ATOM     26  C   UNL     1       7.737   6.730   3.595  0.00  0.00    +0.020 A 
ATOM     27  C   UNL     1       8.692   6.219   4.456  0.00  0.00    +0.042 A 
ATOM     28  C   UNL     1       9.594   5.274   4.005  0.00  0.00    +0.040 A 
ATOM     29  C   UNL     1       9.539   4.835   2.694  0.00  0.00    +0.046 A 
ATOM     30 CL   UNL     1      10.668   3.643   2.128  0.00  0.00    -0.083 Cl
ATOM     31 CL   UNL     1       8.757   6.766   6.102  0.00  0.00    -0.083 Cl
ENDBRANCH  23  24
ENDBRANCH   5  23
TORSDOF 3
