REMARK  Name = CHEMBL1173655
REMARK  9 active torsions:
REMARK  status: ('A' for Active; 'I' for Inactive)
REMARK    1  A    between atoms: C_1  and  N_2
REMARK    2  A    between atoms: N_2  and  C_3
REMARK    3  A    between atoms: N_2  and  C_4
REMARK    4  A    between atoms: C_4  and  C_5
REMARK    5  A    between atoms: C_6  and  C_7
REMARK    6  A    between atoms: N_9  and  C_10
REMARK    7  A    between atoms: C_15  and  O_16
REMARK    8  A    between atoms: O_16  and  C_17
REMARK    9  A    between atoms: N_27  and  C_28
REMARK                            x       y       z     vdW  Elec       q    Type
REMARK                         _______ _______ _______ _____ _____    ______ ____
ROOT
ATOM      1  C   UNL     1      -4.035  -1.485  -5.185  0.00  0.00    +0.077 A 
ATOM      2  C   UNL     1      -4.117  -0.188  -5.644  0.00  0.00    +0.040 A 
ATOM      3  C   UNL     1      -4.800   0.080  -6.836  0.00  0.00    +0.042 A 
ATOM      4  C   UNL     1      -5.400  -0.979  -7.562  0.00  0.00    +0.080 A 
ATOM      5  C   UNL     1      -5.304  -2.289  -7.077  0.00  0.00    +0.076 A 
ATOM      6  C   UNL     1      -4.625  -2.535  -5.905  0.00  0.00    +0.144 A 
ATOM      7  N   UNL     1      -6.047  -0.692  -8.702  0.00  0.00    -0.235 NA
ATOM      8  C   UNL     1      -6.121   0.544  -9.133  0.00  0.00    +0.223 A 
ATOM      9  N   UNL     1      -5.576   1.565  -8.490  0.00  0.00    -0.220 NA
ATOM     10  C   UNL     1      -4.914   1.393  -7.353  0.00  0.00    +0.134 A 
ATOM     11  N   UNL     1      -4.351   2.466  -6.692  0.00  0.00    -0.299 N 
ATOM     12  H   UNL     1      -3.804   2.318  -5.905  0.00  0.00    +0.154 HD
ENDROOT
BRANCH  11  13
ATOM     13  C   UNL     1      -4.569   3.767  -7.159  0.00  0.00    +0.034 A 
ATOM     14  C   UNL     1      -3.564   4.721  -7.054  0.00  0.00    +0.026 A 
ATOM     15  C   UNL     1      -3.780   6.004  -7.515  0.00  0.00    +0.041 A 
ATOM     16  C   UNL     1      -4.998   6.342  -8.081  0.00  0.00    +0.142 A 
ATOM     17  C   UNL     1      -6.002   5.393  -8.186  0.00  0.00    +0.078 A 
ATOM     18  C   UNL     1      -5.787   4.105  -7.731  0.00  0.00    +0.046 A 
ATOM     19 CL   UNL     1      -7.528   5.819  -8.895  0.00  0.00    -0.081 Cl
ATOM     20  F   UNL     1      -5.207   7.598  -8.531  0.00  0.00    -0.204 F 
ENDBRANCH  11  13
BRANCH   1  23
ATOM     21  C   UNL     1      -2.387  -0.922  -3.564  0.00  0.00    +0.241 C 
ATOM     22  O   UNL     1      -2.033   0.009  -4.262  0.00  0.00    -0.271 OA
ATOM     23  N   UNL     1      -3.353  -1.757  -3.993  0.00  0.00    -0.279 N 
ATOM     24  H   UNL     1      -3.576  -2.548  -3.477  0.00  0.00    +0.155 HD
BRANCH  21  26
ATOM     25  C   UNL     1      -0.807  -0.311  -1.826  0.00  0.00    -0.007 C 
ATOM     26  C   UNL     1      -1.760  -1.136  -2.250  0.00  0.00    +0.064 C 
BRANCH  25  27
ATOM     27  C   UNL     1      -0.165  -0.530  -0.481  0.00  0.00    +0.111 C 
BRANCH  27  29
ATOM     28  C   UNL     1       1.857   0.651  -1.096  0.00  0.00    +0.104 C 
ATOM     29  N   UNL     1       1.292  -0.627  -0.643  0.00  0.00    -0.305 NA
ATOM     30  C   UNL     1       1.932  -1.074   0.601  0.00  0.00    +0.104 C 
ENDBRANCH  27  29
ENDBRANCH  25  27
ENDBRANCH  21  26
ENDBRANCH   1  23
BRANCH   6  31
ATOM     31  O   UNL     1      -4.528  -3.807  -5.439  0.00  0.00    -0.485 OA
BRANCH  31  32
ATOM     32  C   UNL     1      -5.044  -4.845  -6.274  0.00  0.00    +0.201 C 
ATOM     33  C   UNL     1      -4.240  -6.160  -6.082  0.00  0.00    +0.075 C 
ATOM     34  C   UNL     1      -5.316  -7.217  -6.437  0.00  0.00    +0.163 C 
ATOM     35  O   UNL     1      -6.548  -6.686  -5.922  0.00  0.00    -0.376 OA
ATOM     36  C   UNL     1      -6.464  -5.255  -5.827  0.00  0.00    +0.204 C 
ENDBRANCH  31  32
ENDBRANCH   6  31
TORSDOF 7
