REMARK  Name = CHEMBL165574
REMARK  6 active torsions:
REMARK  status: ('A' for Active; 'I' for Inactive)
REMARK    1  A    between atoms: C_3  and  N_8
REMARK    2  A    between atoms: C_12  and  N_19
REMARK    3  A    between atoms: N_19  and  C_20
REMARK    4  A    between atoms: C_20  and  C_21
REMARK    5  A    between atoms: C_21  and  C_22
REMARK    6  A    between atoms: C_22  and  N_23
REMARK                            x       y       z     vdW  Elec       q    Type
REMARK                         _______ _______ _______ _____ _____    ______ ____
ROOT
ATOM      1  N   UNL     1       3.583   2.124  -0.021  0.00  0.00    -0.299 N 
ATOM      2  C   UNL     1       4.785   1.453   0.068  0.00  0.00    +0.134 A 
ATOM      3  C   UNL     1       6.050   2.173   0.177  0.00  0.00    +0.045 A 
ATOM      4  C   UNL     1       6.137   3.567   0.199  0.00  0.00    +0.057 A 
ATOM      5  C   UNL     1       7.390   4.145   0.306  0.00  0.00    +0.119 A 
ATOM      6  N   UNL     1       8.490   3.404   0.385  0.00  0.00    -0.238 NA
ATOM      7  C   UNL     1       8.466   2.091   0.369  0.00  0.00    +0.141 A 
ATOM      8  C   UNL     1       7.244   1.413   0.264  0.00  0.00    +0.094 A 
ATOM      9  N   UNL     1       7.154   0.076   0.243  0.00  0.00    -0.234 NA
ATOM     10  C   UNL     1       5.991  -0.518   0.143  0.00  0.00    +0.224 A 
ATOM     11  N   UNL     1       4.837   0.126   0.064  0.00  0.00    -0.220 NA
ATOM     12  H   UNL     1       3.571   3.091  -0.094  0.00  0.00    +0.154 HD
ENDROOT
BRANCH   1  15
ATOM     13  C   UNL     1       1.090  -0.468   0.740  0.00  0.00    +0.003 A 
ATOM     14  C   UNL     1       2.278   0.235   0.727  0.00  0.00    +0.023 A 
ATOM     15  C   UNL     1       2.381   1.410  -0.007  0.00  0.00    +0.033 A 
ATOM     16  C   UNL     1       1.287   1.874  -0.727  0.00  0.00    +0.038 A 
ATOM     17  C   UNL     1       0.101   1.166  -0.710  0.00  0.00    +0.020 A 
ATOM     18  C   UNL     1       0.002  -0.004   0.023  0.00  0.00    +0.015 A 
ATOM     19 BR   UNL     1      -1.389   1.796  -1.688  0.00  0.00    -0.050 Br
ENDBRANCH   1  15
BRANCH   5  20
ATOM     20  N   UNL     1       7.500   5.534   0.330  0.00  0.00    -0.329 N 
ATOM     21  H   UNL     1       8.373   5.949   0.404  0.00  0.00    +0.147 HD
BRANCH  20  22
ATOM     22  C   UNL     1       6.298   6.365   0.243  0.00  0.00    +0.101 C 
BRANCH  22  23
ATOM     23  C   UNL     1       6.694   7.842   0.291  0.00  0.00    +0.000 C 
BRANCH  23  24
ATOM     24  C   UNL     1       5.438   8.711   0.200  0.00  0.00    -0.077 C 
BRANCH  24  25
ATOM     25  N   UNL     1       5.819  10.129   0.245  0.00  0.00    +0.383 N 
ATOM     26  C   UNL     1       6.409  10.436   1.556  0.00  0.00    -0.050 C 
ATOM     27  C   UNL     1       6.805  11.914   1.602  0.00  0.00    +0.141 C 
ATOM     28  O   UNL     1       5.652  12.719   1.343  0.00  0.00    -0.383 OA
ATOM     29  C   UNL     1       5.028  12.441   0.086  0.00  0.00    +0.141 C 
ATOM     30  C   UNL     1       4.628  10.964   0.038  0.00  0.00    -0.050 C 
ATOM     31  H   UNL     1       6.494  10.320  -0.480  0.00  0.00    -0.082 HD
ENDBRANCH  24  25
ENDBRANCH  23  24
ENDBRANCH  22  23
ENDBRANCH  20  22
ENDBRANCH   5  20
TORSDOF 6
