REMARK  Name = CHEMBL63786
REMARK  1 active torsions:
REMARK  status: ('A' for Active; 'I' for Inactive)
REMARK    1  A    between atoms: N_15  and  C_16
REMARK                            x       y       z     vdW  Elec       q    Type
REMARK                         _______ _______ _______ _____ _____    ______ ____
ROOT
ATOM      1  C   UNL     1       0.035   1.263   1.107  0.00  0.00    +0.001 A 
ATOM      2  C   UNL     1       1.213   2.010   1.126  0.00  0.00    +0.001 A 
ATOM      3  C   UNL     1       2.426   1.434   0.927  0.00  0.00    +0.008 A 
ATOM      4  C   UNL     1       2.508   0.045   0.694  0.00  0.00    -0.016 A 
ATOM      5  C   UNL     1       3.740  -0.579   0.486  0.00  0.00    +0.037 A 
ATOM      6  C   UNL     1       3.783  -1.948   0.261  0.00  0.00    +0.077 A 
ATOM      7  C   UNL     1       2.542  -2.731   0.241  0.00  0.00    +0.041 A 
ATOM      8  C   UNL     1       1.317  -2.118   0.447  0.00  0.00    +0.022 A 
ATOM      9  C   UNL     1       1.270  -0.740   0.675  0.00  0.00    -0.017 A 
ATOM     10  C   UNL     1       0.044  -0.078   0.888  0.00  0.00    +0.008 A 
ATOM     11  C   UNL     1       2.662  -4.171  -0.002  0.00  0.00    +0.134 A 
ATOM     12  N   UNL     1       3.882  -4.659  -0.186  0.00  0.00    -0.220 NA
ATOM     13  C   UNL     1       4.959  -3.891  -0.155  0.00  0.00    +0.223 A 
ATOM     14  N   UNL     1       4.943  -2.600   0.055  0.00  0.00    -0.235 NA
ATOM     15  N   UNL     1       1.552  -4.986  -0.037  0.00  0.00    -0.299 N 
ATOM     16  H   UNL     1       0.664  -4.599   0.017  0.00  0.00    +0.154 HD
ENDROOT
BRANCH  15  17
ATOM     17  C   UNL     1       1.705  -6.371  -0.151  0.00  0.00    +0.033 A 
ATOM     18  C   UNL     1       2.798  -7.001   0.432  0.00  0.00    +0.023 A 
ATOM     19  C   UNL     1       2.947  -8.369   0.319  0.00  0.00    +0.003 A 
ATOM     20  C   UNL     1       2.010  -9.113  -0.375  0.00  0.00    +0.015 A 
ATOM     21  C   UNL     1       0.920  -8.489  -0.956  0.00  0.00    +0.020 A 
ATOM     22  C   UNL     1       0.762  -7.121  -0.841  0.00  0.00    +0.038 A 
ATOM     23 BR   UNL     1      -0.359  -9.511  -1.903  0.00  0.00    -0.050 Br
ENDBRANCH  15  17
TORSDOF 1
