REMARK  Name = CHEMBL31656
REMARK  8 active torsions:
REMARK  status: ('A' for Active; 'I' for Inactive)
REMARK    1  A    between atoms: C_2  and  C_3
REMARK    2  A    between atoms: C_7  and  O_25
REMARK    3  A    between atoms: C_12  and  N_16
REMARK    4  A    between atoms: N_16  and  C_17
REMARK    5  A    between atoms: O_25  and  C_26
REMARK    6  A    between atoms: C_26  and  C_27
REMARK    7  A    between atoms: C_27  and  C_28
REMARK    8  A    between atoms: C_28  and  N_29
REMARK                            x       y       z     vdW  Elec       q    Type
REMARK                         _______ _______ _______ _____ _____    ______ ____
ROOT
ATOM      1  C   UNL     1      -1.341  -0.762   0.908  0.00  0.00    +0.242 C 
ATOM      2  O   UNL     1      -2.386  -0.167   0.726  0.00  0.00    -0.270 OA
ATOM      3  N   UNL     1      -1.321  -2.110   0.892  0.00  0.00    -0.264 N 
ATOM      4  C   UNL     1      -2.497  -2.821   0.668  0.00  0.00    +0.168 A 
ATOM      5  C   UNL     1      -2.460  -4.228   0.660  0.00  0.00    +0.162 A 
ATOM      6  C   UNL     1      -3.610  -4.936   0.440  0.00  0.00    +0.079 A 
ATOM      7  C   UNL     1      -4.801  -4.220   0.227  0.00  0.00    +0.098 A 
ATOM      8  C   UNL     1      -4.766  -2.806   0.248  0.00  0.00    +0.131 A 
ATOM      9  N   UNL     1      -3.620  -2.163   0.472  0.00  0.00    -0.223 NA
ATOM     10  C   UNL     1      -5.981  -2.110   0.032  0.00  0.00    +0.152 A 
ATOM     11  N   UNL     1      -7.083  -2.818  -0.179  0.00  0.00    -0.218 NA
ATOM     12  C   UNL     1      -7.064  -4.141  -0.189  0.00  0.00    +0.224 A 
ATOM     13  N   UNL     1      -5.969  -4.838   0.006  0.00  0.00    -0.234 NA
ATOM     14  H   UNL     1      -0.488  -2.584   1.038  0.00  0.00    +0.157 HD
ENDROOT
BRANCH   1  16
ATOM     15  C   UNL     1      -0.119   1.319   1.161  0.00  0.00    +0.013 C 
ATOM     16  C   UNL     1      -0.099  -0.011   1.146  0.00  0.00    +0.060 C 
ENDBRANCH   1  16
BRANCH  10  17
ATOM     17  N   UNL     1      -6.018  -0.730   0.040  0.00  0.00    -0.298 N 
ATOM     18  H   UNL     1      -5.194  -0.223   0.111  0.00  0.00    +0.154 HD
BRANCH  17  19
ATOM     19  C   UNL     1      -7.243  -0.062  -0.056  0.00  0.00    +0.034 A 
ATOM     20  C   UNL     1      -7.330   1.135  -0.755  0.00  0.00    +0.026 A 
ATOM     21  C   UNL     1      -8.541   1.794  -0.848  0.00  0.00    +0.041 A 
ATOM     22  C   UNL     1      -9.668   1.261  -0.245  0.00  0.00    +0.142 A 
ATOM     23  C   UNL     1      -9.584   0.067   0.453  0.00  0.00    +0.078 A 
ATOM     24  C   UNL     1      -8.376  -0.598   0.543  0.00  0.00    +0.046 A 
ATOM     25 CL   UNL     1     -10.999  -0.598   1.207  0.00  0.00    -0.081 Cl
ATOM     26  F   UNL     1     -10.851   1.907  -0.337  0.00  0.00    -0.204 F 
ENDBRANCH  17  19
ENDBRANCH  10  17
BRANCH   5  27
ATOM     27  O   UNL     1      -1.287  -4.880   0.870  0.00  0.00    -0.489 OA
BRANCH  27  28
ATOM     28  C   UNL     1      -1.326  -6.308   0.848  0.00  0.00    +0.227 C 
BRANCH  28  29
ATOM     29  C   UNL     1       0.078  -6.861   1.101  0.00  0.00    +0.022 C 
BRANCH  29  30
ATOM     30  C   UNL     1       0.036  -8.390   1.077  0.00  0.00    -0.075 C 
BRANCH  30  31
ATOM     31  N   UNL     1       1.384  -8.920   1.321  0.00  0.00    +0.383 N 
ATOM     32  C   UNL     1       2.268  -8.539   0.210  0.00  0.00    -0.050 C 
ATOM     33  C   UNL     1       3.672  -9.093   0.466  0.00  0.00    +0.141 C 
ATOM     34  O   UNL     1       3.599 -10.514   0.616  0.00  0.00    -0.383 OA
ATOM     35  C   UNL     1       2.730 -10.935   1.671  0.00  0.00    +0.141 C 
ATOM     36  C   UNL     1       1.324 -10.385   1.417  0.00  0.00    -0.050 C 
ATOM     37  H   UNL     1       1.744  -8.541   2.183  0.00  0.00    -0.082 HD
ENDBRANCH  30  31
ENDBRANCH  29  30
ENDBRANCH  28  29
ENDBRANCH  27  28
ENDBRANCH   5  27
TORSDOF 8
