REMARK  Name = CHEMBL552859
REMARK  9 active torsions:
REMARK  status: ('A' for Active; 'I' for Inactive)
REMARK    1  A    between atoms: C_1  and  N_2
REMARK    2  A    between atoms: N_2  and  C_3
REMARK    3  A    between atoms: N_2  and  C_4
REMARK    4  A    between atoms: C_4  and  C_5
REMARK    5  A    between atoms: C_5  and  C_7
REMARK    6  A    between atoms: C_7  and  C_9
REMARK    7  A    between atoms: C_12  and  O_15
REMARK    8  A    between atoms: O_15  and  C_16
REMARK    9  A    between atoms: C_16  and  C_17
REMARK                            x       y       z     vdW  Elec       q    Type
REMARK                         _______ _______ _______ _____ _____    ______ ____
ROOT
ATOM      1  C   UNL     1      -2.699   2.092  -0.538  0.00  0.00    +0.022 A 
ATOM      2  C   UNL     1      -2.041   1.952   0.688  0.00  0.00    +0.015 A 
ATOM      3  C   UNL     1      -2.142   2.943   1.639  0.00  0.00    +0.046 A 
ATOM      4  C   UNL     1      -2.896   4.082   1.381  0.00  0.00    +0.121 A 
ATOM      5  C   UNL     1      -3.552   4.225   0.163  0.00  0.00    +0.046 A 
ATOM      6  C   UNL     1      -3.451   3.242  -0.795  0.00  0.00    +0.015 A 
ENDROOT
BRANCH   1   7
ATOM      7  C   UNL     1      -2.593   1.033  -1.559  0.00  0.00    +0.190 C 
ATOM      8  O   UNL     1      -3.237   1.114  -2.588  0.00  0.00    -0.287 OA
BRANCH   7   9
ATOM      9  C   UNL     1      -1.710  -0.121  -1.333  0.00  0.00    +0.007 C 
ATOM     10  C   UNL     1      -2.231  -1.335  -1.168  0.00  0.00    +0.017 C 
BRANCH   9  11
ATOM     11  C   UNL     1      -0.216   0.071  -1.289  0.00  0.00    +0.122 C 
BRANCH  11  13
ATOM     12  C   UNL     1       0.046   1.319  -3.348  0.00  0.00    +0.104 C 
ATOM     13  N   UNL     1       0.321   0.052  -2.656  0.00  0.00    -0.304 NA
ATOM     14  C   UNL     1       1.760  -0.244  -2.653  0.00  0.00    +0.104 C 
ENDBRANCH  11  13
ENDBRANCH   9  11
ENDBRANCH   7   9
ENDBRANCH   1   7
BRANCH   4  15
ATOM     15  O   UNL     1      -2.993   5.057   2.320  0.00  0.00    -0.487 OA
BRANCH  15  16
ATOM     16  C   UNL     1      -3.784   6.200   1.990  0.00  0.00    +0.264 C 
BRANCH  16  17
ATOM     17  C   UNL     1      -3.775   7.168   3.145  0.00  0.00    -0.010 A 
ATOM     18  C   UNL     1      -4.735   7.071   4.135  0.00  0.00    +0.007 A 
ATOM     19  C   UNL     1      -4.727   7.959   5.195  0.00  0.00    +0.000 A 
ATOM     20  C   UNL     1      -3.759   8.943   5.264  0.00  0.00    +0.000 A 
ATOM     21  C   UNL     1      -2.799   9.039   4.275  0.00  0.00    +0.000 A 
ATOM     22  C   UNL     1      -2.804   8.149   3.217  0.00  0.00    +0.007 A 
ENDBRANCH  16  17
ENDBRANCH  15  16
ENDBRANCH   4  15
TORSDOF 7
