REMARK  Name = CHEMBL207037
REMARK  6 active torsions:
REMARK  status: ('A' for Active; 'I' for Inactive)
REMARK    1  A    between atoms: C_1  and  O_2
REMARK    2  A    between atoms: O_2  and  C_3
REMARK    3  A    between atoms: C_8  and  C_9
REMARK    4  A    between atoms: C_9  and  N_10
REMARK    5  A    between atoms: C_12  and  C_14
REMARK    6  A    between atoms: N_21  and  C_22
REMARK                            x       y       z     vdW  Elec       q    Type
REMARK                         _______ _______ _______ _____ _____    ______ ____
ROOT
ATOM      1  C   UNL     1      -0.287  -0.779   1.614  0.00  0.00    +0.123 A 
ATOM      2  C   UNL     1       0.209  -0.027   2.658  0.00  0.00    +0.074 A 
ATOM      3  C   UNL     1       1.060  -0.625   3.594  0.00  0.00    +0.079 A 
ATOM      4  C   UNL     1       1.397  -1.994   3.452  0.00  0.00    +0.041 A 
ATOM      5  C   UNL     1       0.879  -2.732   2.382  0.00  0.00    +0.018 A 
ATOM      6  C   UNL     1       0.048  -2.130   1.486  0.00  0.00    -0.021 A 
ATOM      7  C   UNL     1       2.260  -2.572   4.414  0.00  0.00    +0.134 A 
ATOM      8  N   UNL     1       2.708  -1.803   5.398  0.00  0.00    -0.220 NA
ATOM      9  C   UNL     1       2.365  -0.528   5.490  0.00  0.00    +0.223 A 
ATOM     10  N   UNL     1       1.570   0.061   4.629  0.00  0.00    -0.235 NA
ATOM     11  N   UNL     1       2.625  -3.900   4.330  0.00  0.00    -0.297 N 
ATOM     12  H   UNL     1       2.369  -4.425   3.557  0.00  0.00    +0.154 HD
ENDROOT
BRANCH  11  13
ATOM     13  C   UNL     1       3.365  -4.488   5.362  0.00  0.00    +0.070 A 
ATOM     14  C   UNL     1       3.403  -3.894   6.617  0.00  0.00    +0.026 A 
ATOM     15  C   UNL     1       4.134  -4.477   7.634  0.00  0.00    +0.003 A 
ATOM     16  C   UNL     1       4.828  -5.651   7.405  0.00  0.00    +0.023 A 
ATOM     17  C   UNL     1       4.794  -6.247   6.157  0.00  0.00    +0.078 A 
ATOM     18  C   UNL     1       4.059  -5.671   5.135  0.00  0.00    +0.163 A 
ATOM     19  F   UNL     1       4.020  -6.255   3.917  0.00  0.00    -0.202 F 
ATOM     20 CL   UNL     1       5.667  -7.720   5.874  0.00  0.00    -0.081 Cl
ENDBRANCH  11  13
BRANCH   1  22
ATOM     21  C   UNL     1      -1.418   1.181   0.889  0.00  0.00    +0.277 C 
ATOM     22  O   UNL     1      -1.113  -0.203   0.704  0.00  0.00    -0.495 OA
ENDBRANCH   1  22
BRANCH   6  23
ATOM     23  C   UNL     1      -0.513  -2.929   0.338  0.00  0.00    -0.039 C 
BRANCH  23  24
ATOM     24  N   UNL     1       0.266  -2.655  -0.877  0.00  0.00    +0.383 N 
ATOM     25  C   UNL     1      -0.212  -1.477  -1.626  0.00  0.00    -0.068 C 
ATOM     26  C   UNL     1       0.084  -2.249  -2.919  0.00  0.00    +0.042 C 
ATOM     27  C   UNL     1      -0.136  -3.482  -2.030  0.00  0.00    -0.068 C 
ATOM     28  H   UNL     1       1.261  -2.650  -0.713  0.00  0.00    -0.081 HD
BRANCH  26  29
ATOM     29  C   UNL     1       1.497  -2.095  -3.421  0.00  0.00    +0.210 C 
ATOM     30  O   UNL     1       2.285  -1.405  -2.809  0.00  0.00    -0.276 OA
ATOM     31  N   UNL     1       1.885  -2.723  -4.548  0.00  0.00    -0.329 N 
ATOM     32  H   UNL     1       1.254  -3.274  -5.037  0.00  0.00    +0.145 HD
ATOM     33  H   UNL     1       2.794  -2.623  -4.871  0.00  0.00    +0.145 HD
ENDBRANCH  26  29
ENDBRANCH  23  24
ENDBRANCH   6  23
TORSDOF 5
