REMARK  Name = CHEMBL516979
REMARK  7 active torsions:
REMARK  status: ('A' for Active; 'I' for Inactive)
REMARK    1  A    between atoms: C_1  and  O_2
REMARK    2  A    between atoms: O_2  and  C_3
REMARK    3  A    between atoms: C_3  and  C_4
REMARK    4  A    between atoms: C_6  and  C_28
REMARK    5  A    between atoms: N_20  and  C_21
REMARK    6  A    between atoms: C_28  and  O_29
REMARK    7  A    between atoms: O_29  and  C_30
REMARK                            x       y       z     vdW  Elec       q    Type
REMARK                         _______ _______ _______ _____ _____    ______ ____
ROOT
ATOM      1  C   UNL     1      -0.355  -2.479  -0.703  0.00  0.00    +0.242 C 
ATOM      2  C   UNL     1      -1.784  -3.011  -0.873  0.00  0.00    +0.242 C 
ATOM      3  O   UNL     1      -1.760  -4.430  -0.683  0.00  0.00    -0.479 OA
ATOM      4  C   UNL     1      -1.071  -4.891   0.397  0.00  0.00    +0.165 A 
ATOM      5  C   UNL     1      -1.307  -6.176   0.837  0.00  0.00    +0.078 A 
ATOM      6  C   UNL     1      -0.607  -6.671   1.943  0.00  0.00    +0.080 A 
ATOM      7  C   UNL     1       0.338  -5.840   2.595  0.00  0.00    +0.044 A 
ATOM      8  C   UNL     1       0.560  -4.539   2.130  0.00  0.00    +0.062 A 
ATOM      9  C   UNL     1      -0.137  -4.074   1.049  0.00  0.00    +0.163 A 
ATOM     10  O   UNL     1       0.090  -2.801   0.619  0.00  0.00    -0.479 OA
ATOM     11  C   UNL     1       1.032  -6.367   3.710  0.00  0.00    +0.134 A 
ATOM     12  N   UNL     1       0.763  -7.609   4.088  0.00  0.00    -0.220 NA
ATOM     13  C   UNL     1      -0.129  -8.349   3.447  0.00  0.00    +0.223 A 
ATOM     14  N   UNL     1      -0.802  -7.914   2.409  0.00  0.00    -0.235 NA
ATOM     15  N   UNL     1       1.965  -5.607   4.388  0.00  0.00    -0.299 N 
ATOM     16  H   UNL     1       2.092  -4.674   4.155  0.00  0.00    +0.154 HD
ENDROOT
BRANCH  15  17
ATOM     17  C   UNL     1       2.726  -6.182   5.409  0.00  0.00    +0.033 A 
ATOM     18  C   UNL     1       3.076  -5.431   6.524  0.00  0.00    +0.023 A 
ATOM     19  C   UNL     1       3.828  -6.002   7.532  0.00  0.00    +0.003 A 
ATOM     20  C   UNL     1       4.234  -7.321   7.432  0.00  0.00    +0.014 A 
ATOM     21  C   UNL     1       3.888  -8.071   6.323  0.00  0.00    +0.015 A 
ATOM     22  C   UNL     1       3.130  -7.508   5.314  0.00  0.00    +0.037 A 
ATOM     23  I   UNL     1       4.506 -10.068   6.176  0.00  0.00    -0.044 I 
ENDBRANCH  15  17
BRANCH   1  24
ATOM     24  C   UNL     1      -0.344  -0.961  -0.895  0.00  0.00    +0.207 C 
BRANCH  24  26
ATOM     25  C   UNL     1       1.125   0.930  -1.007  0.00  0.00    +0.194 C 
ATOM     26  O   UNL     1       1.002  -0.483  -0.837  0.00  0.00    -0.379 OA
ENDBRANCH  24  26
ENDBRANCH   1  24
BRANCH   2  27
ATOM     27  C   UNL     1      -2.290  -2.688  -2.280  0.00  0.00    +0.207 C 
BRANCH  27  28
ATOM     28  O   UNL     1      -3.659  -3.081  -2.396  0.00  0.00    -0.379 OA
ATOM     29  C   UNL     1      -4.232  -2.821  -3.679  0.00  0.00    +0.194 C 
ENDBRANCH  27  28
ENDBRANCH   2  27
TORSDOF 5
