REMARK  Name = CHEMBL455433
REMARK  8 active torsions:
REMARK  status: ('A' for Active; 'I' for Inactive)
REMARK    1  A    between atoms: C_4  and  O_7
REMARK    2  A    between atoms: O_7  and  C_8
REMARK    3  A    between atoms: C_12  and  C_14
REMARK    4  A    between atoms: C_14  and  N_15
REMARK    5  A    between atoms: C_20  and  C_22
REMARK    6  A    between atoms: C_23  and  C_24
REMARK    7  A    between atoms: C_27  and  O_31
REMARK    8  A    between atoms: O_31  and  C_32
REMARK                            x       y       z     vdW  Elec       q    Type
REMARK                         _______ _______ _______ _____ _____    ______ ____
ROOT
ATOM      1  N   UNL     1       6.795  -4.927  -1.213  0.00  0.00    -0.324 N 
ATOM      2  C   UNL     1       8.018  -5.550  -1.405  0.00  0.00    +0.137 A 
ATOM      3  C   UNL     1       8.503  -5.785  -2.680  0.00  0.00    +0.078 A 
ATOM      4  C   UNL     1       9.749  -6.419  -2.881  0.00  0.00    +0.084 A 
ATOM      5  C   UNL     1      10.126  -6.598  -4.220  0.00  0.00    +0.053 A 
ATOM      6  C   UNL     1       9.305  -6.169  -5.219  0.00  0.00    +0.065 A 
ATOM      7  S   UNL     1       7.925  -5.473  -4.326  0.00  0.00    -0.075 S 
ATOM      8  N   UNL     1      10.416  -6.771  -1.753  0.00  0.00    -0.235 NA
ATOM      9  C   UNL     1       9.922  -6.531  -0.566  0.00  0.00    +0.224 A 
ATOM     10  N   UNL     1       8.761  -5.933  -0.365  0.00  0.00    -0.220 NA
ATOM     11  H   UNL     1       6.265  -4.653  -1.978  0.00  0.00    +0.148 HD
ENDROOT
BRANCH   6  12
ATOM     12  C   UNL     1       9.502  -6.255  -6.635  0.00  0.00    -0.057 C 
ATOM     13  C   UNL     1       9.662  -6.325  -7.796  0.00  0.00    -0.078 C 
BRANCH  13  14
ATOM     14  C   UNL     1       9.864  -6.413  -9.251  0.00  0.00    +0.134 C 
ATOM     15  C   UNL     1      10.062  -7.889  -9.680  0.00  0.00    +0.077 C 
ATOM     16  C   UNL     1      11.565  -8.108  -9.362  0.00  0.00    +0.194 C 
ATOM     17  C   UNL     1      12.196  -6.742  -9.703  0.00  0.00    +0.126 C 
ATOM     18  N   UNL     1      11.118  -5.733  -9.639  0.00  0.00    -0.300 NA
ATOM     19  H   UNL     1      11.014  -5.258 -10.523  0.00  0.00    +0.123 HD
BRANCH  16  20
ATOM     20  O   UNL     1      12.110  -9.141 -10.186  0.00  0.00    -0.446 OA
BRANCH  20  21
ATOM     21  C   UNL     1      13.121  -9.864  -9.671  0.00  0.00    +0.403 C 
ATOM     22  O   UNL     1      13.530  -9.626  -8.552  0.00  0.00    -0.226 OA
ATOM     23  N   UNL     1      13.680 -10.853 -10.397  0.00  0.00    -0.263 N 
ATOM     24  C   UNL     1      13.206 -11.156 -11.756  0.00  0.00    +0.139 C 
ATOM     25  C   UNL     1      14.419 -11.203 -12.692  0.00  0.00    +0.179 C 
ATOM     26  O   UNL     1      15.399 -12.091 -12.149  0.00  0.00    -0.377 OA
ATOM     27  C   UNL     1      15.920 -11.683 -10.881  0.00  0.00    +0.179 C 
ATOM     28  C   UNL     1      14.787 -11.657  -9.855  0.00  0.00    +0.139 C 
ENDBRANCH  20  21
ENDBRANCH  16  20
ENDBRANCH  13  14
ENDBRANCH   6  12
BRANCH   1  29
ATOM     29  C   UNL     1       6.303  -4.682   0.145  0.00  0.00    +0.138 C 
BRANCH  29  34
ATOM     30  C   UNL     1       3.657  -1.988  -0.010  0.00  0.00    +0.129 A 
ATOM     31  C   UNL     1       2.495  -2.747  -0.046  0.00  0.00    +0.046 A 
ATOM     32  C   UNL     1       2.571  -4.125  -0.020  0.00  0.00    +0.004 A 
ATOM     33  C   UNL     1       3.803  -4.750   0.042  0.00  0.00    +0.005 A 
ATOM     34  C   UNL     1       4.962  -3.997   0.077  0.00  0.00    -0.027 A 
ATOM     35  C   UNL     1       4.892  -2.618   0.046  0.00  0.00    +0.051 A 
BRANCH  30  36
ATOM     36  O   UNL     1       3.586  -0.632  -0.036  0.00  0.00    -0.456 OA
BRANCH  36  40
ATOM     37  C   UNL     1       3.335   1.363   3.566  0.00  0.00    +0.000 A 
ATOM     38  C   UNL     1       3.417  -0.017   3.546  0.00  0.00    +0.004 A 
ATOM     39  C   UNL     1       3.501  -0.687   2.341  0.00  0.00    +0.046 A 
ATOM     40  C   UNL     1       3.503   0.025   1.150  0.00  0.00    +0.128 A 
ATOM     41  C   UNL     1       3.420   1.410   1.174  0.00  0.00    +0.046 A 
ATOM     42  C   UNL     1       3.336   2.076   2.381  0.00  0.00    +0.004 A 
ENDBRANCH  36  40
ENDBRANCH  30  36
ENDBRANCH  29  34
ENDBRANCH   1  29
TORSDOF 8
