REMARK  Name = CHEMBL382041
REMARK  8 active torsions:
REMARK  status: ('A' for Active; 'I' for Inactive)
REMARK    1  A    between atoms: C_1  and  O_2
REMARK    2  A    between atoms: O_2  and  C_3
REMARK    3  A    between atoms: C_3  and  C_4
REMARK    4  A    between atoms: C_4  and  O_5
REMARK    5  A    between atoms: O_5  and  C_6
REMARK    6  A    between atoms: C_10  and  O_12
REMARK    7  A    between atoms: O_12  and  C_13
REMARK    8  A    between atoms: N_23  and  C_24
REMARK                            x       y       z     vdW  Elec       q    Type
REMARK                         _______ _______ _______ _____ _____    ______ ____
ROOT
ATOM      1  C   UNL     1       0.890  -3.961   1.117  0.00  0.00    +0.126 A 
ATOM      2  C   UNL     1       0.700  -4.847   0.076  0.00  0.00    +0.074 A 
ATOM      3  C   UNL     1       0.584  -6.214   0.342  0.00  0.00    +0.083 A 
ATOM      4  C   UNL     1       0.663  -6.674   1.680  0.00  0.00    +0.082 A 
ATOM      5  C   UNL     1       0.857  -5.755   2.725  0.00  0.00    +0.137 A 
ATOM      6  C   UNL     1       0.974  -4.412   2.434  0.00  0.00    +0.092 A 
ATOM      7  C   UNL     1       0.543  -8.062   1.917  0.00  0.00    +0.137 A 
ATOM      8  N   UNL     1       0.361  -8.864   0.875  0.00  0.00    -0.220 NA
ATOM      9  C   UNL     1       0.293  -8.390  -0.358  0.00  0.00    +0.223 A 
ATOM     10  N   UNL     1       0.398  -7.113  -0.638  0.00  0.00    -0.235 NA
ATOM     11  N   UNL     1       0.612  -8.570   3.199  0.00  0.00    -0.299 N 
ATOM     12  H   UNL     1       0.590  -7.969   3.960  0.00  0.00    +0.154 HD
ENDROOT
BRANCH  11  13
ATOM     13  C   UNL     1       0.715  -9.950   3.399  0.00  0.00    +0.034 A 
ATOM     14  C   UNL     1       0.229 -10.830   2.441  0.00  0.00    +0.026 A 
ATOM     15  C   UNL     1       0.331 -12.193   2.640  0.00  0.00    +0.041 A 
ATOM     16  C   UNL     1       0.917 -12.683   3.795  0.00  0.00    +0.142 A 
ATOM     17  C   UNL     1       1.403 -11.808   4.753  0.00  0.00    +0.078 A 
ATOM     18  C   UNL     1       1.308 -10.443   4.554  0.00  0.00    +0.046 A 
ATOM     19 CL   UNL     1       2.136 -12.425   6.200  0.00  0.00    -0.081 Cl
ATOM     20  F   UNL     1       1.016 -14.017   3.987  0.00  0.00    -0.204 F 
ENDBRANCH  11  13
BRANCH   1  21
ATOM     21  O   UNL     1       1.003  -2.633   0.855  0.00  0.00    -0.490 OA
BRANCH  21  22
ATOM     22  C   UNL     1       0.908  -2.231  -0.513  0.00  0.00    +0.257 C 
BRANCH  22  23
ATOM     23  C   UNL     1       1.057  -0.712  -0.610  0.00  0.00    +0.200 C 
BRANCH  23  25
ATOM     24  C   UNL     1       2.616   1.073  -0.247  0.00  0.00    +0.194 C 
ATOM     25  O   UNL     1       2.372  -0.334  -0.195  0.00  0.00    -0.380 OA
ENDBRANCH  23  25
ENDBRANCH  22  23
ENDBRANCH  21  22
ENDBRANCH   1  21
BRANCH   5  26
ATOM     26  O   UNL     1       0.934  -6.186   4.009  0.00  0.00    -0.488 OA
BRANCH  26  27
ATOM     27  C   UNL     1       1.148  -5.193   5.015  0.00  0.00    +0.178 C 
ATOM     28  C   UNL     1       2.638  -4.847   5.085  0.00  0.00    +0.072 C 
ATOM     29  C   UNL     1       2.868  -3.842   6.217  0.00  0.00    +0.163 C 
ATOM     30  O   UNL     1       2.398  -4.396   7.447  0.00  0.00    -0.380 OA
ATOM     31  C   UNL     1       1.001  -4.696   7.456  0.00  0.00    +0.163 C 
ATOM     32  C   UNL     1       0.696  -5.735   6.374  0.00  0.00    +0.072 C 
ENDBRANCH  26  27
ENDBRANCH   5  26
TORSDOF 7
