REMARK  Name = CHEMBL584714
REMARK  9 active torsions:
REMARK  status: ('A' for Active; 'I' for Inactive)
REMARK    1  A    between atoms: C_1  and  C_2
REMARK    2  A    between atoms: C_2  and  C_3
REMARK    3  A    between atoms: C_9  and  N_10
REMARK    4  A    between atoms: N_10  and  C_11
REMARK    5  A    between atoms: N_19  and  C_20
REMARK    6  A    between atoms: C_20  and  C_21
REMARK    7  A    between atoms: C_30  and  O_32
REMARK    8  A    between atoms: O_32  and  C_33
REMARK    9  A    between atoms: C_33  and  C_34
REMARK                            x       y       z     vdW  Elec       q    Type
REMARK                         _______ _______ _______ _____ _____    ______ ____
ROOT
ATOM      1  C   UNL     1       1.214   0.214  -1.640  0.00  0.00    +0.003 C 
ATOM      2  C   UNL     1       2.394  -0.377  -1.529  0.00  0.00    +0.047 C 
ATOM      3  C   UNL     1       2.952  -0.479  -2.946  0.00  0.00    +0.258 C 
ATOM      4  N   UNL     1       3.457  -1.847  -3.061  0.00  0.00    -0.241 NA
ATOM      5  C   UNL     1       3.890  -2.460  -2.000  0.00  0.00    +0.220 C 
ATOM      6  N   UNL     1       3.907  -1.985  -0.753  0.00  0.00    -0.219 NA
ATOM      7  C   UNL     1       3.170  -0.921  -0.406  0.00  0.00    +0.152 C 
ATOM      8  N   UNL     1       1.827  -0.165  -3.813  0.00  0.00    -0.237 NA
ATOM      9  C   UNL     1       0.851   0.276  -3.067  0.00  0.00    +0.129 C 
ATOM     10  N   UNL     1      -0.361   0.742  -3.551  0.00  0.00    -0.236 N 
ATOM     11  C   UNL     1      -0.596   0.757  -4.879  0.00  0.00    +0.406 C 
ATOM     12  O   UNL     1       0.255   0.362  -5.651  0.00  0.00    -0.226 OA
ATOM     13  H   UNL     1      -1.041   1.057  -2.935  0.00  0.00    +0.160 HD
ENDROOT
BRANCH   1  15
ATOM     14  C   UNL     1       0.651   2.223  -0.299  0.00  0.00    +0.009 C 
ATOM     15  C   UNL     1       0.378   0.731  -0.497  0.00  0.00    +0.036 C 
ENDBRANCH   1  15
BRANCH   7  16
ATOM     16  N   UNL     1       3.144  -0.395   0.861  0.00  0.00    -0.196 NA
BRANCH  16  17
ATOM     17  C   UNL     1       4.129  -0.755   1.788  0.00  0.00    +0.056 A 
ATOM     18  C   UNL     1       3.853  -0.691   3.155  0.00  0.00    +0.027 A 
ATOM     19  C   UNL     1       4.799  -1.037   4.075  0.00  0.00    +0.030 A 
ATOM     20  C   UNL     1       6.059  -1.459   3.656  0.00  0.00    +0.069 A 
ATOM     21  C   UNL     1       6.349  -1.528   2.280  0.00  0.00    +0.022 A 
ATOM     22  C   UNL     1       5.368  -1.176   1.346  0.00  0.00    +0.036 A 
ATOM     23  C   UNL     1       7.726  -1.997   2.173  0.00  0.00    +0.143 A 
ATOM     24  N   UNL     1       8.180  -2.180   3.380  0.00  0.00    -0.178 NA
ATOM     25  N   UNL     1       7.191  -1.863   4.318  0.00  0.00    -0.259 N 
BRANCH  25  26
ATOM     26  C   UNL     1       7.341  -1.947   5.772  0.00  0.00    +0.179 C 
BRANCH  26  27
ATOM     27  C   UNL     1       6.932  -3.320   6.241  0.00  0.00    -0.026 A 
ATOM     28  C   UNL     1       5.617  -3.568   6.588  0.00  0.00    +0.005 A 
ATOM     29  C   UNL     1       5.242  -4.827   7.018  0.00  0.00    +0.000 A 
ATOM     30  C   UNL     1       6.181  -5.838   7.100  0.00  0.00    +0.000 A 
ATOM     31  C   UNL     1       7.496  -5.590   6.751  0.00  0.00    +0.000 A 
ATOM     32  C   UNL     1       7.870  -4.332   6.317  0.00  0.00    +0.005 A 
ENDBRANCH  26  27
ENDBRANCH  25  26
ENDBRANCH  16  17
ENDBRANCH   7  16
BRANCH  11  33
ATOM     33  O   UNL     1      -1.773   1.210  -5.349  0.00  0.00    -0.450 OA
BRANCH  33  34
ATOM     34  C   UNL     1      -1.953   1.197  -6.767  0.00  0.00    +0.235 C 
BRANCH  34  35
ATOM     35  C   UNL     1      -3.341   1.744  -7.109  0.00  0.00    +0.010 C 
ATOM     36  C   UNL     1      -3.422   3.220  -6.708  0.00  0.00    +0.003 C 
ATOM     37  C   UNL     1      -4.786   3.777  -7.126  0.00  0.00    -0.019 C 
ATOM     38  C   UNL     1      -4.975   3.574  -8.631  0.00  0.00    -0.083 C 
ATOM     39  N   UNL     1      -4.913   2.141  -8.946  0.00  0.00    +0.379 N 
ATOM     40  C   UNL     1      -3.583   1.616  -8.614  0.00  0.00    -0.076 C 
ATOM     41  H   UNL     1      -5.612   1.649  -8.410  0.00  0.00    -0.086 HD
ATOM     42  H   UNL     1      -5.091   2.006  -9.930  0.00  0.00    -0.086 HD
ENDBRANCH  34  35
ENDBRANCH  33  34
ENDBRANCH  11  33
TORSDOF 8
