REMARK  Name = CHEMBL304271
REMARK  14 active torsions:
REMARK  status: ('A' for Active; 'I' for Inactive)
REMARK    1  A    between atoms: C_1  and  C_2
REMARK    2  A    between atoms: C_2  and  N_3
REMARK    3  A    between atoms: N_3  and  C_4
REMARK    4  A    between atoms: N_3  and  C_6
REMARK    5  A    between atoms: C_4  and  C_5
REMARK    6  A    between atoms: C_6  and  C_7
REMARK    7  A    between atoms: C_7  and  C_8
REMARK    8  A    between atoms: C_7  and  O_39
REMARK    9  A    between atoms: C_8  and  N_9
REMARK   10  A    between atoms: C_10  and  C_12
REMARK   11  A    between atoms: C_14  and  C_38
REMARK   12  A    between atoms: C_15  and  C_18
REMARK   13  A    between atoms: C_25  and  N_26
REMARK   14  A    between atoms: N_26  and  C_27
REMARK                            x       y       z     vdW  Elec       q    Type
REMARK                         _______ _______ _______ _____ _____    ______ ____
ROOT
ATOM      1  C   UNL     1      -0.353  -5.566   6.242  0.00  0.00    +0.102 A 
ATOM      2  C   UNL     1      -0.521  -6.536   7.213  0.00  0.00    +0.036 A 
ATOM      3  C   UNL     1       0.229  -6.156   8.321  0.00  0.00    -0.025 A 
ATOM      4  C   UNL     1       0.848  -4.953   8.013  0.00  0.00    +0.043 A 
ATOM      5  N   UNL     1       0.489  -4.605   6.737  0.00  0.00    -0.351 N 
ATOM      6  H   UNL     1       0.781  -3.810   6.264  0.00  0.00    +0.166 HD
ATOM      7  C   UNL     1       0.346  -6.912   9.619  0.00  0.00    +0.046 C 
ENDROOT
BRANCH   4   8
ATOM      8  C   UNL     1       1.705  -4.217   8.866  0.00  0.00    +0.039 C 
ATOM      9  C   UNL     1       1.715  -2.840   8.811  0.00  0.00    +0.053 C 
ATOM     10  C   UNL     1       2.650  -1.920   9.485  0.00  0.00    +0.067 A 
ATOM     11  C   UNL     1       2.259  -0.621   9.126  0.00  0.00    +0.138 A 
ATOM     12  N   UNL     1       2.956   0.404   9.614  0.00  0.00    -0.220 NA
ATOM     13  C   UNL     1       3.985   0.203  10.413  0.00  0.00    +0.225 A 
ATOM     14  N   UNL     1       4.383  -1.001  10.773  0.00  0.00    -0.220 NA
ATOM     15  C   UNL     1       3.748  -2.088  10.335  0.00  0.00    +0.136 A 
ATOM     16  N   UNL     1       1.164  -0.690   8.289  0.00  0.00    -0.266 N 
ATOM     17  C   UNL     1       0.798  -1.963   8.059  0.00  0.00    +0.250 C 
ATOM     18  O   UNL     1      -0.128  -2.327   7.357  0.00  0.00    -0.270 OA
ATOM     19  H   UNL     1       0.717   0.084   7.911  0.00  0.00    +0.157 HD
BRANCH  15  20
ATOM     20  N   UNL     1       4.165  -3.353  10.713  0.00  0.00    -0.299 N 
ATOM     21  H   UNL     1       3.736  -4.137  10.337  0.00  0.00    +0.154 HD
BRANCH  20  22
ATOM     22  C   UNL     1       5.204  -3.499  11.638  0.00  0.00    +0.034 A 
ATOM     23  C   UNL     1       5.356  -2.577  12.665  0.00  0.00    +0.026 A 
ATOM     24  C   UNL     1       6.383  -2.723  13.577  0.00  0.00    +0.041 A 
ATOM     25  C   UNL     1       7.261  -3.788  13.469  0.00  0.00    +0.142 A 
ATOM     26  C   UNL     1       7.112  -4.710  12.445  0.00  0.00    +0.078 A 
ATOM     27  C   UNL     1       6.082  -4.570  11.533  0.00  0.00    +0.046 A 
ATOM     28 CL   UNL     1       8.214  -6.044  12.310  0.00  0.00    -0.081 Cl
ATOM     29  F   UNL     1       8.265  -3.929  14.362  0.00  0.00    -0.204 F 
ENDBRANCH  20  22
ENDBRANCH  15  20
ENDBRANCH   4   8
BRANCH   1  31
ATOM     30  N   UNL     1      -0.718  -4.561   4.048  0.00  0.00    -0.308 N 
ATOM     31  C   UNL     1      -0.969  -5.569   4.907  0.00  0.00    +0.260 C 
ATOM     32  O   UNL     1      -1.704  -6.481   4.577  0.00  0.00    -0.269 OA
ATOM     33  H   UNL     1      -0.132  -3.834   4.310  0.00  0.00    +0.149 HD
BRANCH  30  34
ATOM     34  C   UNL     1      -1.331  -4.564   2.717  0.00  0.00    +0.134 C 
BRANCH  34  35
ATOM     35  C   UNL     1      -0.886  -3.318   1.948  0.00  0.00    +0.115 C 
BRANCH  35  36
ATOM     36  O   UNL     1      -1.296  -2.148   2.659  0.00  0.00    -0.392 OA
ATOM     37  H   UNL     1      -2.252  -2.080   2.785  0.00  0.00    +0.210 HD
ENDBRANCH  35  36
BRANCH  35  38
ATOM     38  C   UNL     1      -1.526  -3.321   0.559  0.00  0.00    -0.046 C 
BRANCH  38  39
ATOM     39  N   UNL     1      -1.007  -2.190  -0.222  0.00  0.00    +0.381 N 
ATOM     40  H   UNL     1      -1.157  -1.332   0.288  0.00  0.00    -0.082 HD
BRANCH  39  42
ATOM     41  C   UNL     1       0.989  -1.159  -1.196  0.00  0.00    -0.017 C 
ATOM     42  C   UNL     1       0.431  -2.376  -0.456  0.00  0.00    -0.082 C 
ENDBRANCH  39  42
BRANCH  39  43
ATOM     43  C   UNL     1      -1.708  -2.121  -1.511  0.00  0.00    -0.082 C 
ATOM     44  C   UNL     1      -3.192  -1.837  -1.270  0.00  0.00    -0.017 C 
ENDBRANCH  39  43
ENDBRANCH  38  39
ENDBRANCH  35  38
ENDBRANCH  34  35
ENDBRANCH  30  34
ENDBRANCH   1  31
TORSDOF 11
