REMARK  Name = CHEMBL258940
REMARK  4 active torsions:
REMARK  status: ('A' for Active; 'I' for Inactive)
REMARK    1  A    between atoms: C_1  and  N_2
REMARK    2  A    between atoms: C_5  and  N_8
REMARK    3  A    between atoms: C_15  and  N_19
REMARK    4  A    between atoms: N_19  and  C_20
REMARK                            x       y       z     vdW  Elec       q    Type
REMARK                         _______ _______ _______ _____ _____    ______ ____
ROOT
ATOM      1  N   UNL     1      -1.382  -4.197   1.103  0.00  0.00    -0.311 N 
ATOM      2  C   UNL     1      -1.022  -4.945   2.211  0.00  0.00    +0.216 A 
ATOM      3  N   UNL     1      -0.974  -4.346   3.399  0.00  0.00    -0.221 NA
ATOM      4  C   UNL     1      -0.639  -5.003   4.490  0.00  0.00    +0.144 A 
ATOM      5  C   UNL     1      -0.328  -6.371   4.378  0.00  0.00    +0.112 A 
ATOM      6  C   UNL     1      -0.392  -6.970   3.097  0.00  0.00    +0.134 A 
ATOM      7  N   UNL     1      -0.746  -6.226   2.050  0.00  0.00    -0.209 NA
ATOM      8  C   UNL     1      -0.078  -8.348   2.989  0.00  0.00    +0.152 A 
ATOM      9  N   UNL     1       0.258  -9.000   4.093  0.00  0.00    -0.218 NA
ATOM     10  C   UNL     1       0.303  -8.394   5.269  0.00  0.00    +0.224 A 
ATOM     11  N   UNL     1       0.022  -7.122   5.428  0.00  0.00    -0.232 NA
ATOM     12  H   UNL     1      -1.427  -4.616   0.229  0.00  0.00    +0.149 HD
ENDROOT
BRANCH   1  17
ATOM     13  C   UNL     1      -1.867   1.344   0.166  0.00  0.00    -0.096 C 
ATOM     14  N   UNL     1      -1.607  -0.102   0.134  0.00  0.00    +0.378 N 
ATOM     15  C   UNL     1      -2.879  -0.829   0.228  0.00  0.00    -0.077 C 
ATOM     16  C   UNL     1      -2.621  -2.332   0.113  0.00  0.00    +0.003 C 
ATOM     17  C   UNL     1      -1.694  -2.773   1.250  0.00  0.00    +0.070 C 
ATOM     18  C   UNL     1      -0.401  -1.956   1.188  0.00  0.00    +0.003 C 
ATOM     19  C   UNL     1      -0.741  -0.466   1.262  0.00  0.00    -0.077 C 
ATOM     20  H   UNL     1      -1.148  -0.341  -0.732  0.00  0.00    -0.082 HD
ENDBRANCH   1  17
BRANCH   8  21
ATOM     21  N   UNL     1      -0.121  -8.993   1.770  0.00  0.00    -0.298 N 
ATOM     22  H   UNL     1      -0.286  -8.486   0.959  0.00  0.00    +0.154 HD
BRANCH  21  23
ATOM     23  C   UNL     1       0.073 -10.377   1.702  0.00  0.00    +0.034 A 
ATOM     24  C   UNL     1      -0.383 -11.194   2.729  0.00  0.00    +0.026 A 
ATOM     25  C   UNL     1      -0.190 -12.559   2.661  0.00  0.00    +0.041 A 
ATOM     26  C   UNL     1       0.458 -13.115   1.571  0.00  0.00    +0.142 A 
ATOM     27  C   UNL     1       0.915 -12.302   0.546  0.00  0.00    +0.078 A 
ATOM     28  C   UNL     1       0.718 -10.935   0.607  0.00  0.00    +0.046 A 
ATOM     29 CL   UNL     1       1.727 -13.002  -0.820  0.00  0.00    -0.081 Cl
ATOM     30  F   UNL     1       0.647 -14.451   1.507  0.00  0.00    -0.204 F 
ENDBRANCH  21  23
ENDBRANCH   8  21
TORSDOF 3
