REMARK  Name = CHEMBL249927
REMARK  9 active torsions:
REMARK  status: ('A' for Active; 'I' for Inactive)
REMARK    1  A    between atoms: C_5  and  C_7
REMARK    2  A    between atoms: C_7  and  O_8
REMARK    3  A    between atoms: O_8  and  C_9
REMARK    4  A    between atoms: C_12  and  N_16
REMARK    5  A    between atoms: C_23  and  O_24
REMARK    6  A    between atoms: O_24  and  C_25
REMARK    7  A    between atoms: C_25  and  C_26
REMARK    8  A    between atoms: C_32  and  C_34
REMARK    9  A    between atoms: C_34  and  O_35
REMARK                            x       y       z     vdW  Elec       q    Type
REMARK                         _______ _______ _______ _____ _____    ______ ____
ROOT
ATOM      1  N   UNL     1      -1.128  -8.489  -0.336  0.00  0.00    -0.299 N 
ATOM      2  C   UNL     1      -2.275  -9.163   0.027  0.00  0.00    +0.137 A 
ATOM      3  C   UNL     1      -2.230 -10.527   0.398  0.00  0.00    +0.082 A 
ATOM      4  C   UNL     1      -3.442 -11.164   0.761  0.00  0.00    +0.080 A 
ATOM      5  C   UNL     1      -3.426 -12.513   1.132  0.00  0.00    +0.029 A 
ATOM      6  C   UNL     1      -2.247 -13.201   1.141  0.00  0.00    +0.006 A 
ATOM      7  C   UNL     1      -1.053 -12.585   0.788  0.00  0.00    +0.046 A 
ATOM      8  C   UNL     1      -1.030 -11.256   0.415  0.00  0.00    +0.133 A 
ATOM      9  N   UNL     1      -4.577 -10.448   0.737  0.00  0.00    -0.235 NA
ATOM     10  C   UNL     1      -4.560  -9.185   0.384  0.00  0.00    +0.223 A 
ATOM     11  N   UNL     1      -3.451  -8.548   0.042  0.00  0.00    -0.220 NA
ATOM     12  H   UNL     1      -0.291  -8.971  -0.426  0.00  0.00    +0.154 HD
ENDROOT
BRANCH   1  16
ATOM     13  C   UNL     1      -1.257  -4.383  -1.048  0.00  0.00    +0.139 A 
ATOM     14  C   UNL     1      -0.079  -4.976  -0.618  0.00  0.00    +0.049 A 
ATOM     15  C   UNL     1      -0.036  -6.335  -0.382  0.00  0.00    +0.027 A 
ATOM     16  C   UNL     1      -1.172  -7.111  -0.575  0.00  0.00    +0.034 A 
ATOM     17  C   UNL     1      -2.351  -6.517  -1.004  0.00  0.00    +0.047 A 
ATOM     18  C   UNL     1      -2.395  -5.155  -1.235  0.00  0.00    +0.084 A 
ATOM     19 CL   UNL     1      -3.871  -4.412  -1.766  0.00  0.00    -0.080 Cl
BRANCH  13  20
ATOM     20  O   UNL     1      -1.299  -3.043  -1.280  0.00  0.00    -0.484 OA
BRANCH  20  21
ATOM     21  C   UNL     1      -0.091  -2.310  -1.067  0.00  0.00    +0.284 C 
BRANCH  21  26
ATOM     22  C   UNL     1      -1.784   0.905  -2.067  0.00  0.00    +0.003 A 
ATOM     23  C   UNL     1      -0.720   1.782  -1.918  0.00  0.00    +0.020 A 
ATOM     24  C   UNL     1       0.502   1.292  -1.498  0.00  0.00    +0.111 A 
ATOM     25  N   UNL     1       0.662   0.009  -1.241  0.00  0.00    -0.256 NA
ATOM     26  C   UNL     1      -0.327  -0.854  -1.373  0.00  0.00    +0.078 A 
ATOM     27  C   UNL     1      -1.578  -0.437  -1.788  0.00  0.00    +0.027 A 
ENDBRANCH  21  26
ENDBRANCH  20  21
ENDBRANCH  13  20
ENDBRANCH   1  16
BRANCH   8  28
ATOM     28  O   UNL     1       0.140 -10.660   0.070  0.00  0.00    -0.489 OA
BRANCH  28  29
ATOM     29  C   UNL     1       1.289 -11.502  -0.037  0.00  0.00    +0.251 C 
BRANCH  29  30
ATOM     30  C   UNL     1       1.786 -11.867   1.364  0.00  0.00    +0.114 C 
ATOM     31  C   UNL     1       2.923 -12.906   1.263  0.00  0.00    +0.027 C 
ATOM     32  C   UNL     1       3.902 -12.458   2.380  0.00  0.00    +0.021 C 
ATOM     33  C   UNL     1       3.765 -10.917   2.314  0.00  0.00    +0.108 C 
ATOM     34  N   UNL     1       2.336 -10.676   2.026  0.00  0.00    -0.293 N 
ATOM     35  C   UNL     1       1.651  -9.553   2.318  0.00  0.00    +0.241 C 
ATOM     36  O   UNL     1       0.456  -9.501   2.116  0.00  0.00    -0.273 OA
BRANCH  35  37
ATOM     37  C   UNL     1       2.369  -8.361   2.897  0.00  0.00    +0.251 C 
BRANCH  37  38
ATOM     38  O   UNL     1       1.435  -7.303   3.119  0.00  0.00    -0.386 OA
ATOM     39  H   UNL     1       1.828  -6.502   3.491  0.00  0.00    +0.210 HD
ENDBRANCH  37  38
ENDBRANCH  35  37
ENDBRANCH  29  30
ENDBRANCH  28  29
ENDBRANCH   8  28
TORSDOF 9
