REMARK  Name = CHEMBL193681
REMARK  10 active torsions:
REMARK  status: ('A' for Active; 'I' for Inactive)
REMARK    1  A    between atoms: C_1  and  C_2
REMARK    2  A    between atoms: C_2  and  C_3
REMARK    3  A    between atoms: C_4  and  C_29
REMARK    4  A    between atoms: N_12  and  C_13
REMARK    5  A    between atoms: N_21  and  C_22
REMARK    6  A    between atoms: C_22  and  C_23
REMARK    7  A    between atoms: N_31  and  C_32
REMARK    8  A    between atoms: C_32  and  C_33
REMARK    9  A    between atoms: C_33  and  C_34
REMARK   10  A    between atoms: C_34  and  N_35
REMARK                            x       y       z     vdW  Elec       q    Type
REMARK                         _______ _______ _______ _____ _____    ______ ____
ROOT
ATOM      1  C   UNL     1       0.730  -0.629   1.286  0.00  0.00    -0.005 A 
ATOM      2  C   UNL     1       1.994  -1.254   1.280  0.00  0.00    +0.060 A 
ATOM      3  C   UNL     1       1.988  -2.202   2.290  0.00  0.00    +0.126 A 
ATOM      4  N   UNL     1       0.793  -2.177   2.897  0.00  0.00    -0.234 N 
ATOM      5  C   UNL     1       0.003  -1.212   2.298  0.00  0.00    +0.109 A 
ATOM      6  C   UNL     1      -1.310  -1.013   2.792  0.00  0.00    +0.151 A 
ATOM      7  N   UNL     1      -1.737  -1.748   3.805  0.00  0.00    -0.217 NA
ATOM      8  C   UNL     1      -0.962  -2.672   4.373  0.00  0.00    +0.245 A 
ATOM      9  N   UNL     1       0.252  -2.912   3.963  0.00  0.00    -0.155 NA
ATOM     10  N   UNL     1      -2.134  -0.064   2.223  0.00  0.00    -0.298 N 
ATOM     11  H   UNL     1      -1.845   0.417   1.431  0.00  0.00    +0.154 HD
ENDROOT
BRANCH  10  12
ATOM     12  C   UNL     1      -3.385   0.207   2.789  0.00  0.00    +0.033 A 
ATOM     13  C   UNL     1      -3.557   0.117   4.172  0.00  0.00    +0.025 A 
ATOM     14  C   UNL     1      -4.768   0.377   4.743  0.00  0.00    +0.030 A 
ATOM     15  C   UNL     1      -5.853   0.738   3.947  0.00  0.00    +0.069 A 
ATOM     16  C   UNL     1      -5.691   0.833   2.552  0.00  0.00    +0.021 A 
ATOM     17  C   UNL     1      -4.442   0.569   1.978  0.00  0.00    +0.034 A 
ATOM     18  C   UNL     1      -6.990   1.225   2.014  0.00  0.00    +0.143 A 
ATOM     19  N   UNL     1      -7.816   1.343   3.013  0.00  0.00    -0.178 NA
ATOM     20  N   UNL     1      -7.161   1.053   4.215  0.00  0.00    -0.259 N 
BRANCH  20  21
ATOM     21  C   UNL     1      -7.774   1.082   5.545  0.00  0.00    +0.179 C 
BRANCH  21  22
ATOM     22  C   UNL     1      -7.626   2.460   6.137  0.00  0.00    -0.026 A 
ATOM     23  C   UNL     1      -6.511   2.773   6.891  0.00  0.00    +0.005 A 
ATOM     24  C   UNL     1      -6.376   4.037   7.434  0.00  0.00    +0.000 A 
ATOM     25  C   UNL     1      -7.356   4.989   7.221  0.00  0.00    +0.000 A 
ATOM     26  C   UNL     1      -8.471   4.676   6.466  0.00  0.00    +0.000 A 
ATOM     27  C   UNL     1      -8.604   3.413   5.920  0.00  0.00    +0.005 A 
ENDBRANCH  21  22
ENDBRANCH  20  21
ENDBRANCH  10  12
BRANCH   2  28
ATOM     28  C   UNL     1       3.114  -0.953   0.368  0.00  0.00    +0.246 C 
ATOM     29  O   UNL     1       2.992  -0.092  -0.482  0.00  0.00    -0.270 OA
ATOM     30  N   UNL     1       4.273  -1.633   0.477  0.00  0.00    -0.311 N 
ATOM     31  H   UNL     1       4.370  -2.320   1.155  0.00  0.00    +0.149 HD
BRANCH  30  32
ATOM     32  C   UNL     1       5.385  -1.335  -0.428  0.00  0.00    +0.106 C 
BRANCH  32  33
ATOM     33  C   UNL     1       6.572  -2.241  -0.094  0.00  0.00    +0.040 C 
BRANCH  33  34
ATOM     34  C   UNL     1       7.733  -1.930  -1.040  0.00  0.00    +0.124 C 
BRANCH  34  35
ATOM     35  N   UNL     1       8.870  -2.798  -0.720  0.00  0.00    -0.337 N 
ATOM     36  C   UNL     1       9.872  -2.527   0.172  0.00  0.00    +0.106 A 
ATOM     37  C   UNL     1      10.703  -3.587   0.157  0.00  0.00    +0.130 A 
ATOM     38  N   UNL     1      10.221  -4.480  -0.719  0.00  0.00    -0.244 NA
ATOM     39  C   UNL     1       9.120  -4.017  -1.245  0.00  0.00    +0.199 A 
ENDBRANCH  34  35
ENDBRANCH  33  34
ENDBRANCH  32  33
ENDBRANCH  30  32
ENDBRANCH   2  28
BRANCH   1  41
ATOM     40  C   UNL     1       0.481   1.826   1.041  0.00  0.00    +0.009 C 
ATOM     41  C   UNL     1       0.266   0.470   0.365  0.00  0.00    +0.035 C 
ENDBRANCH   1  41
TORSDOF 9
