REMARK  Name = CHEMBL257411
REMARK  7 active torsions:
REMARK  status: ('A' for Active; 'I' for Inactive)
REMARK    1  A    between atoms: C_1  and  C_2
REMARK    2  A    between atoms: C_2  and  C_4
REMARK    3  A    between atoms: C_2  and  O_12
REMARK    4  A    between atoms: O_12  and  C_13
REMARK    5  A    between atoms: N_23  and  C_24
REMARK    6  A    between atoms: N_32  and  C_33
REMARK    7  A    between atoms: C_33  and  C_34
REMARK                            x       y       z     vdW  Elec       q    Type
REMARK                         _______ _______ _______ _____ _____    ______ ____
ROOT
ATOM      1  C   UNL     1      -0.055  -0.574  -2.182  0.00  0.00    +0.134 A 
ATOM      2  C   UNL     1      -1.388  -0.219  -2.123  0.00  0.00    +0.046 A 
ATOM      3  C   UNL     1      -2.147  -0.116  -3.282  0.00  0.00    +0.006 A 
ATOM      4  C   UNL     1      -1.599  -0.360  -4.507  0.00  0.00    +0.029 A 
ATOM      5  C   UNL     1      -0.250  -0.722  -4.608  0.00  0.00    +0.080 A 
ATOM      6  C   UNL     1       0.533  -0.825  -3.432  0.00  0.00    +0.082 A 
ATOM      7  C   UNL     1       1.894  -1.186  -3.563  0.00  0.00    +0.137 A 
ATOM      8  N   UNL     1       2.369  -1.406  -4.783  0.00  0.00    -0.220 NA
ATOM      9  C   UNL     1       1.601  -1.294  -5.855  0.00  0.00    +0.223 A 
ATOM     10  N   UNL     1       0.331  -0.972  -5.792  0.00  0.00    -0.235 NA
ATOM     11  N   UNL     1       2.705  -1.307  -2.454  0.00  0.00    -0.299 N 
ATOM     12  H   UNL     1       2.318  -1.275  -1.565  0.00  0.00    +0.154 HD
ENDROOT
BRANCH  11  13
ATOM     13  C   UNL     1       4.086  -1.476  -2.612  0.00  0.00    +0.033 A 
ATOM     14  C   UNL     1       4.588  -2.027  -3.792  0.00  0.00    +0.025 A 
ATOM     15  C   UNL     1       5.930  -2.200  -3.965  0.00  0.00    +0.030 A 
ATOM     16  C   UNL     1       6.818  -1.825  -2.960  0.00  0.00    +0.069 A 
ATOM     17  C   UNL     1       6.323  -1.267  -1.766  0.00  0.00    +0.021 A 
ATOM     18  C   UNL     1       4.944  -1.090  -1.602  0.00  0.00    +0.034 A 
ATOM     19  C   UNL     1       7.486  -0.986  -0.930  0.00  0.00    +0.143 A 
ATOM     20  N   UNL     1       8.548  -1.351  -1.590  0.00  0.00    -0.178 NA
ATOM     21  N   UNL     1       8.184  -1.870  -2.837  0.00  0.00    -0.257 N 
BRANCH  21  22
ATOM     22  C   UNL     1       9.113  -2.380  -3.849  0.00  0.00    +0.206 C 
BRANCH  22  23
ATOM     23  C   UNL     1       9.525  -1.256  -4.764  0.00  0.00    +0.100 A 
ATOM     24  N   UNL     1      10.542  -0.440  -4.644  0.00  0.00    -0.250 NA
ATOM     25  C   UNL     1      10.775   0.502  -5.535  0.00  0.00    +0.119 A 
ATOM     26  C   UNL     1       9.914   0.586  -6.581  0.00  0.00    +0.066 A 
ATOM     27  S   UNL     1       8.795  -0.750  -6.194  0.00  0.00    -0.079 S 
ENDBRANCH  22  23
ENDBRANCH  21  22
ENDBRANCH  11  13
BRANCH   1  28
ATOM     28  O   UNL     1       0.680  -0.672  -1.046  0.00  0.00    -0.479 OA
BRANCH  28  30
ATOM     29  C   UNL     1      -0.202   0.860   0.602  0.00  0.00    +0.062 C 
ATOM     30  C   UNL     1      -0.028  -0.604   0.193  0.00  0.00    +0.256 C 
BRANCH  30  31
ATOM     31  C   UNL     1       0.750  -1.334   1.258  0.00  0.00    +0.256 C 
ATOM     32  O   UNL     1       1.848  -1.782   1.006  0.00  0.00    -0.272 OA
ATOM     33  N   UNL     1       0.225  -1.488   2.490  0.00  0.00    -0.294 N 
ATOM     34  C   UNL     1      -1.108  -0.959   2.817  0.00  0.00    +0.136 C 
ATOM     35  C   UNL     1      -1.928  -2.080   3.466  0.00  0.00    +0.179 C 
ATOM     36  O   UNL     1      -1.183  -2.639   4.551  0.00  0.00    -0.377 OA
ATOM     37  C   UNL     1       0.048  -3.253   4.161  0.00  0.00    +0.179 C 
ATOM     38  C   UNL     1       0.966  -2.197   3.545  0.00  0.00    +0.136 C 
ENDBRANCH  30  31
ENDBRANCH  28  30
ENDBRANCH   1  28
TORSDOF 6
