REMARK  Name = CHEMBL399373
REMARK  13 active torsions:
REMARK  status: ('A' for Active; 'I' for Inactive)
REMARK    1  A    between atoms: C_1  and  C_2
REMARK    2  A    between atoms: C_2  and  O_3
REMARK    3  A    between atoms: O_3  and  C_4
REMARK    4  A    between atoms: C_9  and  O_10
REMARK    5  A    between atoms: O_10  and  C_11
REMARK    6  A    between atoms: C_11  and  C_12
REMARK    7  A    between atoms: C_16  and  C_17
REMARK    8  A    between atoms: C_18  and  C_19
REMARK    9  A    between atoms: C_19  and  C_20
REMARK   10  A    between atoms: C_19  and  C_21
REMARK   11  A    between atoms: C_19  and  N_28
REMARK   12  A    between atoms: C_21  and  C_22
REMARK   13  A    between atoms: C_31  and  C_34
REMARK                            x       y       z     vdW  Elec       q    Type
REMARK                         _______ _______ _______ _____ _____    ______ ____
ROOT
ATOM      1  C   UNL     1      -2.490  -3.532   3.324  0.00  0.00    +0.000 C 
ATOM      2  C   UNL     1      -3.280  -4.654   4.000  0.00  0.00    +0.004 C 
ENDROOT
BRANCH   1   3
ATOM      3  N   UNL     1      -3.423  -2.555   2.747  0.00  0.00    +0.391 N 
ATOM      4  C   UNL     1      -4.254  -1.985   3.814  0.00  0.00    -0.076 C 
ATOM      5  C   UNL     1      -5.173  -0.909   3.231  0.00  0.00    -0.004 C 
ATOM      6  C   UNL     1      -6.071  -1.536   2.162  0.00  0.00    +0.099 C 
ATOM      7  C   UNL     1      -5.194  -2.192   1.092  0.00  0.00    -0.004 C 
ATOM      8  C   UNL     1      -4.275  -3.221   1.754  0.00  0.00    -0.076 C 
ATOM      9  H   UNL     1      -2.901  -1.816   2.299  0.00  0.00    -0.080 HD
BRANCH   6  10
ATOM     10  C   UNL     1      -6.923  -0.467   1.528  0.00  0.00    +0.359 C 
ATOM     11  O   UNL     1      -7.280  -0.580   0.368  0.00  0.00    -0.246 OA
ATOM     12  O   UNL     1      -7.256   0.511   2.176  0.00  0.00    -0.246 OA
ENDBRANCH   6  10
ENDBRANCH   1   3
BRANCH   1  14
ATOM     13  C   UNL     1      -0.979  -4.549   1.404  0.00  0.00    -0.047 C 
ATOM     14  C   UNL     1      -1.650  -4.097   2.256  0.00  0.00    -0.107 C 
BRANCH  13  24
ATOM     15  C   UNL     1       1.565  -2.131  -1.013  0.00  0.00    +0.163 A 
ATOM     16  C   UNL     1       0.742  -2.884  -0.225  0.00  0.00    +0.062 A 
ATOM     17  C   UNL     1       0.674  -4.268  -0.421  0.00  0.00    +0.038 A 
ATOM     18  C   UNL     1       1.460  -4.876  -1.435  0.00  0.00    +0.079 A 
ATOM     19  C   UNL     1       2.295  -4.079  -2.228  0.00  0.00    +0.077 A 
ATOM     20  C   UNL     1       2.338  -2.729  -2.019  0.00  0.00    +0.164 A 
ATOM     21  N   UNL     1       1.377  -6.203  -1.604  0.00  0.00    -0.235 NA
ATOM     22  C   UNL     1       0.585  -6.924  -0.845  0.00  0.00    +0.223 A 
ATOM     23  N   UNL     1      -0.166  -6.404   0.111  0.00  0.00    -0.227 NA
ATOM     24  C   UNL     1      -0.162  -5.099   0.365  0.00  0.00    +0.124 A 
BRANCH  15  25
ATOM     25  O   UNL     1       1.633  -0.787  -0.824  0.00  0.00    -0.489 OA
BRANCH  25  27
ATOM     26  C   UNL     1       1.038   1.275   0.288  0.00  0.00    +0.048 C 
ATOM     27  C   UNL     1       0.885  -0.247   0.268  0.00  0.00    +0.226 C 
ENDBRANCH  25  27
ENDBRANCH  15  25
BRANCH  20  28
ATOM     28  O   UNL     1       3.145  -1.957  -2.793  0.00  0.00    -0.489 OA
BRANCH  28  29
ATOM     29  C   UNL     1       3.908  -2.623  -3.802  0.00  0.00    +0.226 C 
ATOM     30  C   UNL     1       4.748  -1.597  -4.565  0.00  0.00    +0.048 C 
ENDBRANCH  28  29
ENDBRANCH  20  28
ENDBRANCH  13  24
ENDBRANCH   1  14
BRANCH   1  31
ATOM     31  C   UNL     1      -1.601  -2.838   4.359  0.00  0.00    +0.035 C 
BRANCH  31  32
ATOM     32  C   UNL     1      -0.558  -3.806   4.854  0.00  0.00    -0.048 A 
ATOM     33  C   UNL     1      -0.803  -4.571   5.979  0.00  0.00    +0.003 A 
ATOM     34  C   UNL     1       0.154  -5.459   6.433  0.00  0.00    +0.000 A 
ATOM     35  C   UNL     1       1.356  -5.582   5.762  0.00  0.00    +0.000 A 
ATOM     36  C   UNL     1       1.601  -4.818   4.636  0.00  0.00    +0.000 A 
ATOM     37  C   UNL     1       0.642  -3.933   4.180  0.00  0.00    +0.003 A 
ENDBRANCH  31  32
ENDBRANCH   1  31
TORSDOF 10
