REMARK  Name = CHEMBL248221
REMARK  11 active torsions:
REMARK  status: ('A' for Active; 'I' for Inactive)
REMARK    1  A    between atoms: C_1  and  O_2
REMARK    2  A    between atoms: O_2  and  C_3
REMARK    3  A    between atoms: C_8  and  O_9
REMARK    4  A    between atoms: O_9  and  C_10
REMARK    5  A    between atoms: C_10  and  C_11
REMARK    6  A    between atoms: C_11  and  C_12
REMARK    7  A    between atoms: C_12  and  N_13
REMARK    8  A    between atoms: C_19  and  N_25
REMARK    9  A    between atoms: C_20  and  C_23
REMARK   10  A    between atoms: N_25  and  C_26
REMARK   11  A    between atoms: C_29  and  C_31
REMARK                            x       y       z     vdW  Elec       q    Type
REMARK                         _______ _______ _______ _____ _____    ______ ____
ROOT
ATOM      1  C   UNL     1      -1.484  -0.462  -0.897  0.00  0.00    +0.164 A 
ATOM      2  C   UNL     1      -2.575   0.212  -0.396  0.00  0.00    +0.077 A 
ATOM      3  C   UNL     1      -3.728  -0.501  -0.035  0.00  0.00    +0.076 A 
ATOM      4  C   UNL     1      -3.748  -1.907  -0.195  0.00  0.00    +0.026 A 
ATOM      5  C   UNL     1      -2.624  -2.570  -0.708  0.00  0.00    +0.061 A 
ATOM      6  C   UNL     1      -1.515  -1.854  -1.057  0.00  0.00    +0.163 A 
ATOM      7  C   UNL     1      -4.912  -2.623   0.170  0.00  0.00    +0.056 A 
ATOM      8  C   UNL     1      -5.998  -1.893   0.676  0.00  0.00    +0.091 A 
ATOM      9  C   UNL     1      -5.890  -0.498   0.801  0.00  0.00    +0.132 A 
ATOM     10  N   UNL     1      -4.801   0.139   0.455  0.00  0.00    -0.253 NA
ENDROOT
BRANCH   1  12
ATOM     11  C   UNL     1      -0.399   1.647  -1.059  0.00  0.00    +0.277 C 
ATOM     12  O   UNL     1      -0.369   0.230  -1.246  0.00  0.00    -0.491 OA
ENDBRANCH   1  12
BRANCH   8  13
ATOM     13  C   UNL     1      -7.204  -2.562   1.062  0.00  0.00    +0.103 C 
ATOM     14  N   UNL     1      -8.160  -3.093   1.367  0.00  0.00    -0.191 NA
ENDBRANCH   8  13
BRANCH   7  15
ATOM     15  N   UNL     1      -4.979  -3.994   0.032  0.00  0.00    -0.339 N 
ATOM     16  H   UNL     1      -4.168  -4.526   0.075  0.00  0.00    +0.146 HD
BRANCH  15  17
ATOM     17  C   UNL     1      -6.273  -4.648  -0.181  0.00  0.00    +0.078 C 
ATOM     18  C   UNL     1      -6.674  -5.755   0.797  0.00  0.00    +0.032 C 
ATOM     19  C   UNL     1      -6.260  -6.109  -0.634  0.00  0.00    +0.041 C 
BRANCH  19  20
ATOM     20  C   UNL     1      -7.345  -6.553  -1.582  0.00  0.00    -0.042 A 
ATOM     21  C   UNL     1      -8.672  -6.453  -1.209  0.00  0.00    +0.004 A 
ATOM     22  C   UNL     1      -9.667  -6.860  -2.078  0.00  0.00    +0.000 A 
ATOM     23  C   UNL     1      -9.334  -7.366  -3.321  0.00  0.00    +0.000 A 
ATOM     24  C   UNL     1      -8.007  -7.464  -3.694  0.00  0.00    +0.000 A 
ATOM     25  C   UNL     1      -7.012  -7.054  -2.826  0.00  0.00    +0.004 A 
ENDBRANCH  19  20
ENDBRANCH  15  17
ENDBRANCH   7  15
BRANCH   6  26
ATOM     26  O   UNL     1      -0.428  -2.499  -1.560  0.00  0.00    -0.488 OA
BRANCH  26  27
ATOM     27  C   UNL     1      -0.521  -3.918  -1.698  0.00  0.00    +0.230 C 
BRANCH  27  28
ATOM     28  C   UNL     1       0.787  -4.461  -2.275  0.00  0.00    +0.056 C 
BRANCH  28  29
ATOM     29  C   UNL     1       0.687  -5.981  -2.423  0.00  0.00    +0.088 C 
BRANCH  29  30
ATOM     30  N   UNL     1       1.944  -6.503  -2.977  0.00  0.00    -0.298 NA
ATOM     31  C   UNL     1       2.146  -6.036  -4.356  0.00  0.00    +0.112 C 
ATOM     32  C   UNL     1       3.491  -6.553  -4.872  0.00  0.00    +0.175 C 
ATOM     33  O   UNL     1       3.518  -7.979  -4.774  0.00  0.00    -0.377 OA
ATOM     34  C   UNL     1       3.325  -8.469  -3.444  0.00  0.00    +0.175 C 
ATOM     35  C   UNL     1       1.977  -7.971  -2.913  0.00  0.00    +0.112 C 
ENDBRANCH  29  30
ENDBRANCH  28  29
ENDBRANCH  27  28
ENDBRANCH  26  27
ENDBRANCH   6  26
TORSDOF 10
