REMARK  Name = CHEMBL201307
REMARK  12 active torsions:
REMARK  status: ('A' for Active; 'I' for Inactive)
REMARK    1  A    between atoms: C_1  and  O_2
REMARK    2  A    between atoms: O_2  and  C_3
REMARK    3  A    between atoms: C_8  and  O_9
REMARK    4  A    between atoms: O_9  and  C_10
REMARK    5  A    between atoms: C_10  and  C_11
REMARK    6  A    between atoms: C_11  and  C_12
REMARK    7  A    between atoms: C_12  and  N_13
REMARK    8  A    between atoms: C_16  and  C_19
REMARK    9  A    between atoms: C_19  and  O_20
REMARK   10  A    between atoms: C_29  and  C_31
REMARK   11  A    between atoms: C_31  and  C_32
REMARK   12  A    between atoms: N_34  and  C_35
REMARK                            x       y       z     vdW  Elec       q    Type
REMARK                         _______ _______ _______ _____ _____    ______ ____
ROOT
ATOM      1  C   UNL     1      -1.211  -0.654   0.025  0.00  0.00    +0.162 A 
ATOM      2  C   UNL     1      -2.360   0.085   0.032  0.00  0.00    +0.062 A 
ATOM      3  C   UNL     1      -3.601  -0.563   0.030  0.00  0.00    +0.044 A 
ATOM      4  C   UNL     1      -3.658  -1.979   0.022  0.00  0.00    +0.080 A 
ATOM      5  C   UNL     1      -2.468  -2.717   0.016  0.00  0.00    +0.078 A 
ATOM      6  C   UNL     1      -1.260  -2.055   0.011  0.00  0.00    +0.164 A 
ATOM      7  N   UNL     1      -4.861  -2.576   0.021  0.00  0.00    -0.235 NA
ATOM      8  C   UNL     1      -5.959  -1.858   0.027  0.00  0.00    +0.223 A 
ATOM      9  N   UNL     1      -5.954  -0.535   0.035  0.00  0.00    -0.220 NA
ATOM     10  C   UNL     1      -4.820   0.154   0.037  0.00  0.00    +0.135 A 
ATOM     11  N   UNL     1      -4.830   1.535   0.045  0.00  0.00    -0.278 N 
ATOM     12  C   UNL     1      -6.037   2.221   0.051  0.00  0.00    +0.164 A 
ATOM     13  N   UNL     1      -7.257   1.728   0.056  0.00  0.00    -0.233 NA
ATOM     14  C   UNL     1      -8.313   2.521   0.061  0.00  0.00    +0.124 A 
ATOM     15  C   UNL     1      -8.081   3.856   0.062  0.00  0.00    +0.020 A 
ATOM     16  S   UNL     1      -6.295   3.884   0.062  0.00  0.00    -0.057 S 
ATOM     17  H   UNL     1      -3.994   2.026   0.047  0.00  0.00    +0.155 HD
ENDROOT
BRANCH   1  19
ATOM     18  C   UNL     1      -0.022   1.405   0.041  0.00  0.00    +0.277 C 
ATOM     19  O   UNL     1      -0.006  -0.024   0.026  0.00  0.00    -0.491 OA
ENDBRANCH   1  19
BRANCH   6  20
ATOM     20  O   UNL     1      -0.103  -2.768  -0.001  0.00  0.00    -0.488 OA
BRANCH  20  21
ATOM     21  C   UNL     1      -0.219  -4.192  -0.015  0.00  0.00    +0.227 C 
BRANCH  21  22
ATOM     22  C   UNL     1       1.177  -4.817  -0.027  0.00  0.00    +0.022 C 
BRANCH  22  23
ATOM     23  C   UNL     1       1.053  -6.342  -0.042  0.00  0.00    -0.076 C 
BRANCH  23  24
ATOM     24  N   UNL     1       2.394  -6.942  -0.053  0.00  0.00    +0.380 N 
ATOM     25  C   UNL     1       3.076  -6.588  -1.304  0.00  0.00    -0.078 C 
ATOM     26  C   UNL     1       4.502  -7.142  -1.286  0.00  0.00    -0.013 C 
ATOM     27  C   UNL     1       4.449  -8.666  -1.146  0.00  0.00    +0.011 C 
ATOM     28  C   UNL     1       3.671  -9.026   0.123  0.00  0.00    -0.013 C 
ATOM     29  C   UNL     1       2.276  -8.401   0.053  0.00  0.00    -0.078 C 
ATOM     30  H   UNL     1       2.925  -6.591   0.729  0.00  0.00    -0.082 HD
BRANCH  27  31
ATOM     31  C   UNL     1       5.872  -9.221  -1.048  0.00  0.00    +0.159 C 
BRANCH  31  32
ATOM     32  O   UNL     1       5.827 -10.649  -1.034  0.00  0.00    -0.395 OA
ATOM     33  H   UNL     1       6.696 -11.069  -0.974  0.00  0.00    +0.209 HD
ENDBRANCH  31  32
ENDBRANCH  27  31
ENDBRANCH  23  24
ENDBRANCH  22  23
ENDBRANCH  21  22
ENDBRANCH  20  21
ENDBRANCH   6  20
BRANCH  15  34
ATOM     34  C   UNL     1      -9.059   5.002   0.067  0.00  0.00    +0.140 C 
BRANCH  34  35
ATOM     35  C   UNL     1      -9.380   5.383   1.490  0.00  0.00    +0.222 C 
ATOM     36  O   UNL     1      -8.864   4.782   2.409  0.00  0.00    -0.275 OA
ATOM     37  N   UNL     1     -10.240   6.390   1.741  0.00  0.00    -0.285 N 
ATOM     38  H   UNL     1     -10.600   6.914   1.008  0.00  0.00    +0.155 HD
BRANCH  37  39
ATOM     39  C   UNL     1     -10.612   6.680   3.058  0.00  0.00    +0.036 A 
ATOM     40  C   UNL     1     -11.903   7.110   3.337  0.00  0.00    +0.023 A 
ATOM     41  C   UNL     1     -12.269   7.396   4.638  0.00  0.00    +0.005 A 
ATOM     42  C   UNL     1     -11.352   7.255   5.663  0.00  0.00    +0.038 A 
ATOM     43  C   UNL     1     -10.064   6.826   5.389  0.00  0.00    +0.125 A 
ATOM     44  C   UNL     1      -9.694   6.533   4.088  0.00  0.00    +0.061 A 
ATOM     45  F   UNL     1      -9.170   6.689   6.393  0.00  0.00    -0.205 F 
ENDBRANCH  37  39
ENDBRANCH  34  35
ENDBRANCH  15  34
TORSDOF 11
