REMARK  Name = CHEMBL511623
REMARK  4 active torsions:
REMARK  status: ('A' for Active; 'I' for Inactive)
REMARK    1  A    between atoms: C_6  and  N_7
REMARK    2  A    between atoms: N_17  and  C_18
REMARK    3  A    between atoms: C_18  and  C_19
REMARK    4  A    between atoms: C_19  and  N_20
REMARK                            x       y       z     vdW  Elec       q    Type
REMARK                         _______ _______ _______ _____ _____    ______ ____
ROOT
ATOM      1  N   UNL     1      -1.199  -0.721   0.010  0.00  0.00    -0.298 N 
ATOM      2  C   UNL     1      -1.183  -2.103  -0.102  0.00  0.00    +0.142 A 
ATOM      3  C   UNL     1      -2.356  -2.818  -0.205  0.00  0.00    +0.099 A 
ATOM      4  C   UNL     1      -2.354  -4.227  -0.320  0.00  0.00    +0.174 A 
ATOM      5  N   UNL     1      -1.129  -4.806  -0.321  0.00  0.00    -0.215 NA
ATOM      6  C   UNL     1      -0.036  -4.092  -0.221  0.00  0.00    +0.225 A 
ATOM      7  N   UNL     1      -0.029  -2.776  -0.119  0.00  0.00    -0.219 NA
ATOM      8  N   UNL     1      -3.555  -4.808  -0.412  0.00  0.00    -0.205 NA
ATOM      9  C   UNL     1      -4.679  -4.118  -0.398  0.00  0.00    +0.161 A 
ATOM     10  S   UNL     1      -4.088  -2.438  -0.239  0.00  0.00    -0.047 S 
ATOM     11  N   UNL     1      -5.976  -4.576  -0.484  0.00  0.00    -0.322 N 
ATOM     12  H   UNL     1      -2.037  -0.238  -0.068  0.00  0.00    +0.154 HD
ATOM     13  H   UNL     1      -6.715  -3.947  -0.461  0.00  0.00    +0.148 HD
ENDROOT
BRANCH   1  19
ATOM     14  C   UNL     1       0.178   1.234  -0.324  0.00  0.00    +0.026 A 
ATOM     15  C   UNL     1       1.355   1.922  -0.101  0.00  0.00    +0.041 A 
ATOM     16  C   UNL     1       2.349   1.359   0.681  0.00  0.00    +0.142 A 
ATOM     17  C   UNL     1       2.166   0.104   1.241  0.00  0.00    +0.078 A 
ATOM     18  C   UNL     1       0.991  -0.587   1.019  0.00  0.00    +0.046 A 
ATOM     19  C   UNL     1      -0.008  -0.023   0.235  0.00  0.00    +0.034 A 
ATOM     20 CL   UNL     1       3.415  -0.599   2.220  0.00  0.00    -0.081 Cl
ATOM     21  F   UNL     1       3.500   2.033   0.898  0.00  0.00    -0.204 F 
ENDBRANCH   1  19
BRANCH  11  22
ATOM     22  C   UNL     1      -6.240  -6.011  -0.611  0.00  0.00    +0.119 C 
BRANCH  22  23
ATOM     23  C   UNL     1      -7.750  -6.247  -0.688  0.00  0.00    +0.103 C 
BRANCH  23  24
ATOM     24  N   UNL     1      -8.014  -7.687  -0.815  0.00  0.00    -0.297 NA
ATOM     25  C   UNL     1      -7.521  -8.201  -2.101  0.00  0.00    +0.112 C 
ATOM     26  C   UNL     1      -7.763  -9.711  -2.167  0.00  0.00    +0.175 C 
ATOM     27  O   UNL     1      -9.155  -9.975  -1.977  0.00  0.00    -0.377 OA
ATOM     28  C   UNL     1      -9.669  -9.488  -0.734  0.00  0.00    +0.175 C 
ATOM     29  C   UNL     1      -9.447  -7.976  -0.654  0.00  0.00    +0.112 C 
ENDBRANCH  23  24
ENDBRANCH  22  23
ENDBRANCH  11  22
TORSDOF 4
