REMARK  Name = CHEMBL1172843
REMARK  8 active torsions:
REMARK  status: ('A' for Active; 'I' for Inactive)
REMARK    1  A    between atoms: C_2  and  C_3
REMARK    2  A    between atoms: N_5  and  C_6
REMARK    3  A    between atoms: C_10  and  C_12
REMARK    4  A    between atoms: C_20  and  C_21
REMARK    5  A    between atoms: N_27  and  CA_28
REMARK    6  A    between atoms: CA_28  and  C_30
REMARK    7  A    between atoms: CA_28  and  C_32
REMARK    8  A    between atoms: C_30  and  O_31
REMARK                            x       y       z     vdW  Elec       q    Type
REMARK                         _______ _______ _______ _____ _____    ______ ____
ROOT
ATOM      1  C   UNL     1       3.682  -6.382   0.122  0.00  0.00    +0.041 A 
ATOM      2  C   UNL     1       4.311  -7.264  -0.869  0.00  0.00    +0.088 A 
ATOM      3  C   UNL     1       5.124  -7.076  -1.995  0.00  0.00    +0.134 A 
ATOM      4  N   UNL     1       5.517  -8.150  -2.676  0.00  0.00    -0.220 NA
ATOM      5  C   UNL     1       5.152  -9.361  -2.300  0.00  0.00    +0.227 A 
ATOM      6  N   UNL     1       4.389  -9.581  -1.250  0.00  0.00    -0.200 NA
ATOM      7  C   UNL     1       3.946  -8.571  -0.505  0.00  0.00    +0.233 A 
ATOM      8  O   UNL     1       3.175  -8.490   0.593  0.00  0.00    -0.436 OA
ATOM      9  C   UNL     1       3.013  -7.210   0.982  0.00  0.00    +0.146 A 
ATOM     10  N   UNL     1       5.507  -5.807  -2.389  0.00  0.00    -0.319 N 
ATOM     11  H   UNL     1       5.213  -5.033  -1.885  0.00  0.00    +0.148 HD
ENDROOT
BRANCH   1  16
ATOM     12  C   UNL     1       2.702  -2.752   0.014  0.00  0.00    +0.034 A 
ATOM     13  C   UNL     1       3.917  -2.138   0.296  0.00  0.00    +0.023 A 
ATOM     14  C   UNL     1       5.047  -2.902   0.520  0.00  0.00    +0.002 A 
ATOM     15  C   UNL     1       4.976  -4.280   0.465  0.00  0.00    +0.009 A 
ATOM     16  C   UNL     1       3.761  -4.905   0.182  0.00  0.00    -0.012 A 
ATOM     17  C   UNL     1       2.620  -4.134  -0.038  0.00  0.00    +0.032 A 
BRANCH  12  20
ATOM     18  C   UNL     1       0.620  -2.394  -1.079  0.00  0.00    +0.241 C 
ATOM     19  O   UNL     1       0.802  -3.405  -1.732  0.00  0.00    -0.271 OA
ATOM     20  N   UNL     1       1.562  -1.974  -0.211  0.00  0.00    -0.282 N 
ATOM     21  H   UNL     1       1.448  -1.132   0.258  0.00  0.00    +0.155 HD
BRANCH  18  23
ATOM     22  C   UNL     1      -1.556  -2.046  -2.095  0.00  0.00    +0.013 C 
ATOM     23  C   UNL     1      -0.627  -1.631  -1.238  0.00  0.00    +0.060 C 
ENDBRANCH  18  23
ENDBRANCH  12  20
ENDBRANCH   1  16
BRANCH   9  24
ATOM     24  C   UNL     1       2.230  -6.769   2.152  0.00  0.00    +0.018 A 
ATOM     25  C   UNL     1       0.951  -7.285   2.375  0.00  0.00    +0.011 A 
ATOM     26  C   UNL     1       0.224  -6.867   3.471  0.00  0.00    +0.001 A 
ATOM     27  C   UNL     1       0.760  -5.940   4.348  0.00  0.00    +0.000 A 
ATOM     28  C   UNL     1       2.026  -5.424   4.132  0.00  0.00    +0.001 A 
ATOM     29  C   UNL     1       2.766  -5.837   3.044  0.00  0.00    +0.011 A 
ENDBRANCH   9  24
BRANCH  10  30
ATOM     30  CA  UNL     1       6.357  -5.632  -3.570  0.00  0.00    +0.127 C 
BRANCH  30  31
ATOM     31  C   UNL     1       7.118  -4.336  -3.453  0.00  0.00    -0.025 A 
ATOM     32  C   UNL     1       6.495  -3.212  -2.944  0.00  0.00    +0.005 A 
ATOM     33  C   UNL     1       7.193  -2.024  -2.837  0.00  0.00    +0.000 A 
ATOM     34  C   UNL     1       8.514  -1.960  -3.239  0.00  0.00    +0.000 A 
ATOM     35  C   UNL     1       9.137  -3.084  -3.748  0.00  0.00    +0.000 A 
ATOM     36  C   UNL     1       8.440  -4.273  -3.851  0.00  0.00    +0.005 A 
ENDBRANCH  30  31
BRANCH  30  37
ATOM     37  C   UNL     1       5.484  -5.600  -4.826  0.00  0.00    +0.182 C 
BRANCH  37  38
ATOM     38  O   UNL     1       4.642  -4.446  -4.792  0.00  0.00    -0.393 OA
ATOM     39  H   UNL     1       4.060  -4.361  -5.560  0.00  0.00    +0.209 HD
ENDBRANCH  37  38
ENDBRANCH  30  37
ENDBRANCH  10  30
TORSDOF 8
