REMARK  Name = CHEMBL93051
REMARK  1 active torsions:
REMARK  status: ('A' for Active; 'I' for Inactive)
REMARK    1  A    between atoms: C_3  and  N_8
REMARK                            x       y       z     vdW  Elec       q    Type
REMARK                         _______ _______ _______ _____ _____    ______ ____
ROOT
ATOM      1  N   UNL     1       3.583   2.124  -0.021  0.00  0.00    -0.299 N 
ATOM      2  C   UNL     1       4.786   1.452   0.068  0.00  0.00    +0.134 A 
ATOM      3  C   UNL     1       6.007   2.160   0.173  0.00  0.00    +0.044 A 
ATOM      4  C   UNL     1       6.053   3.559   0.190  0.00  0.00    +0.063 A 
ATOM      5  C   UNL     1       7.256   4.198   0.292  0.00  0.00    +0.167 A 
ATOM      6  C   UNL     1       8.450   3.464   0.382  0.00  0.00    +0.168 A 
ATOM      7  C   UNL     1       8.430   2.087   0.368  0.00  0.00    +0.078 A 
ATOM      8  C   UNL     1       7.207   1.413   0.263  0.00  0.00    +0.080 A 
ATOM      9  N   UNL     1       7.135   0.073   0.244  0.00  0.00    -0.235 NA
ATOM     10  C   UNL     1       5.974  -0.529   0.143  0.00  0.00    +0.223 A 
ATOM     11  N   UNL     1       4.828   0.127   0.063  0.00  0.00    -0.220 NA
ATOM     12  O   UNL     1       9.491   4.343   0.474  0.00  0.00    -0.453 OA
ATOM     13  C   UNL     1       8.969   5.607   0.025  0.00  0.00    +0.466 C 
ATOM     14  O   UNL     1       7.564   5.529   0.328  0.00  0.00    -0.453 OA
ATOM     15  H   UNL     1       3.571   3.091  -0.094  0.00  0.00    +0.154 HD
ENDROOT
BRANCH   1  18
ATOM     16  C   UNL     1       1.088  -0.466   0.744  0.00  0.00    +0.003 A 
ATOM     17  C   UNL     1       2.277   0.238   0.731  0.00  0.00    +0.023 A 
ATOM     18  C   UNL     1       2.381   1.410  -0.007  0.00  0.00    +0.033 A 
ATOM     19  C   UNL     1       1.289   1.872  -0.730  0.00  0.00    +0.038 A 
ATOM     20  C   UNL     1       0.102   1.163  -0.713  0.00  0.00    +0.020 A 
ATOM     21  C   UNL     1       0.002  -0.004   0.023  0.00  0.00    +0.015 A 
ATOM     22 BR   UNL     1      -1.386   1.791  -1.696  0.00  0.00    -0.050 Br
ENDBRANCH   1  18
TORSDOF 1
