REMARK  Name = CHEMBL429300
REMARK  14 active torsions:
REMARK  status: ('A' for Active; 'I' for Inactive)
REMARK    1  A    between atoms: C_1  and  C_2
REMARK    2  A    between atoms: C_2  and  N_3
REMARK    3  A    between atoms: N_3  and  C_4
REMARK    4  A    between atoms: N_3  and  C_6
REMARK    5  A    between atoms: C_4  and  C_5
REMARK    6  A    between atoms: C_6  and  C_7
REMARK    7  A    between atoms: C_6  and  C_8
REMARK    8  A    between atoms: C_6  and  C_15
REMARK    9  A    between atoms: C_8  and  C_9
REMARK   10  A    between atoms: C_16  and  C_17
REMARK   11  A    between atoms: C_20  and  O_29
REMARK   12  A    between atoms: C_21  and  O_27
REMARK   13  A    between atoms: O_27  and  C_28
REMARK   14  A    between atoms: O_29  and  C_30
REMARK                            x       y       z     vdW  Elec       q    Type
REMARK                         _______ _______ _______ _____ _____    ______ ____
ROOT
ATOM      1  C   UNL     1      -0.179  -2.137  -0.971  0.00  0.00    -0.073 C 
ATOM      2  C   UNL     1       0.571  -2.256  -1.867  0.00  0.00    -0.044 C 
ENDROOT
BRANCH   2   3
ATOM      3  C   UNL     1       1.485  -2.400  -2.959  0.00  0.00    +0.124 A 
ATOM      4  C   UNL     1       1.943  -1.269  -3.681  0.00  0.00    +0.038 A 
ATOM      5  C   UNL     1       1.530   0.030  -3.364  0.00  0.00    +0.062 A 
ATOM      6  C   UNL     1       2.004   1.084  -4.093  0.00  0.00    +0.162 A 
ATOM      7  C   UNL     1       2.898   0.877  -5.154  0.00  0.00    +0.164 A 
ATOM      8  C   UNL     1       3.317  -0.381  -5.484  0.00  0.00    +0.077 A 
ATOM      9  C   UNL     1       2.847  -1.480  -4.752  0.00  0.00    +0.079 A 
ATOM     10  N   UNL     1       3.228  -2.734  -5.035  0.00  0.00    -0.235 NA
ATOM     11  C   UNL     1       2.772  -3.744  -4.333  0.00  0.00    +0.223 A 
ATOM     12  N   UNL     1       1.932  -3.598  -3.323  0.00  0.00    -0.227 NA
BRANCH   7  13
ATOM     13  O   UNL     1       3.354   1.942  -5.864  0.00  0.00    -0.491 OA
ATOM     14  C   UNL     1       4.263   1.669  -6.932  0.00  0.00    +0.277 C 
ENDBRANCH   7  13
BRANCH   6  15
ATOM     15  O   UNL     1       1.604   2.347  -3.788  0.00  0.00    -0.491 OA
ATOM     16  C   UNL     1       0.692   2.492  -2.697  0.00  0.00    +0.277 C 
ENDBRANCH   6  15
ENDBRANCH   2   3
BRANCH   1  17
ATOM     17  C   UNL     1      -1.119  -1.989   0.152  0.00  0.00    +0.085 C 
ATOM     18  C   UNL     1      -2.399  -2.772  -0.147  0.00  0.00    +0.042 C 
BRANCH  17  19
ATOM     19  N   UNL     1      -1.444  -0.568   0.334  0.00  0.00    -0.287 NA
BRANCH  19  21
ATOM     20  C   UNL     1      -0.576   1.681   0.763  0.00  0.00    +0.020 C 
ATOM     21  C   UNL     1      -0.228   0.256   0.327  0.00  0.00    +0.082 C 
ENDBRANCH  19  21
BRANCH  19  22
ATOM     22  C   UNL     1      -2.395  -0.111  -0.689  0.00  0.00    +0.082 C 
ATOM     23  C   UNL     1      -1.757  -0.243  -2.073  0.00  0.00    +0.020 C 
ENDBRANCH  19  22
ENDBRANCH  17  19
BRANCH  17  24
ATOM     24  C   UNL     1      -0.476  -2.531   1.430  0.00  0.00    +0.070 C 
BRANCH  24  25
ATOM     25  C   UNL     1      -1.438  -2.379   2.580  0.00  0.00    -0.045 A 
ATOM     26  C   UNL     1      -1.432  -1.223   3.338  0.00  0.00    +0.004 A 
ATOM     27  C   UNL     1      -2.314  -1.084   4.393  0.00  0.00    +0.000 A 
ATOM     28  C   UNL     1      -3.203  -2.100   4.690  0.00  0.00    +0.000 A 
ATOM     29  C   UNL     1      -3.209  -3.256   3.932  0.00  0.00    +0.000 A 
ATOM     30  C   UNL     1      -2.330  -3.394   2.874  0.00  0.00    +0.004 A 
ENDBRANCH  24  25
ENDBRANCH  17  24
ENDBRANCH   1  17
TORSDOF 9
