REMARK  Name = CHEMBL14515
REMARK  13 active torsions:
REMARK  status: ('A' for Active; 'I' for Inactive)
REMARK    1  A    between atoms: C_1  and  S_2
REMARK    2  A    between atoms: S_2  and  C_5
REMARK    3  A    between atoms: C_5  and  N_6
REMARK    4  A    between atoms: N_6  and  C_7
REMARK    5  A    between atoms: C_7  and  C_8
REMARK    6  A    between atoms: C_8  and  C_9
REMARK    7  A    between atoms: C_9  and  C_10
REMARK    8  A    between atoms: C_10  and  O_11
REMARK    9  A    between atoms: O_11  and  C_12
REMARK   10  A    between atoms: C_18  and  N_22
REMARK   11  A    between atoms: N_22  and  C_23
REMARK   12  A    between atoms: N_31  and  C_32
REMARK   13  A    between atoms: C_32  and  C_33
REMARK                            x       y       z     vdW  Elec       q    Type
REMARK                         _______ _______ _______ _____ _____    ______ ____
ROOT
ATOM      1  C   UNL     1       8.834  -0.035  -4.882  0.00  0.00    +0.121 A 
ATOM      2  C   UNL     1       9.424   0.636  -3.809  0.00  0.00    +0.048 A 
ATOM      3  C   UNL     1      10.639   1.236  -3.940  0.00  0.00    +0.032 A 
ATOM      4  C   UNL     1      11.314   1.183  -5.167  0.00  0.00    +0.076 A 
ATOM      5  C   UNL     1      10.721   0.503  -6.259  0.00  0.00    +0.044 A 
ATOM      6  C   UNL     1       9.474  -0.111  -6.101  0.00  0.00    +0.059 A 
ATOM      7  C   UNL     1      11.427   0.465  -7.487  0.00  0.00    +0.134 A 
ATOM      8  N   UNL     1      12.607   1.068  -7.550  0.00  0.00    -0.220 NA
ATOM      9  C   UNL     1      13.121   1.692  -6.502  0.00  0.00    +0.223 A 
ATOM     10  N   UNL     1      12.513   1.759  -5.342  0.00  0.00    -0.235 NA
ENDROOT
BRANCH   7  11
ATOM     11  N   UNL     1      10.902  -0.182  -8.586  0.00  0.00    -0.299 N 
ATOM     12  H   UNL     1      10.004  -0.547  -8.551  0.00  0.00    +0.154 HD
BRANCH  11  13
ATOM     13  C   UNL     1      11.665  -0.313  -9.752  0.00  0.00    +0.033 A 
ATOM     14  C   UNL     1      13.043  -0.515  -9.662  0.00  0.00    +0.025 A 
ATOM     15  C   UNL     1      13.805  -0.644 -10.787  0.00  0.00    +0.030 A 
ATOM     16  C   UNL     1      13.211  -0.575 -12.044  0.00  0.00    +0.069 A 
ATOM     17  C   UNL     1      11.822  -0.371 -12.148  0.00  0.00    +0.021 A 
ATOM     18  C   UNL     1      11.050  -0.246 -10.987  0.00  0.00    +0.034 A 
ATOM     19  C   UNL     1      11.515  -0.347 -13.575  0.00  0.00    +0.143 A 
ATOM     20  N   UNL     1      12.630  -0.521 -14.225  0.00  0.00    -0.178 NA
ATOM     21  N   UNL     1      13.693  -0.665 -13.326  0.00  0.00    -0.259 N 
BRANCH  21  22
ATOM     22  C   UNL     1      15.095  -0.877 -13.694  0.00  0.00    +0.179 C 
BRANCH  22  23
ATOM     23  C   UNL     1      15.368  -2.355 -13.800  0.00  0.00    -0.023 A 
ATOM     24  C   UNL     1      15.789  -3.061 -12.688  0.00  0.00    +0.005 A 
ATOM     25  C   UNL     1      16.041  -4.417 -12.783  0.00  0.00    +0.003 A 
ATOM     26  C   UNL     1      15.872  -5.068 -13.990  0.00  0.00    +0.038 A 
ATOM     27  C   UNL     1      15.451  -4.362 -15.104  0.00  0.00    +0.124 A 
ATOM     28  C   UNL     1      15.194  -3.005 -15.006  0.00  0.00    +0.043 A 
ATOM     29  F   UNL     1      15.287  -4.998 -16.285  0.00  0.00    -0.205 F 
ENDBRANCH  22  23
ENDBRANCH  21  22
ENDBRANCH  11  13
ENDBRANCH   7  11
BRANCH   1  30
ATOM     30  O   UNL     1       7.620  -0.625  -4.722  0.00  0.00    -0.492 OA
BRANCH  30  31
ATOM     31  C   UNL     1       7.008  -0.512  -3.436  0.00  0.00    +0.229 C 
BRANCH  31  32
ATOM     32  C   UNL     1       5.658  -1.232  -3.447  0.00  0.00    +0.039 C 
BRANCH  32  33
ATOM     33  C   UNL     1       5.003  -1.111  -2.070  0.00  0.00    -0.016 C 
BRANCH  33  34
ATOM     34  C   UNL     1       3.653  -1.831  -2.082  0.00  0.00    -0.080 C 
BRANCH  34  35
ATOM     35  N   UNL     1       3.025  -1.714  -0.759  0.00  0.00    +0.392 N 
ATOM     36  H   UNL     1       2.884  -0.740  -0.539  0.00  0.00    -0.084 HD
ATOM     37  H   UNL     1       3.623  -2.133  -0.064  0.00  0.00    -0.084 HD
BRANCH  35  38
ATOM     38  C   UNL     1       1.728  -2.406  -0.771  0.00  0.00    +0.087 C 
BRANCH  38  40
ATOM     39  C   UNL     1       0.647  -0.479   1.005  0.00  0.00    +0.191 C 
ATOM     40  S   UNL     1       0.952  -2.262   0.862  0.00  0.00    -0.049 S 
ATOM     41  O   UNL     1       1.905  -2.635   1.848  0.00  0.00    -0.176 OA
ATOM     42  O   UNL     1      -0.301  -2.930   0.825  0.00  0.00    -0.176 OA
ENDBRANCH  38  40
ENDBRANCH  35  38
ENDBRANCH  34  35
ENDBRANCH  33  34
ENDBRANCH  32  33
ENDBRANCH  31  32
ENDBRANCH  30  31
ENDBRANCH   1  30
TORSDOF 12
