REMARK  Name = CHEMBL204420
REMARK  7 active torsions:
REMARK  status: ('A' for Active; 'I' for Inactive)
REMARK    1  A    between atoms: C_1  and  N_2
REMARK    2  A    between atoms: N_5  and  C_11
REMARK    3  A    between atoms: C_6  and  C_8
REMARK    4  A    between atoms: C_11  and  C_12
REMARK    5  A    between atoms: C_17  and  O_18
REMARK    6  A    between atoms: O_18  and  C_19
REMARK    7  A    between atoms: N_24  and  C_25
REMARK                            x       y       z     vdW  Elec       q    Type
REMARK                         _______ _______ _______ _____ _____    ______ ____
ROOT
ATOM      1  C   UNL     1      -1.768  -5.199   1.367  0.00  0.00    +0.009 A 
ATOM      2  C   UNL     1      -2.251  -5.345   2.632  0.00  0.00    +0.022 A 
ATOM      3  C   UNL     1      -3.530  -5.876   2.830  0.00  0.00    +0.041 A 
ATOM      4  C   UNL     1      -4.316  -6.259   1.715  0.00  0.00    +0.079 A 
ATOM      5  C   UNL     1      -3.799  -6.100   0.424  0.00  0.00    +0.074 A 
ATOM      6  C   UNL     1      -2.537  -5.569   0.260  0.00  0.00    +0.127 A 
ATOM      7  N   UNL     1      -5.540  -6.765   1.931  0.00  0.00    -0.235 NA
ATOM      8  C   UNL     1      -5.997  -6.901   3.154  0.00  0.00    +0.223 A 
ATOM      9  N   UNL     1      -5.300  -6.557   4.225  0.00  0.00    -0.220 NA
ATOM     10  C   UNL     1      -4.079  -6.047   4.124  0.00  0.00    +0.134 A 
ATOM     11  N   UNL     1      -3.364  -5.693   5.249  0.00  0.00    -0.297 N 
ATOM     12  H   UNL     1      -2.514  -5.235   5.159  0.00  0.00    +0.154 HD
ENDROOT
BRANCH  11  13
ATOM     13  C   UNL     1      -3.865  -5.996   6.520  0.00  0.00    +0.070 A 
ATOM     14  C   UNL     1      -4.846  -6.967   6.668  0.00  0.00    +0.026 A 
ATOM     15  C   UNL     1      -5.339  -7.264   7.924  0.00  0.00    +0.003 A 
ATOM     16  C   UNL     1      -4.856  -6.596   9.035  0.00  0.00    +0.023 A 
ATOM     17  C   UNL     1      -3.878  -5.628   8.893  0.00  0.00    +0.078 A 
ATOM     18  C   UNL     1      -3.377  -5.329   7.638  0.00  0.00    +0.163 A 
ATOM     19  F   UNL     1      -2.418  -4.387   7.500  0.00  0.00    -0.202 F 
ATOM     20 CL   UNL     1      -3.276  -4.792  10.290  0.00  0.00    -0.081 Cl
ENDBRANCH  11  13
BRANCH   6  21
ATOM     21  O   UNL     1      -2.034  -5.408  -0.991  0.00  0.00    -0.495 OA
ATOM     22  C   UNL     1      -2.868  -5.804  -2.081  0.00  0.00    +0.277 C 
ENDBRANCH   6  21
BRANCH   1  23
ATOM     23  C   UNL     1      -0.390  -4.627   1.157  0.00  0.00    +0.124 C 
BRANCH  23  28
ATOM     24  C   UNL     1      -0.111   0.511  -1.139  0.00  0.00    -0.096 C 
ATOM     25  N   UNL     1       0.030  -0.917  -0.825  0.00  0.00    +0.380 N 
ATOM     26  C   UNL     1      -1.296  -1.549  -0.816  0.00  0.00    -0.064 C 
ATOM     27  C   UNL     1      -1.149  -3.041  -0.508  0.00  0.00    +0.067 C 
ATOM     28  N   UNL     1      -0.499  -3.206   0.799  0.00  0.00    -0.290 NA
ATOM     29  C   UNL     1       0.820  -2.557   0.813  0.00  0.00    +0.126 C 
ATOM     30  C   UNL     1       0.656  -1.069   0.494  0.00  0.00    -0.051 C 
ATOM     31  H   UNL     1       0.608  -1.359  -1.525  0.00  0.00    -0.082 HD
BRANCH  29  32
ATOM     32  C   UNL     1       1.444  -2.714   2.176  0.00  0.00    +0.226 C 
ATOM     33  O   UNL     1       0.747  -2.968   3.136  0.00  0.00    -0.274 OA
ATOM     34  N   UNL     1       2.775  -2.572   2.328  0.00  0.00    -0.328 N 
ATOM     35  H   UNL     1       3.332  -2.369   1.560  0.00  0.00    +0.145 HD
ATOM     36  H   UNL     1       3.176  -2.673   3.205  0.00  0.00    +0.145 HD
ENDBRANCH  29  32
ENDBRANCH  23  28
ENDBRANCH   1  23
TORSDOF 5
