REMARK  Name = CHEMBL461114
REMARK  7 active torsions:
REMARK  status: ('A' for Active; 'I' for Inactive)
REMARK    1  A    between atoms: C_4  and  C_7
REMARK    2  A    between atoms: C_7  and  O_8
REMARK    3  A    between atoms: O_8  and  C_9
REMARK    4  A    between atoms: C_12  and  N_16
REMARK    5  A    between atoms: C_18  and  C_24
REMARK    6  A    between atoms: C_19  and  N_23
REMARK    7  A    between atoms: N_26  and  C_27
REMARK                            x       y       z     vdW  Elec       q    Type
REMARK                         _______ _______ _______ _____ _____    ______ ____
ROOT
ATOM      1  N   UNL     1       8.679  -3.906   1.866  0.00  0.00    -0.299 N 
ATOM      2  C   UNL     1       9.268  -3.905   3.113  0.00  0.00    +0.140 A 
ATOM      3  C   UNL     1      10.603  -4.325   3.277  0.00  0.00    +0.116 A 
ATOM      4  C   UNL     1      11.147  -4.301   4.576  0.00  0.00    +0.133 A 
ATOM      5  N   UNL     1      10.383  -3.886   5.583  0.00  0.00    -0.220 NA
ATOM      6  C   UNL     1       9.139  -3.503   5.380  0.00  0.00    +0.225 A 
ATOM      7  N   UNL     1       8.587  -3.503   4.183  0.00  0.00    -0.220 NA
ATOM      8  H   UNL     1       9.207  -4.120   1.080  0.00  0.00    +0.154 HD
ENDROOT
BRANCH   1  12
ATOM      9  C   UNL     1       4.631  -2.988   1.468  0.00  0.00    +0.139 A 
ATOM     10  C   UNL     1       5.522  -2.644   0.463  0.00  0.00    +0.049 A 
ATOM     11  C   UNL     1       6.863  -2.947   0.594  0.00  0.00    +0.027 A 
ATOM     12  C   UNL     1       7.320  -3.598   1.733  0.00  0.00    +0.034 A 
ATOM     13  C   UNL     1       6.428  -3.942   2.739  0.00  0.00    +0.047 A 
ATOM     14  C   UNL     1       5.087  -3.633   2.609  0.00  0.00    +0.084 A 
ATOM     15 CL   UNL     1       3.972  -4.058   3.870  0.00  0.00    -0.080 Cl
BRANCH   9  16
ATOM     16  O   UNL     1       3.311  -2.689   1.338  0.00  0.00    -0.486 OA
BRANCH  16  17
ATOM     17  C   UNL     1       2.911  -2.025   0.138  0.00  0.00    +0.264 C 
BRANCH  17  21
ATOM     18  C   UNL     1      -1.301  -1.321   0.232  0.00  0.00    +0.000 A 
ATOM     19  C   UNL     1      -0.431  -0.375   0.741  0.00  0.00    +0.000 A 
ATOM     20  C   UNL     1       0.932  -0.603   0.711  0.00  0.00    +0.007 A 
ATOM     21  C   UNL     1       1.425  -1.777   0.172  0.00  0.00    -0.010 A 
ATOM     22  C   UNL     1       0.555  -2.723  -0.337  0.00  0.00    +0.007 A 
ATOM     23  C   UNL     1      -0.808  -2.494  -0.308  0.00  0.00    +0.000 A 
ENDBRANCH  17  21
ENDBRANCH  16  17
ENDBRANCH   9  16
ENDBRANCH   1  12
BRANCH   3  24
ATOM     24  C   UNL     1      11.402  -4.774   2.128  0.00  0.00    +0.255 C 
ATOM     25  O   UNL     1      12.063  -3.972   1.496  0.00  0.00    -0.270 OA
ATOM     26  N   UNL     1      11.403  -6.075   1.776  0.00  0.00    -0.281 N 
ATOM     27  H   UNL     1      10.824  -6.703   2.236  0.00  0.00    +0.155 HD
BRANCH  26  28
ATOM     28  C   UNL     1      12.239  -6.520   0.746  0.00  0.00    +0.034 A 
ATOM     29  C   UNL     1      11.824  -7.546  -0.093  0.00  0.00    +0.023 A 
ATOM     30  C   UNL     1      12.651  -7.983  -1.109  0.00  0.00    +0.002 A 
ATOM     31  C   UNL     1      13.892  -7.400  -1.291  0.00  0.00    +0.000 A 
ATOM     32  C   UNL     1      14.308  -6.378  -0.457  0.00  0.00    +0.002 A 
ATOM     33  C   UNL     1      13.483  -5.933   0.557  0.00  0.00    +0.023 A 
ENDBRANCH  26  28
ENDBRANCH   3  24
BRANCH   4  34
ATOM     34  N   UNL     1      12.448  -4.700   4.800  0.00  0.00    -0.342 N 
ATOM     35  H   UNL     1      12.997  -5.001   4.059  0.00  0.00    +0.144 HD
ATOM     36  H   UNL     1      12.814  -4.680   5.698  0.00  0.00    +0.144 HD
ENDBRANCH   4  34
TORSDOF 7
