REMARK  Name = CHEMBL138125
REMARK  6 active torsions:
REMARK  status: ('A' for Active; 'I' for Inactive)
REMARK    1  A    between atoms: C_5  and  C_7
REMARK    2  A    between atoms: C_7  and  N_8
REMARK    3  A    between atoms: N_9  and  N_10
REMARK    4  A    between atoms: N_10  and  C_11
REMARK    5  A    between atoms: C_17  and  N_21
REMARK    6  A    between atoms: N_21  and  C_22
REMARK                            x       y       z     vdW  Elec       q    Type
REMARK                         _______ _______ _______ _____ _____    ______ ____
ROOT
ATOM      1  C   UNL     1       3.247  -5.162  -3.319  0.00  0.00    +0.051 A 
ATOM      2  C   UNL     1       4.234  -5.471  -2.378  0.00  0.00    +0.027 A 
ATOM      3  C   UNL     1       5.417  -6.027  -2.761  0.00  0.00    +0.030 A 
ATOM      4  C   UNL     1       5.655  -6.296  -4.116  0.00  0.00    +0.076 A 
ATOM      5  C   UNL     1       4.658  -5.987  -5.074  0.00  0.00    +0.042 A 
ATOM      6  C   UNL     1       3.449  -5.420  -4.660  0.00  0.00    +0.038 A 
ATOM      7  C   UNL     1       4.928  -6.271  -6.436  0.00  0.00    +0.134 A 
ATOM      8  N   UNL     1       6.098  -6.813  -6.743  0.00  0.00    -0.220 NA
ATOM      9  C   UNL     1       6.999  -7.085  -5.812  0.00  0.00    +0.223 A 
ATOM     10  N   UNL     1       6.805  -6.843  -4.537  0.00  0.00    -0.235 NA
ENDROOT
BRANCH   1  11
ATOM     11  N   UNL     1       2.042  -4.592  -2.897  0.00  0.00    -0.222 N 
ATOM     12  H   UNL     1       1.352  -4.380  -3.546  0.00  0.00    +0.176 HD
BRANCH  11  14
ATOM     13  N   UNL     1       0.761  -3.821  -1.164  0.00  0.00    -0.288 N 
ATOM     14  N   UNL     1       1.830  -4.327  -1.538  0.00  0.00    -0.106 NA
ATOM     15  H   UNL     1       0.072  -3.609  -1.812  0.00  0.00    +0.184 HD
BRANCH  13  16
ATOM     16  C   UNL     1       0.540  -3.545   0.258  0.00  0.00    +0.191 C 
BRANCH  16  21
ATOM     17  C   UNL     1      -1.204  -0.228   0.669  0.00  0.00    +0.003 A 
ATOM     18  C   UNL     1      -0.098   0.599   0.799  0.00  0.00    +0.020 A 
ATOM     19  C   UNL     1       1.167   0.044   0.749  0.00  0.00    +0.111 A 
ATOM     20  N   UNL     1       1.328  -1.253   0.579  0.00  0.00    -0.258 NA
ATOM     21  C   UNL     1       0.301  -2.069   0.451  0.00  0.00    +0.062 A 
ATOM     22  C   UNL     1      -0.994  -1.587   0.492  0.00  0.00    +0.025 A 
ENDBRANCH  16  21
ENDBRANCH  13  16
ENDBRANCH  11  14
ENDBRANCH   1  11
BRANCH   7  23
ATOM     23  N   UNL     1       3.997  -5.992  -7.415  0.00  0.00    -0.299 N 
ATOM     24  H   UNL     1       3.180  -5.521  -7.188  0.00  0.00    +0.154 HD
BRANCH  23  25
ATOM     25  C   UNL     1       4.230  -6.390  -8.735  0.00  0.00    +0.033 A 
ATOM     26  C   UNL     1       3.805  -5.590  -9.789  0.00  0.00    +0.023 A 
ATOM     27  C   UNL     1       4.038  -5.985 -11.091  0.00  0.00    +0.003 A 
ATOM     28  C   UNL     1       4.694  -7.175 -11.348  0.00  0.00    +0.015 A 
ATOM     29  C   UNL     1       5.118  -7.974 -10.302  0.00  0.00    +0.020 A 
ATOM     30  C   UNL     1       4.894  -7.582  -8.995  0.00  0.00    +0.038 A 
ATOM     31 BR   UNL     1       6.014  -9.601 -10.658  0.00  0.00    -0.050 Br
ENDBRANCH  23  25
ENDBRANCH   7  23
TORSDOF 6
