REMARK  Name = CHEMBL245798
REMARK  9 active torsions:
REMARK  status: ('A' for Active; 'I' for Inactive)
REMARK    1  A    between atoms: C_1  and  N_2
REMARK    2  A    between atoms: C_5  and  O_8
REMARK    3  A    between atoms: O_8  and  C_9
REMARK    4  A    between atoms: C_14  and  O_15
REMARK    5  A    between atoms: O_15  and  C_16
REMARK    6  A    between atoms: C_17  and  N_23
REMARK    7  A    between atoms: C_18  and  C_21
REMARK    8  A    between atoms: N_23  and  C_24
REMARK    9  A    between atoms: C_27  and  C_29
REMARK                            x       y       z     vdW  Elec       q    Type
REMARK                         _______ _______ _______ _____ _____    ______ ____
ROOT
ATOM      1  C   UNL     1      -3.345  -5.018   4.378  0.00  0.00    +0.164 A 
ATOM      2  C   UNL     1      -2.305  -4.258   4.862  0.00  0.00    +0.077 A 
ATOM      3  C   UNL     1      -1.133  -4.887   5.310  0.00  0.00    +0.076 A 
ATOM      4  C   UNL     1      -1.043  -6.299   5.256  0.00  0.00    +0.026 A 
ATOM      5  C   UNL     1      -2.118  -7.050   4.758  0.00  0.00    +0.061 A 
ATOM      6  C   UNL     1      -3.250  -6.416   4.333  0.00  0.00    +0.162 A 
ATOM      7  C   UNL     1       0.139  -6.929   5.708  0.00  0.00    +0.056 A 
ATOM      8  C   UNL     1       1.172  -6.113   6.192  0.00  0.00    +0.091 A 
ATOM      9  C   UNL     1       0.997  -4.720   6.210  0.00  0.00    +0.132 A 
ATOM     10  N   UNL     1      -0.109  -4.163   5.786  0.00  0.00    -0.253 NA
ENDROOT
BRANCH   6  11
ATOM     11  O   UNL     1      -4.293  -7.147   3.856  0.00  0.00    -0.491 OA
ATOM     12  C   UNL     1      -4.134  -8.567   3.835  0.00  0.00    +0.277 C 
ENDBRANCH   6  11
BRANCH   8  13
ATOM     13  C   UNL     1       2.393  -6.694   6.664  0.00  0.00    +0.103 C 
ATOM     14  N   UNL     1       3.361  -7.156   7.038  0.00  0.00    -0.191 NA
ENDBRANCH   8  13
BRANCH   7  15
ATOM     15  N   UNL     1       0.272  -8.303   5.674  0.00  0.00    -0.339 N 
ATOM     16  H   UNL     1       0.550  -8.743   4.856  0.00  0.00    +0.146 HD
BRANCH  15  17
ATOM     17  C   UNL     1      -0.006  -9.095   6.874  0.00  0.00    +0.078 C 
ATOM     18  C   UNL     1       0.950 -10.245   7.198  0.00  0.00    +0.032 C 
ATOM     19  C   UNL     1      -0.458 -10.543   6.676  0.00  0.00    +0.041 C 
BRANCH  19  20
ATOM     20  C   UNL     1      -1.460 -11.100   7.654  0.00  0.00    -0.042 A 
ATOM     21  C   UNL     1      -1.155 -11.151   9.002  0.00  0.00    +0.004 A 
ATOM     22  C   UNL     1      -2.074 -11.662   9.899  0.00  0.00    +0.000 A 
ATOM     23  C   UNL     1      -3.298 -12.120   9.449  0.00  0.00    +0.000 A 
ATOM     24  C   UNL     1      -3.603 -12.068   8.102  0.00  0.00    +0.000 A 
ATOM     25  C   UNL     1      -2.686 -11.553   7.205  0.00  0.00    +0.004 A 
ENDBRANCH  19  20
ENDBRANCH  15  17
ENDBRANCH   7  15
BRANCH   1  26
ATOM     26  O   UNL     1      -4.479  -4.407   3.946  0.00  0.00    -0.485 OA
BRANCH  26  31
ATOM     27  C   UNL     1      -5.694   1.023   3.266  0.00  0.00    -0.096 C 
ATOM     28  N   UNL     1      -5.536  -0.435   3.181  0.00  0.00    +0.378 N 
ATOM     29  C   UNL     1      -6.127  -1.059   4.371  0.00  0.00    -0.076 C 
ATOM     30  C   UNL     1      -6.037  -2.582   4.251  0.00  0.00    +0.026 C 
ATOM     31  C   UNL     1      -4.566  -2.994   4.133  0.00  0.00    +0.170 C 
ATOM     32  C   UNL     1      -3.941  -2.278   2.932  0.00  0.00    +0.026 C 
ATOM     33  C   UNL     1      -4.108  -0.767   3.102  0.00  0.00    -0.076 C 
ATOM     34  H   UNL     1      -6.006  -0.776   2.357  0.00  0.00    -0.082 HD
ENDBRANCH  26  31
ENDBRANCH   1  26
TORSDOF 7
