REMARK  Name = CHEMBL119982
REMARK  4 active torsions:
REMARK  status: ('A' for Active; 'I' for Inactive)
REMARK    1  A    between atoms: C_4  and  C_7
REMARK    2  A    between atoms: C_7  and  N_8
REMARK    3  A    between atoms: C_11  and  N_19
REMARK    4  A    between atoms: N_19  and  C_20
REMARK                            x       y       z     vdW  Elec       q    Type
REMARK                         _______ _______ _______ _____ _____    ______ ____
ROOT
ATOM      1  N   UNL     1       4.865  -0.250   1.508  0.00  0.00    -0.324 N 
ATOM      2  C   UNL     1       5.498  -1.469   1.616  0.00  0.00    +0.135 A 
ATOM      3  C   UNL     1       5.449  -2.206   2.819  0.00  0.00    +0.100 A 
ATOM      4  C   UNL     1       4.877  -2.032   4.072  0.00  0.00    +0.131 A 
ATOM      5  N   UNL     1       5.191  -3.109   4.814  0.00  0.00    -0.261 N 
ATOM      6  H   UNL     1       4.920  -3.250   5.734  0.00  0.00    +0.190 HD
ATOM      7  N   UNL     1       5.968  -3.997   4.060  0.00  0.00    -0.152 NA
ATOM      8  C   UNL     1       6.151  -3.501   2.857  0.00  0.00    +0.188 A 
ATOM      9  N   UNL     1       6.795  -3.901   1.742  0.00  0.00    -0.214 NA
ATOM     10  C   UNL     1       6.788  -3.150   0.669  0.00  0.00    +0.225 A 
ATOM     11  N   UNL     1       6.166  -1.984   0.591  0.00  0.00    -0.220 NA
ATOM     12  H   UNL     1       4.380   0.114   2.265  0.00  0.00    +0.148 HD
ENDROOT
BRANCH   4  13
ATOM     13  N   UNL     1       4.122  -0.949   4.483  0.00  0.00    -0.299 N 
ATOM     14  H   UNL     1       3.876  -0.260   3.847  0.00  0.00    +0.154 HD
BRANCH  13  15
ATOM     15  C   UNL     1       3.714  -0.847   5.816  0.00  0.00    +0.034 A 
ATOM     16  C   UNL     1       4.540  -1.306   6.834  0.00  0.00    +0.023 A 
ATOM     17  C   UNL     1       4.133  -1.205   8.150  0.00  0.00    +0.003 A 
ATOM     18  C   UNL     1       2.906  -0.646   8.455  0.00  0.00    +0.020 A 
ATOM     19  C   UNL     1       2.080  -0.187   7.444  0.00  0.00    +0.043 A 
ATOM     20  C   UNL     1       2.484  -0.281   6.125  0.00  0.00    +0.043 A 
ATOM     21 CL   UNL     1       0.539   0.512   7.832  0.00  0.00    -0.083 Cl
ENDBRANCH  13  15
ENDBRANCH   4  13
BRANCH   1  22
ATOM     22  C   UNL     1       4.923   0.496   0.248  0.00  0.00    +0.138 C 
BRANCH  22  26
ATOM     23  C   UNL     1       2.750   4.151   0.654  0.00  0.00    +0.000 A 
ATOM     24  C   UNL     1       4.097   4.110   0.961  0.00  0.00    +0.000 A 
ATOM     25  C   UNL     1       4.800   2.927   0.830  0.00  0.00    +0.005 A 
ATOM     26  C   UNL     1       4.156   1.785   0.392  0.00  0.00    -0.030 A 
ATOM     27  C   UNL     1       2.809   1.826   0.085  0.00  0.00    +0.005 A 
ATOM     28  C   UNL     1       2.106   3.009   0.215  0.00  0.00    +0.000 A 
ENDBRANCH  22  26
ENDBRANCH   1  22
TORSDOF 4
