REMARK  Name = CHEMBL40130
REMARK  4 active torsions:
REMARK  status: ('A' for Active; 'I' for Inactive)
REMARK    1  A    between atoms: C_3  and  N_8
REMARK    2  A    between atoms: N_15  and  C_22
REMARK    3  A    between atoms: C_22  and  C_23
REMARK    4  A    between atoms: C_23  and  N_24
REMARK                            x       y       z     vdW  Elec       q    Type
REMARK                         _______ _______ _______ _____ _____    ______ ____
ROOT
ATOM      1  N   UNL     1       3.583   2.124  -0.021  0.00  0.00    -0.299 N 
ATOM      2  C   UNL     1       4.785   1.453   0.068  0.00  0.00    +0.134 A 
ATOM      3  C   UNL     1       6.008   2.163   0.173  0.00  0.00    +0.041 A 
ATOM      4  C   UNL     1       6.048   3.556   0.191  0.00  0.00    +0.023 A 
ATOM      5  C   UNL     1       7.273   4.200   0.297  0.00  0.00    +0.001 A 
ATOM      6  C   UNL     1       7.670   5.612   0.344  0.00  0.00    +0.027 A 
ATOM      7  C   UNL     1       9.006   5.641   0.452  0.00  0.00    +0.087 A 
ATOM      8  N   UNL     1       9.505   4.365   0.478  0.00  0.00    -0.345 N 
ATOM      9  C   UNL     1       8.473   3.455   0.385  0.00  0.00    +0.051 A 
ATOM     10  C   UNL     1       8.437   2.073   0.367  0.00  0.00    +0.055 A 
ATOM     11  C   UNL     1       7.211   1.413   0.262  0.00  0.00    +0.078 A 
ATOM     12  N   UNL     1       7.135   0.071   0.242  0.00  0.00    -0.235 NA
ATOM     13  C   UNL     1       5.974  -0.529   0.143  0.00  0.00    +0.223 A 
ATOM     14  N   UNL     1       4.827   0.128   0.063  0.00  0.00    -0.220 NA
ATOM     15  H   UNL     1       3.571   3.091  -0.094  0.00  0.00    +0.154 HD
ENDROOT
BRANCH   1  18
ATOM     16  C   UNL     1       1.088  -0.466   0.744  0.00  0.00    +0.003 A 
ATOM     17  C   UNL     1       2.277   0.238   0.731  0.00  0.00    +0.023 A 
ATOM     18  C   UNL     1       2.381   1.410  -0.007  0.00  0.00    +0.033 A 
ATOM     19  C   UNL     1       1.289   1.871  -0.730  0.00  0.00    +0.038 A 
ATOM     20  C   UNL     1       0.102   1.163  -0.713  0.00  0.00    +0.020 A 
ATOM     21  C   UNL     1       0.002  -0.004   0.024  0.00  0.00    +0.015 A 
ATOM     22 BR   UNL     1      -1.386   1.790  -1.697  0.00  0.00    -0.050 Br
ENDBRANCH   1  18
BRANCH   8  23
ATOM     23  C   UNL     1      10.924   4.019   0.588  0.00  0.00    +0.137 C 
BRANCH  23  24
ATOM     24  C   UNL     1      11.504   3.792  -0.809  0.00  0.00    +0.106 C 
BRANCH  24  25
ATOM     25  N   UNL     1      12.927   3.445  -0.699  0.00  0.00    -0.296 NA
ATOM     26  C   UNL     1      13.708   4.580  -0.183  0.00  0.00    +0.112 C 
ATOM     27  C   UNL     1      15.171   4.157  -0.028  0.00  0.00    +0.175 C 
ATOM     28  O   UNL     1      15.663   3.689  -1.286  0.00  0.00    -0.377 OA
ATOM     29  C   UNL     1      14.926   2.584  -1.818  0.00  0.00    +0.175 C 
ATOM     30  C   UNL     1      13.461   2.991  -1.991  0.00  0.00    +0.112 C 
ENDBRANCH  24  25
ENDBRANCH  23  24
ENDBRANCH   8  23
TORSDOF 4
