REMARK  Name = CHEMBL599863
REMARK  7 active torsions:
REMARK  status: ('A' for Active; 'I' for Inactive)
REMARK    1  A    between atoms: C_4  and  O_7
REMARK    2  A    between atoms: O_7  and  C_8
REMARK    3  A    between atoms: N_10  and  C_11
REMARK    4  A    between atoms: C_11  and  C_12
REMARK    5  A    between atoms: N_14  and  C_15
REMARK    6  A    between atoms: C_21  and  N_25
REMARK    7  A    between atoms: N_25  and  C_26
REMARK                            x       y       z     vdW  Elec       q    Type
REMARK                         _______ _______ _______ _____ _____    ______ ____
ROOT
ATOM      1  C   UNL     1       7.748  -6.109   0.535  0.00  0.00    +0.034 A 
ATOM      2  C   UNL     1       8.757  -5.140   0.498  0.00  0.00    +0.025 A 
ATOM      3  C   UNL     1      10.065  -5.486   0.644  0.00  0.00    +0.030 A 
ATOM      4  C   UNL     1      10.414  -6.831   0.834  0.00  0.00    +0.076 A 
ATOM      5  C   UNL     1       9.398  -7.816   0.871  0.00  0.00    +0.042 A 
ATOM      6  C   UNL     1       8.059  -7.439   0.725  0.00  0.00    +0.036 A 
ATOM      7  C   UNL     1       9.781  -9.166   1.065  0.00  0.00    +0.134 A 
ATOM      8  N   UNL     1      11.073  -9.437   1.200  0.00  0.00    -0.220 NA
ATOM      9  C   UNL     1      11.988  -8.482   1.158  0.00  0.00    +0.223 A 
ATOM     10  N   UNL     1      11.691  -7.216   0.982  0.00  0.00    -0.235 NA
ENDROOT
BRANCH   1  13
ATOM     11  C   UNL     1       6.106  -4.603  -0.302  0.00  0.00    +0.234 C 
ATOM     12  O   UNL     1       6.979  -3.987  -0.877  0.00  0.00    -0.274 OA
ATOM     13  N   UNL     1       6.411  -5.723   0.382  0.00  0.00    -0.284 N 
ATOM     14  H   UNL     1       5.704  -6.263   0.769  0.00  0.00    +0.155 HD
BRANCH  11  15
ATOM     15  C   UNL     1       4.681  -4.115  -0.352  0.00  0.00    +0.203 C 
BRANCH  15  18
ATOM     16  C   UNL     1       3.430  -2.270  -1.336  0.00  0.00    +0.406 C 
ATOM     17  O   UNL     1       2.421  -2.728  -0.839  0.00  0.00    -0.226 OA
ATOM     18  N   UNL     1       4.613  -2.889  -1.152  0.00  0.00    -0.272 N 
ATOM     19  H   UNL     1       5.419  -2.523  -1.548  0.00  0.00    +0.153 HD
BRANCH  16  20
ATOM     20  O   UNL     1       3.367  -1.143  -2.070  0.00  0.00    -0.412 OA
BRANCH  20  24
ATOM     21  C   UNL     1      -0.251   0.827  -2.291  0.00  0.00    +0.000 A 
ATOM     22  C   UNL     1       0.415   0.740  -1.082  0.00  0.00    +0.004 A 
ATOM     23  C   UNL     1       1.626   0.080  -1.006  0.00  0.00    +0.046 A 
ATOM     24  C   UNL     1       2.175  -0.494  -2.143  0.00  0.00    +0.133 A 
ATOM     25  C   UNL     1       1.505  -0.406  -3.354  0.00  0.00    +0.046 A 
ATOM     26  C   UNL     1       0.294   0.255  -3.426  0.00  0.00    +0.004 A 
ENDBRANCH  20  24
ENDBRANCH  16  20
ENDBRANCH  15  18
ENDBRANCH  11  15
ENDBRANCH   1  13
BRANCH   7  27
ATOM     27  N   UNL     1       8.837 -10.172   1.111  0.00  0.00    -0.299 N 
ATOM     28  H   UNL     1       7.905  -9.970   0.933  0.00  0.00    +0.154 HD
BRANCH  27  29
ATOM     29  C   UNL     1       9.224 -11.480   1.413  0.00  0.00    +0.033 A 
ATOM     30  C   UNL     1       8.581 -12.554   0.809  0.00  0.00    +0.023 A 
ATOM     31  C   UNL     1       8.966 -13.845   1.110  0.00  0.00    +0.003 A 
ATOM     32  C   UNL     1       9.990 -14.072   2.012  0.00  0.00    +0.015 A 
ATOM     33  C   UNL     1      10.632 -13.005   2.616  0.00  0.00    +0.020 A 
ATOM     34  C   UNL     1      10.256 -11.710   2.314  0.00  0.00    +0.038 A 
ATOM     35 BR   UNL     1      12.030 -13.320   3.849  0.00  0.00    -0.050 Br
ENDBRANCH  27  29
ENDBRANCH   7  27
TORSDOF 7
