REMARK  Name = CHEMBL366580
REMARK  1 active torsions:
REMARK  status: ('A' for Active; 'I' for Inactive)
REMARK    1  A    between atoms: C_3  and  N_8
REMARK                            x       y       z     vdW  Elec       q    Type
REMARK                         _______ _______ _______ _____ _____    ______ ____
ROOT
ATOM      1  N   UNL     1       3.583   2.124  -0.021  0.00  0.00    -0.299 N 
ATOM      2  C   UNL     1       4.785   1.453   0.068  0.00  0.00    +0.134 A 
ATOM      3  C   UNL     1       6.009   2.163   0.173  0.00  0.00    +0.042 A 
ATOM      4  C   UNL     1       6.047   3.557   0.192  0.00  0.00    +0.041 A 
ATOM      5  C   UNL     1       7.263   4.206   0.296  0.00  0.00    +0.067 A 
ATOM      6  C   UNL     1       8.463   3.462   0.384  0.00  0.00    +0.022 A 
ATOM      7  C   UNL     1       8.434   2.071   0.367  0.00  0.00    +0.040 A 
ATOM      8  C   UNL     1       7.211   1.412   0.261  0.00  0.00    +0.077 A 
ATOM      9  N   UNL     1       7.135   0.069   0.241  0.00  0.00    -0.235 NA
ATOM     10  C   UNL     1       5.973  -0.530   0.142  0.00  0.00    +0.223 A 
ATOM     11  N   UNL     1       4.826   0.129   0.063  0.00  0.00    -0.220 NA
ATOM     12  C   UNL     1       9.544   4.442   0.481  0.00  0.00    +0.142 A 
ATOM     13  N   UNL     1       9.012   5.629   0.452  0.00  0.00    -0.181 NA
ATOM     14  H   UNL     1       7.008   6.284   0.298  0.00  0.00    +0.189 HD
ATOM     15  N   UNL     1       7.621   5.534   0.339  0.00  0.00    -0.277 N 
ATOM     16  H   UNL     1       3.571   3.091  -0.094  0.00  0.00    +0.154 HD
ENDROOT
BRANCH   1  19
ATOM     17  C   UNL     1       1.088  -0.465   0.744  0.00  0.00    +0.003 A 
ATOM     18  C   UNL     1       2.277   0.238   0.731  0.00  0.00    +0.023 A 
ATOM     19  C   UNL     1       2.381   1.410  -0.007  0.00  0.00    +0.033 A 
ATOM     20  C   UNL     1       1.289   1.871  -0.730  0.00  0.00    +0.038 A 
ATOM     21  C   UNL     1       0.102   1.163  -0.713  0.00  0.00    +0.020 A 
ATOM     22  C   UNL     1       0.002  -0.004   0.024  0.00  0.00    +0.015 A 
ATOM     23 BR   UNL     1      -1.386   1.790  -1.697  0.00  0.00    -0.050 Br
ENDBRANCH   1  19
TORSDOF 1
