REMARK  Name = CHEMBL472581
REMARK  11 active torsions:
REMARK  status: ('A' for Active; 'I' for Inactive)
REMARK    1  A    between atoms: C_1  and  S_2
REMARK    2  A    between atoms: S_2  and  C_5
REMARK    3  A    between atoms: C_5  and  C_6
REMARK    4  A    between atoms: C_6  and  N_7
REMARK    5  A    between atoms: N_7  and  C_8
REMARK    6  A    between atoms: C_8  and  C_9
REMARK    7  A    between atoms: C_11  and  C_14
REMARK    8  A    between atoms: C_20  and  N_24
REMARK    9  A    between atoms: N_24  and  C_25
REMARK   10  A    between atoms: N_33  and  C_34
REMARK   11  A    between atoms: C_34  and  C_35
REMARK                            x       y       z     vdW  Elec       q    Type
REMARK                         _______ _______ _______ _____ _____    ______ ____
ROOT
ATOM      1  C   UNL     1       5.740  -5.288  -5.960  0.00  0.00    +0.002 A 
ATOM      2  C   UNL     1       6.615  -5.255  -4.865  0.00  0.00    +0.012 A 
ATOM      3  C   UNL     1       7.961  -5.187  -5.048  0.00  0.00    +0.029 A 
ATOM      4  C   UNL     1       8.490  -5.150  -6.346  0.00  0.00    +0.076 A 
ATOM      5  C   UNL     1       7.613  -5.183  -7.459  0.00  0.00    +0.041 A 
ATOM      6  C   UNL     1       6.233  -5.258  -7.255  0.00  0.00    +0.023 A 
ATOM      7  C   UNL     1       8.178  -5.145  -8.758  0.00  0.00    +0.134 A 
ATOM      8  N   UNL     1       9.499  -5.079  -8.865  0.00  0.00    -0.220 NA
ATOM      9  C   UNL     1      10.278  -5.050  -7.795  0.00  0.00    +0.223 A 
ATOM     10  N   UNL     1       9.810  -5.083  -6.570  0.00  0.00    -0.235 NA
ENDROOT
BRANCH   1  13
ATOM     11  C   UNL     1       2.465  -5.361  -4.322  0.00  0.00    +0.062 A 
ATOM     12  N   UNL     1       3.756  -5.295  -4.514  0.00  0.00    -0.246 NA
ATOM     13  C   UNL     1       4.276  -5.362  -5.732  0.00  0.00    +0.078 A 
ATOM     14  C   UNL     1       3.391  -5.503  -6.767  0.00  0.00    +0.075 A 
ATOM     15  S   UNL     1       1.844  -5.535  -5.876  0.00  0.00    -0.082 S 
BRANCH  11  16
ATOM     16  C   UNL     1       1.711  -5.301  -3.018  0.00  0.00    -0.019 C 
BRANCH  16  17
ATOM     17  N   UNL     1       1.373  -3.905  -2.711  0.00  0.00    +0.384 N 
ATOM     18  H   UNL     1       0.798  -3.528  -3.449  0.00  0.00    -0.085 HD
ATOM     19  H   UNL     1       2.221  -3.362  -2.635  0.00  0.00    -0.085 HD
BRANCH  17  20
ATOM     20  C   UNL     1       0.639  -3.846  -1.440  0.00  0.00    -0.059 C 
BRANCH  20  21
ATOM     21  C   UNL     1       0.287  -2.392  -1.120  0.00  0.00    +0.146 C 
BRANCH  21  23
ATOM     22  C   UNL     1      -0.938  -0.545   0.647  0.00  0.00    +0.193 C 
ATOM     23  S   UNL     1      -0.619  -2.320   0.449  0.00  0.00    -0.036 S 
ATOM     24  O   UNL     1       0.252  -2.739   1.491  0.00  0.00    -0.175 OA
ATOM     25  O   UNL     1      -1.863  -2.985   0.281  0.00  0.00    -0.175 OA
ENDBRANCH  21  23
ENDBRANCH  20  21
ENDBRANCH  17  20
ENDBRANCH  16  17
ENDBRANCH  11  16
ENDBRANCH   1  13
BRANCH   7  26
ATOM     26  N   UNL     1       7.378  -5.176  -9.880  0.00  0.00    -0.299 N 
ATOM     27  H   UNL     1       6.412  -5.140  -9.789  0.00  0.00    +0.154 HD
BRANCH  26  28
ATOM     28  C   UNL     1       7.957  -5.258 -11.152  0.00  0.00    +0.033 A 
ATOM     29  C   UNL     1       9.113  -6.018 -11.340  0.00  0.00    +0.025 A 
ATOM     30  C   UNL     1       9.694  -6.111 -12.572  0.00  0.00    +0.030 A 
ATOM     31  C   UNL     1       9.135  -5.444 -13.660  0.00  0.00    +0.069 A 
ATOM     32  C   UNL     1       7.969  -4.676 -13.482  0.00  0.00    +0.021 A 
ATOM     33  C   UNL     1       7.380  -4.592 -12.215  0.00  0.00    +0.034 A 
ATOM     34  C   UNL     1       7.643  -4.115 -14.789  0.00  0.00    +0.143 A 
ATOM     35  N   UNL     1       8.542  -4.529 -15.635  0.00  0.00    -0.178 NA
ATOM     36  N   UNL     1       9.474  -5.345 -14.986  0.00  0.00    -0.259 N 
BRANCH  36  37
ATOM     37  C   UNL     1      10.627  -5.989 -15.619  0.00  0.00    +0.179 C 
BRANCH  37  38
ATOM     38  C   UNL     1      10.226  -7.350 -16.126  0.00  0.00    -0.026 A 
ATOM     39  C   UNL     1      10.345  -8.456 -15.305  0.00  0.00    +0.005 A 
ATOM     40  C   UNL     1       9.977  -9.705 -15.770  0.00  0.00    +0.000 A 
ATOM     41  C   UNL     1       9.489  -9.848 -17.056  0.00  0.00    +0.000 A 
ATOM     42  C   UNL     1       9.370  -8.742 -17.876  0.00  0.00    +0.000 A 
ATOM     43  C   UNL     1       9.734  -7.492 -17.410  0.00  0.00    +0.005 A 
ENDBRANCH  37  38
ENDBRANCH  36  37
ENDBRANCH  26  28
ENDBRANCH   7  26
TORSDOF 10
