REMARK  Name = CHEMBL451347
REMARK  7 active torsions:
REMARK  status: ('A' for Active; 'I' for Inactive)
REMARK    1  A    between atoms: N_7  and  C_8
REMARK    2  A    between atoms: C_8  and  C_9
REMARK    3  A    between atoms: C_15  and  N_16
REMARK    4  A    between atoms: C_21  and  C_23
REMARK    5  A    between atoms: C_24  and  C_25
REMARK    6  A    between atoms: C_28  and  O_32
REMARK    7  A    between atoms: O_32  and  C_33
REMARK                            x       y       z     vdW  Elec       q    Type
REMARK                         _______ _______ _______ _____ _____    ______ ____
ROOT
ATOM      1  N   UNL     1      -1.202  -0.718   0.010  0.00  0.00    -0.298 N 
ATOM      2  C   UNL     1      -2.407  -0.044   0.130  0.00  0.00    +0.141 A 
ATOM      3  C   UNL     1      -3.600  -0.737   0.249  0.00  0.00    +0.079 A 
ATOM      4  C   UNL     1      -4.831  -0.054   0.372  0.00  0.00    +0.084 A 
ATOM      5  C   UNL     1      -5.965  -0.870   0.486  0.00  0.00    +0.053 A 
ATOM      6  C   UNL     1      -5.829  -2.226   0.472  0.00  0.00    +0.065 A 
ATOM      7  S   UNL     1      -4.067  -2.446   0.296  0.00  0.00    -0.075 S 
ATOM      8  N   UNL     1      -4.753   1.301   0.364  0.00  0.00    -0.235 NA
ATOM      9  C   UNL     1      -3.605   1.917   0.249  0.00  0.00    +0.224 A 
ATOM     10  N   UNL     1      -2.447   1.289   0.140  0.00  0.00    -0.219 NA
ATOM     11  H   UNL     1      -1.177  -1.684   0.093  0.00  0.00    +0.154 HD
ENDROOT
BRANCH   1  20
ATOM     12  C   UNL     1       1.177  -0.435   0.335  0.00  0.00    +0.025 A 
ATOM     13  C   UNL     1       2.347   0.255   0.107  0.00  0.00    +0.028 A 
ATOM     14  C   UNL     1       2.340   1.392  -0.694  0.00  0.00    +0.050 A 
ATOM     15  C   UNL     1       1.131   1.829  -1.266  0.00  0.00    +0.002 A 
ATOM     16  C   UNL     1       1.460   3.031  -2.038  0.00  0.00    +0.027 A 
ATOM     17  C   UNL     1       2.778   3.241  -1.895  0.00  0.00    +0.087 A 
ATOM     18  N   UNL     1       3.322   2.272  -1.096  0.00  0.00    -0.341 N 
ATOM     19  C   UNL     1      -0.049   1.123  -1.030  0.00  0.00    +0.033 A 
ATOM     20  C   UNL     1      -0.022  -0.005  -0.231  0.00  0.00    +0.033 A 
BRANCH  18  21
ATOM     21  C   UNL     1       4.736   2.184  -0.724  0.00  0.00    +0.177 C 
BRANCH  21  22
ATOM     22  C   UNL     1       5.447   1.252  -1.670  0.00  0.00    +0.068 A 
ATOM     23  C   UNL     1       6.550   1.643  -2.357  0.00  0.00    +0.071 A 
ATOM     24  S   UNL     1       6.915   0.153  -3.271  0.00  0.00    -0.084 S 
ATOM     25  C   UNL     1       5.648  -0.790  -2.691  0.00  0.00    +0.156 A 
ATOM     26  N   UNL     1       5.030   0.016  -1.864  0.00  0.00    -0.251 NA
ENDBRANCH  21  22
ENDBRANCH  18  21
ENDBRANCH   1  20
BRANCH   6  27
ATOM     27  C   UNL     1      -6.849  -3.227   0.575  0.00  0.00    -0.057 C 
ATOM     28  C   UNL     1      -7.684  -4.047   0.659  0.00  0.00    -0.078 C 
BRANCH  28  29
ATOM     29  C   UNL     1      -8.732  -5.076   0.764  0.00  0.00    +0.134 C 
ATOM     30  C   UNL     1      -9.777  -4.899  -0.365  0.00  0.00    +0.077 C 
ATOM     31  C   UNL     1     -10.682  -3.781   0.218  0.00  0.00    +0.194 C 
ATOM     32  C   UNL     1     -10.698  -4.100   1.728  0.00  0.00    +0.126 C 
ATOM     33  N   UNL     1      -9.495  -4.906   2.019  0.00  0.00    -0.300 NA
ATOM     34  H   UNL     1      -9.745  -5.801   2.413  0.00  0.00    +0.123 HD
BRANCH  31  35
ATOM     35  O   UNL     1     -11.998  -3.859  -0.333  0.00  0.00    -0.446 OA
BRANCH  35  36
ATOM     36  C   UNL     1     -12.683  -2.705  -0.445  0.00  0.00    +0.403 C 
ATOM     37  O   UNL     1     -12.176  -1.660  -0.086  0.00  0.00    -0.226 OA
ATOM     38  N   UNL     1     -13.930  -2.708  -0.956  0.00  0.00    -0.263 N 
ATOM     39  C   UNL     1     -14.567  -3.961  -1.392  0.00  0.00    +0.139 C 
ATOM     40  C   UNL     1     -15.955  -4.047  -0.749  0.00  0.00    +0.179 C 
ATOM     41  O   UNL     1     -16.675  -2.841  -1.019  0.00  0.00    -0.377 OA
ATOM     42  C   UNL     1     -16.078  -1.666  -0.465  0.00  0.00    +0.179 C 
ATOM     43  C   UNL     1     -14.697  -1.459  -1.089  0.00  0.00    +0.139 C 
ENDBRANCH  35  36
ENDBRANCH  31  35
ENDBRANCH  28  29
ENDBRANCH   6  27
TORSDOF 7
