REMARK  Name = CHEMBL250924
REMARK  7 active torsions:
REMARK  status: ('A' for Active; 'I' for Inactive)
REMARK    1  A    between atoms: C_1  and  O_2
REMARK    2  A    between atoms: O_2  and  C_3
REMARK    3  A    between atoms: C_8  and  O_9
REMARK    4  A    between atoms: O_9  and  C_10
REMARK    5  A    between atoms: C_14  and  C_15
REMARK    6  A    between atoms: C_16  and  C_17
REMARK    7  A    between atoms: C_22  and  C_23
REMARK                            x       y       z     vdW  Elec       q    Type
REMARK                         _______ _______ _______ _____ _____    ______ ____
ROOT
ATOM      1  C   UNL     1      -1.201  -0.638   0.010  0.00  0.00    +0.162 A 
ATOM      2  C   UNL     1      -2.353   0.099   0.019  0.00  0.00    +0.062 A 
ATOM      3  C   UNL     1      -3.588  -0.553   0.028  0.00  0.00    +0.038 A 
ATOM      4  C   UNL     1      -3.644  -1.971   0.026  0.00  0.00    +0.079 A 
ATOM      5  C   UNL     1      -2.452  -2.705   0.017  0.00  0.00    +0.077 A 
ATOM      6  C   UNL     1      -1.246  -2.039   0.003  0.00  0.00    +0.164 A 
ATOM      7  N   UNL     1      -4.846  -2.565   0.034  0.00  0.00    -0.235 NA
ATOM      8  C   UNL     1      -5.951  -1.860   0.043  0.00  0.00    +0.223 A 
ATOM      9  N   UNL     1      -5.980  -0.539   0.044  0.00  0.00    -0.226 NA
ATOM     10  C   UNL     1      -4.856   0.178   0.037  0.00  0.00    +0.125 A 
ENDROOT
BRANCH   1  12
ATOM     11  C   UNL     1      -0.017   1.425   0.010  0.00  0.00    +0.277 C 
ATOM     12  O   UNL     1       0.002  -0.004   0.002  0.00  0.00    -0.491 OA
ENDBRANCH   1  12
BRANCH   6  13
ATOM     13  O   UNL     1      -0.088  -2.749  -0.012  0.00  0.00    -0.491 OA
ATOM     14  C   UNL     1      -0.200  -4.173  -0.019  0.00  0.00    +0.277 C 
ENDBRANCH   6  13
BRANCH  10  15
ATOM     15  C   UNL     1      -4.887   1.610   0.040  0.00  0.00    -0.040 C 
ATOM     16  C   UNL     1      -4.914   2.784   0.042  0.00  0.00    -0.059 C 
BRANCH  16  17
ATOM     17  C   UNL     1      -4.946   4.215   0.044  0.00  0.00    +0.033 A 
ATOM     18  C   UNL     1      -3.754   4.946   0.031  0.00  0.00    +0.017 A 
ATOM     19  C   UNL     1      -3.792   6.324   0.034  0.00  0.00    +0.001 A 
ATOM     20  C   UNL     1      -5.005   6.993   0.049  0.00  0.00    +0.001 A 
ATOM     21  C   UNL     1      -6.193   6.289   0.061  0.00  0.00    +0.010 A 
ATOM     22  C   UNL     1      -6.178   4.897   0.053  0.00  0.00    -0.002 A 
BRANCH  22  23
ATOM     23  C   UNL     1      -7.450   4.138   0.061  0.00  0.00    -0.017 A 
ATOM     24  C   UNL     1      -7.658   3.111  -0.860  0.00  0.00    +0.008 A 
ATOM     25  C   UNL     1      -8.845   2.407  -0.847  0.00  0.00    +0.001 A 
ATOM     26  C   UNL     1      -9.828   2.719   0.075  0.00  0.00    +0.000 A 
ATOM     27  C   UNL     1      -9.627   3.736   0.991  0.00  0.00    +0.001 A 
ATOM     28  C   UNL     1      -8.442   4.444   0.992  0.00  0.00    +0.008 A 
ENDBRANCH  22  23
ENDBRANCH  16  17
ENDBRANCH  10  15
TORSDOF 5
