REMARK  Name = CHEMBL255170
REMARK  9 active torsions:
REMARK  status: ('A' for Active; 'I' for Inactive)
REMARK    1  A    between atoms: C_1  and  C_2
REMARK    2  A    between atoms: C_5  and  O_8
REMARK    3  A    between atoms: O_8  and  C_9
REMARK    4  A    between atoms: C_12  and  N_16
REMARK    5  A    between atoms: C_23  and  O_24
REMARK    6  A    between atoms: O_24  and  C_25
REMARK    7  A    between atoms: C_25  and  C_26
REMARK    8  A    between atoms: C_26  and  N_27
REMARK    9  A    between atoms: C_30  and  O_33
REMARK                            x       y       z     vdW  Elec       q    Type
REMARK                         _______ _______ _______ _____ _____    ______ ____
ROOT
ATOM      1  N   UNL     1      -0.867  -6.583   5.240  0.00  0.00    -0.299 N 
ATOM      2  C   UNL     1      -0.710  -7.936   5.470  0.00  0.00    +0.141 A 
ATOM      3  C   UNL     1      -0.522  -8.428   6.773  0.00  0.00    +0.121 A 
ATOM      4  C   UNL     1      -0.367  -9.817   6.952  0.00  0.00    +0.164 A 
ATOM      5  N   UNL     1      -0.203 -10.026   8.287  0.00  0.00    -0.257 N 
ATOM      6  H   UNL     1      -0.073 -10.890   8.709  0.00  0.00    +0.191 HD
ATOM      7  N   UNL     1      -0.250  -8.799   8.957  0.00  0.00    -0.134 NA
ATOM      8  C   UNL     1      -0.437  -7.830   8.101  0.00  0.00    +0.246 A 
ATOM      9  N   UNL     1      -0.405 -10.607   5.879  0.00  0.00    -0.216 NA
ATOM     10  C   UNL     1      -0.584 -10.101   4.679  0.00  0.00    +0.225 A 
ATOM     11  N   UNL     1      -0.739  -8.806   4.465  0.00  0.00    -0.220 NA
ATOM     12  H   UNL     1      -0.763  -5.952   5.969  0.00  0.00    +0.154 HD
ENDROOT
BRANCH   1  16
ATOM     13  C   UNL     1      -1.792  -5.214   1.412  0.00  0.00    +0.147 A 
ATOM     14  C   UNL     1      -2.278  -6.438   1.846  0.00  0.00    +0.049 A 
ATOM     15  C   UNL     1      -1.972  -6.893   3.114  0.00  0.00    +0.027 A 
ATOM     16  C   UNL     1      -1.177  -6.123   3.954  0.00  0.00    +0.034 A 
ATOM     17  C   UNL     1      -0.691  -4.897   3.519  0.00  0.00    +0.047 A 
ATOM     18  C   UNL     1      -0.994  -4.446   2.249  0.00  0.00    +0.085 A 
ATOM     19 CL   UNL     1      -0.381  -2.917   1.702  0.00  0.00    -0.080 Cl
BRANCH  13  20
ATOM     20  O   UNL     1      -2.095  -4.767   0.163  0.00  0.00    -0.453 OA
BRANCH  20  25
ATOM     21  C   UNL     1      -5.333  -7.961  -3.082  0.00  0.00    +0.065 C 
ATOM     22  C   UNL     1      -4.479  -7.092  -2.194  0.00  0.00    +0.038 A 
ATOM     23  C   UNL     1      -5.077  -6.328  -1.209  0.00  0.00    +0.026 A 
ATOM     24  C   UNL     1      -4.286  -5.532  -0.397  0.00  0.00    +0.049 A 
ATOM     25  C   UNL     1      -2.911  -5.533  -0.608  0.00  0.00    +0.147 A 
ATOM     26  C   UNL     1      -2.385  -6.326  -1.617  0.00  0.00    +0.157 A 
ATOM     27  N   UNL     1      -3.172  -7.074  -2.364  0.00  0.00    -0.257 NA
ENDBRANCH  20  25
ENDBRANCH  13  20
ENDBRANCH   1  16
BRANCH   8  28
ATOM     28  O   UNL     1      -0.535  -6.506   8.393  0.00  0.00    -0.477 OA
BRANCH  28  29
ATOM     29  C   UNL     1      -0.423  -6.135   9.768  0.00  0.00    +0.212 C 
BRANCH  29  30
ATOM     30  C   UNL     1      -0.557  -4.617   9.900  0.00  0.00    -0.037 C 
BRANCH  30  31
ATOM     31  N   UNL     1      -1.897  -4.204   9.461  0.00  0.00    +0.382 N 
ATOM     32  C   UNL     1      -1.967  -2.738   9.422  0.00  0.00    -0.076 C 
ATOM     33  C   UNL     1      -3.333  -2.303   8.888  0.00  0.00    +0.013 C 
ATOM     34  C   UNL     1      -4.431  -2.845   9.809  0.00  0.00    +0.111 C 
ATOM     35  C   UNL     1      -4.302  -4.368   9.900  0.00  0.00    +0.013 C 
ATOM     36  C   UNL     1      -2.900  -4.726  10.397  0.00  0.00    -0.076 C 
ATOM     37  H   UNL     1      -2.075  -4.572   8.538  0.00  0.00    -0.082 HD
BRANCH  34  38
ATOM     38  O   UNL     1      -5.713  -2.505   9.275  0.00  0.00    -0.392 OA
ATOM     39  H   UNL     1      -6.456  -2.817   9.809  0.00  0.00    +0.210 HD
ENDBRANCH  34  38
ENDBRANCH  30  31
ENDBRANCH  29  30
ENDBRANCH  28  29
ENDBRANCH   8  28
TORSDOF 8
