REMARK  Name = CHEMBL247710
REMARK  7 active torsions:
REMARK  status: ('A' for Active; 'I' for Inactive)
REMARK    1  A    between atoms: C_3  and  C_8
REMARK    2  A    between atoms: C_8  and  O_9
REMARK    3  A    between atoms: O_9  and  C_10
REMARK    4  A    between atoms: C_13  and  N_17
REMARK    5  A    between atoms: C_20  and  C_27
REMARK    6  A    between atoms: C_27  and  N_28
REMARK    7  A    between atoms: C_31  and  N_34
REMARK                            x       y       z     vdW  Elec       q    Type
REMARK                         _______ _______ _______ _____ _____    ______ ____
ROOT
ATOM      1  N   UNL     1       8.610   5.605   2.079  0.00  0.00    -0.298 N 
ATOM      2  C   UNL     1       9.094   5.904   3.337  0.00  0.00    +0.151 A 
ATOM      3  C   UNL     1      10.344   6.547   3.488  0.00  0.00    +0.110 A 
ATOM      4  C   UNL     1      11.301   6.999   2.600  0.00  0.00    -0.003 A 
ATOM      5  C   UNL     1      12.329   7.555   3.363  0.00  0.00    +0.027 A 
ATOM      6  C   UNL     1      11.990   7.435   4.674  0.00  0.00    +0.113 A 
ATOM      7  N   UNL     1      10.792   6.828   4.765  0.00  0.00    -0.235 N 
ATOM      8  N   UNL     1       9.983   6.459   5.849  0.00  0.00    -0.155 NA
ATOM      9  C   UNL     1       8.840   5.867   5.640  0.00  0.00    +0.245 A 
ATOM     10  N   UNL     1       8.392   5.596   4.415  0.00  0.00    -0.217 NA
ATOM     11  H   UNL     1       9.157   5.771   1.296  0.00  0.00    +0.154 HD
ENDROOT
BRANCH   1  15
ATOM     12  C   UNL     1       4.792   3.986   1.644  0.00  0.00    +0.139 A 
ATOM     13  C   UNL     1       5.271   4.893   0.711  0.00  0.00    +0.049 A 
ATOM     14  C   UNL     1       6.535   5.429   0.854  0.00  0.00    +0.027 A 
ATOM     15  C   UNL     1       7.328   5.061   1.933  0.00  0.00    +0.034 A 
ATOM     16  C   UNL     1       6.848   4.153   2.868  0.00  0.00    +0.047 A 
ATOM     17  C   UNL     1       5.581   3.621   2.726  0.00  0.00    +0.084 A 
ATOM     18 CL   UNL     1       4.978   2.491   3.898  0.00  0.00    -0.080 Cl
BRANCH  12  19
ATOM     19  O   UNL     1       3.546   3.458   1.502  0.00  0.00    -0.486 OA
BRANCH  19  20
ATOM     20  C   UNL     1       2.790   3.878   0.365  0.00  0.00    +0.264 C 
BRANCH  20  23
ATOM     21  C   UNL     1      -0.858   3.159   1.027  0.00  0.00    +0.003 A 
ATOM     22  C   UNL     1       0.375   3.785   1.017  0.00  0.00    +0.007 A 
ATOM     23  C   UNL     1       1.447   3.194   0.375  0.00  0.00    -0.008 A 
ATOM     24  C   UNL     1       1.287   1.976  -0.259  0.00  0.00    +0.045 A 
ATOM     25  C   UNL     1       0.053   1.348  -0.249  0.00  0.00    +0.124 A 
ATOM     26  C   UNL     1      -1.020   1.941   0.395  0.00  0.00    +0.038 A 
ATOM     27  F   UNL     1      -0.104   0.158  -0.869  0.00  0.00    -0.205 F 
ENDBRANCH  20  23
ENDBRANCH  19  20
ENDBRANCH  12  19
ENDBRANCH   1  15
BRANCH   4  28
ATOM     28  C   UNL     1      11.245   6.909   1.097  0.00  0.00    +0.121 C 
BRANCH  28  29
ATOM     29  N   UNL     1      11.601   5.548   0.675  0.00  0.00    -0.298 NA
ATOM     30  C   UNL     1      13.022   5.274   0.924  0.00  0.00    +0.083 C 
ATOM     31  C   UNL     1      13.323   3.807   0.609  0.00  0.00    -0.001 C 
ATOM     32  C   UNL     1      12.979   3.523  -0.855  0.00  0.00    -0.073 C 
ATOM     33  C   UNL     1      11.506   3.862  -1.100  0.00  0.00    -0.001 C 
ATOM     34  C   UNL     1      11.258   5.328  -0.736  0.00  0.00    +0.083 C 
BRANCH  32  35
ATOM     35  N   UNL     1      13.211   2.103  -1.148  0.00  0.00    +0.380 N 
ATOM     36  H   UNL     1      12.628   1.536  -0.550  0.00  0.00    -0.090 HD
ATOM     37  H   UNL     1      12.984   1.916  -2.113  0.00  0.00    -0.090 HD
ATOM     38  H   UNL     1      14.181   1.879  -0.981  0.00  0.00    -0.090 HD
ENDBRANCH  32  35
ENDBRANCH  28  29
ENDBRANCH   4  28
TORSDOF 7
