REMARK  Name = CHEMBL330323
REMARK  4 active torsions:
REMARK  status: ('A' for Active; 'I' for Inactive)
REMARK    1  A    between atoms: C_1  and  O_2
REMARK    2  A    between atoms: O_2  and  C_3
REMARK    3  A    between atoms: C_8  and  O_9
REMARK    4  A    between atoms: O_9  and  C_10
REMARK                            x       y       z     vdW  Elec       q    Type
REMARK                         _______ _______ _______ _____ _____    ______ ____
ROOT
ATOM      1  C   UNL     1       0.626  -0.619   1.042  0.00  0.00    +0.162 A 
ATOM      2  C   UNL     1       1.191   0.135   2.032  0.00  0.00    +0.062 A 
ATOM      3  C   UNL     1       1.833  -0.497   3.103  0.00  0.00    +0.044 A 
ATOM      4  C   UNL     1       1.894  -1.912   3.155  0.00  0.00    +0.080 A 
ATOM      5  C   UNL     1       1.308  -2.664   2.130  0.00  0.00    +0.078 A 
ATOM      6  C   UNL     1       0.678  -2.019   1.090  0.00  0.00    +0.164 A 
ATOM      7  N   UNL     1       2.515  -2.492   4.194  0.00  0.00    -0.235 NA
ATOM      8  C   UNL     1       3.054  -1.761   5.140  0.00  0.00    +0.223 A 
ATOM      9  N   UNL     1       3.022  -0.438   5.133  0.00  0.00    -0.220 NA
ATOM     10  C   UNL     1       2.434   0.236   4.154  0.00  0.00    +0.135 A 
ATOM     11  N   UNL     1       2.408   1.618   4.159  0.00  0.00    -0.283 N 
ATOM     12  C   UNL     1       3.002   2.318   5.198  0.00  0.00    +0.132 A 
ATOM     13  C   UNL     1       2.973   3.730   5.210  0.00  0.00    +0.022 A 
ATOM     14  C   UNL     1       2.354   4.470   4.194  0.00  0.00    +0.012 A 
ATOM     15  C   UNL     1       2.355   5.831   4.257  0.00  0.00    +0.001 A 
ATOM     16  C   UNL     1       2.963   6.500   5.316  0.00  0.00    +0.001 A 
ATOM     17  C   UNL     1       3.575   5.813   6.322  0.00  0.00    +0.008 A 
ATOM     18  C   UNL     1       3.591   4.412   6.288  0.00  0.00    -0.013 A 
ATOM     19  C   UNL     1       4.205   3.644   7.298  0.00  0.00    +0.028 A 
ATOM     20  C   UNL     1       4.181   2.288   7.197  0.00  0.00    +0.113 A 
ATOM     21  N   UNL     1       3.593   1.668   6.183  0.00  0.00    -0.240 NA
ATOM     22  H   UNL     1       1.974   2.098   3.437  0.00  0.00    +0.155 HD
ENDROOT
BRANCH   1  24
ATOM     23  C   UNL     1      -0.017   1.425   0.010  0.00  0.00    +0.277 C 
ATOM     24  O   UNL     1       0.002  -0.004   0.002  0.00  0.00    -0.491 OA
ENDBRANCH   1  24
BRANCH   6  25
ATOM     25  O   UNL     1       0.104  -2.747   0.096  0.00  0.00    -0.491 OA
ATOM     26  C   UNL     1       0.190  -4.169   0.202  0.00  0.00    +0.277 C 
ENDBRANCH   6  25
TORSDOF 2
