REMARK  Name = CHEMBL76751
REMARK  3 active torsions:
REMARK  status: ('A' for Active; 'I' for Inactive)
REMARK    1  A    between atoms: C_3  and  C_6
REMARK    2  A    between atoms: C_11  and  N_15
REMARK    3  A    between atoms: N_15  and  C_16
REMARK                            x       y       z     vdW  Elec       q    Type
REMARK                         _______ _______ _______ _____ _____    ______ ____
ROOT
ATOM      1  C   UNL     1       3.789   1.831  -0.696  0.00  0.00    +0.029 A 
ATOM      2  C   UNL     1       4.931   1.109  -0.509  0.00  0.00    +0.045 A 
ATOM      3  C   UNL     1       6.144   1.771  -0.281  0.00  0.00    +0.084 A 
ATOM      4  C   UNL     1       6.075   3.182  -0.263  0.00  0.00    +0.078 A 
ATOM      5  S   UNL     1       4.361   3.517  -0.566  0.00  0.00    -0.083 S 
ATOM      6  C   UNL     1       7.205   3.950  -0.048  0.00  0.00    +0.141 A 
ATOM      7  N   UNL     1       8.368   3.325   0.144  0.00  0.00    -0.219 NA
ATOM      8  C   UNL     1       8.421   2.005   0.125  0.00  0.00    +0.224 A 
ATOM      9  N   UNL     1       7.378   1.242  -0.074  0.00  0.00    -0.235 NA
ENDROOT
BRANCH   1  12
ATOM     10  C   UNL     1       0.097   1.375  -1.364  0.00  0.00    +0.008 A 
ATOM     11  C   UNL     1       1.270   2.059  -1.143  0.00  0.00    +0.016 A 
ATOM     12  C   UNL     1       2.424   1.342  -0.948  0.00  0.00    +0.026 A 
ATOM     13  S   UNL     1       1.839  -0.339  -1.082  0.00  0.00    -0.096 S 
ATOM     14  C   UNL     1       0.116   0.017  -1.384  0.00  0.00    +0.046 A 
ENDBRANCH   1  12
BRANCH   6  15
ATOM     15  N   UNL     1       7.131   5.335  -0.032  0.00  0.00    -0.298 N 
ATOM     16  H   UNL     1       6.269   5.775  -0.089  0.00  0.00    +0.154 HD
BRANCH  15  17
ATOM     17  C   UNL     1       8.301   6.097   0.066  0.00  0.00    +0.033 A 
ATOM     18  C   UNL     1       9.471   5.658  -0.552  0.00  0.00    +0.025 A 
ATOM     19  C   UNL     1      10.630   6.396  -0.465  0.00  0.00    +0.028 A 
ATOM     20  C   UNL     1      10.641   7.592   0.245  0.00  0.00    +0.047 A 
ATOM     21  C   UNL     1       9.463   8.039   0.870  0.00  0.00    +0.001 A 
ATOM     22  C   UNL     1       8.291   7.286   0.771  0.00  0.00    +0.033 A 
ATOM     23  C   UNL     1       9.806   9.306   1.522  0.00  0.00    +0.027 A 
ATOM     24  C   UNL     1      11.103   9.540   1.267  0.00  0.00    +0.083 A 
ATOM     25  N   UNL     1      11.620   8.528   0.506  0.00  0.00    -0.361 N 
ATOM     26  H   UNL     1      12.537   8.476   0.197  0.00  0.00    +0.165 HD
ENDBRANCH  15  17
ENDBRANCH   6  15
TORSDOF 3
