REMARK  Name = CHEMBL92902
REMARK  5 active torsions:
REMARK  status: ('A' for Active; 'I' for Inactive)
REMARK    1  A    between atoms: C_1  and  N_2
REMARK    2  A    between atoms: C_6  and  C_8
REMARK    3  A    between atoms: N_10  and  C_11
REMARK    4  A    between atoms: C_17  and  N_21
REMARK    5  A    between atoms: N_21  and  C_22
REMARK                            x       y       z     vdW  Elec       q    Type
REMARK                         _______ _______ _______ _____ _____    ______ ____
ROOT
ATOM      1  C   UNL     1       3.372  -2.699   3.743  0.00  0.00    +0.034 A 
ATOM      2  C   UNL     1       3.226  -4.064   4.012  0.00  0.00    +0.025 A 
ATOM      3  C   UNL     1       3.955  -4.667   4.990  0.00  0.00    +0.030 A 
ATOM      4  C   UNL     1       4.867  -3.916   5.744  0.00  0.00    +0.076 A 
ATOM      5  C   UNL     1       5.021  -2.533   5.478  0.00  0.00    +0.042 A 
ATOM      6  C   UNL     1       4.266  -1.934   4.464  0.00  0.00    +0.036 A 
ATOM      7  C   UNL     1       5.950  -1.801   6.255  0.00  0.00    +0.134 A 
ATOM      8  N   UNL     1       6.630  -2.447   7.193  0.00  0.00    -0.220 NA
ATOM      9  C   UNL     1       6.453  -3.741   7.406  0.00  0.00    +0.223 A 
ATOM     10  N   UNL     1       5.607  -4.469   6.717  0.00  0.00    -0.235 NA
ENDROOT
BRANCH   1  13
ATOM     11  C   UNL     1       1.340  -2.507   2.522  0.00  0.00    +0.242 C 
ATOM     12  O   UNL     1       0.885  -3.441   3.153  0.00  0.00    -0.270 OA
ATOM     13  N   UNL     1       2.610  -2.106   2.731  0.00  0.00    -0.282 N 
ATOM     14  H   UNL     1       2.995  -1.407   2.181  0.00  0.00    +0.155 HD
BRANCH  11  20
ATOM     15  C   UNL     1       0.799   0.846  -1.071  0.00  0.00    -0.096 C 
ATOM     16  N   UNL     1       0.312  -0.387  -0.438  0.00  0.00    +0.381 N 
ATOM     17  C   UNL     1      -1.101  -0.222  -0.061  0.00  0.00    -0.075 C 
ATOM     18  C   UNL     1      -1.660  -1.586   0.350  0.00  0.00    +0.009 C 
ATOM     19  C   UNL     1      -0.735  -2.230   1.347  0.00  0.00    -0.022 C 
ATOM     20  C   UNL     1       0.505  -1.814   1.529  0.00  0.00    -0.006 C 
ATOM     21  C   UNL     1       1.099  -0.664   0.768  0.00  0.00    -0.038 C 
ATOM     22  H   UNL     1       0.402  -1.157  -1.085  0.00  0.00    -0.082 HD
ENDBRANCH  11  20
ENDBRANCH   1  13
BRANCH   7  23
ATOM     23  N   UNL     1       6.144  -0.451   6.043  0.00  0.00    -0.299 N 
ATOM     24  H   UNL     1       5.588   0.025   5.407  0.00  0.00    +0.154 HD
BRANCH  23  25
ATOM     25  C   UNL     1       7.144   0.231   6.744  0.00  0.00    +0.033 A 
ATOM     26  C   UNL     1       6.963   1.562   7.095  0.00  0.00    +0.023 A 
ATOM     27  C   UNL     1       7.952   2.233   7.787  0.00  0.00    +0.003 A 
ATOM     28  C   UNL     1       9.121   1.581   8.131  0.00  0.00    +0.015 A 
ATOM     29  C   UNL     1       9.305   0.254   7.784  0.00  0.00    +0.020 A 
ATOM     30  C   UNL     1       8.317  -0.424   7.096  0.00  0.00    +0.038 A 
ATOM     31 BR   UNL     1      10.906  -0.633   8.256  0.00  0.00    -0.050 Br
ENDBRANCH  23  25
ENDBRANCH   7  23
TORSDOF 4
