REMARK  Name = CHEMBL257816
REMARK  7 active torsions:
REMARK  status: ('A' for Active; 'I' for Inactive)
REMARK    1  A    between atoms: C_1  and  O_2
REMARK    2  A    between atoms: O_2  and  N_3
REMARK    3  A    between atoms: C_4  and  C_5
REMARK    4  A    between atoms: C_10  and  N_11
REMARK    5  A    between atoms: N_11  and  C_12
REMARK    6  A    between atoms: N_20  and  C_21
REMARK    7  A    between atoms: C_21  and  C_22
REMARK                            x       y       z     vdW  Elec       q    Type
REMARK                         _______ _______ _______ _____ _____    ______ ____
ROOT
ATOM      1  C   UNL     1       1.157  -6.044   2.136  0.00  0.00    +0.033 A 
ATOM      2  C   UNL     1       1.832  -6.474   3.279  0.00  0.00    +0.025 A 
ATOM      3  C   UNL     1       1.859  -7.809   3.615  0.00  0.00    +0.028 A 
ATOM      4  C   UNL     1       1.211  -8.742   2.813  0.00  0.00    +0.049 A 
ATOM      5  C   UNL     1       0.529  -8.313   1.661  0.00  0.00    +0.002 A 
ATOM      6  C   UNL     1       0.502  -6.956   1.330  0.00  0.00    +0.033 A 
ATOM      7  C   UNL     1      -0.034  -9.519   1.050  0.00  0.00    +0.027 A 
ATOM      8  C   UNL     1       0.319 -10.555   1.827  0.00  0.00    +0.087 A 
ATOM      9  N   UNL     1       1.063 -10.112   2.885  0.00  0.00    -0.342 N 
ENDROOT
BRANCH   1  10
ATOM     10  N   UNL     1       1.139  -4.683   1.808  0.00  0.00    -0.299 N 
ATOM     11  H   UNL     1       0.364  -4.301   1.369  0.00  0.00    +0.154 HD
BRANCH  10  17
ATOM     12  C   UNL     1       2.179  -2.496   1.887  0.00  0.00    +0.076 A 
ATOM     13  C   UNL     1       3.316  -1.736   2.220  0.00  0.00    +0.130 A 
ATOM     14  N   UNL     1       4.379  -2.358   2.722  0.00  0.00    -0.220 NA
ATOM     15  C   UNL     1       4.378  -3.663   2.909  0.00  0.00    +0.225 A 
ATOM     16  N   UNL     1       3.338  -4.416   2.612  0.00  0.00    -0.220 NA
ATOM     17  C   UNL     1       2.227  -3.885   2.110  0.00  0.00    +0.137 A 
ATOM     18  N   UNL     1       3.327  -0.367   2.027  0.00  0.00    -0.342 N 
ATOM     19  H   UNL     1       2.519   0.090   1.748  0.00  0.00    +0.144 HD
ATOM     20  H   UNL     1       4.144   0.136   2.172  0.00  0.00    +0.144 HD
BRANCH  12  22
ATOM     21  N   UNL     1       0.915  -0.568   1.227  0.00  0.00    -0.093 NA
ATOM     22  C   UNL     1       0.977  -1.858   1.327  0.00  0.00    +0.167 C 
BRANCH  21  24
ATOM     23  C   UNL     1      -0.172   1.472   0.638  0.00  0.00    +0.313 C 
ATOM     24  O   UNL     1      -0.242   0.046   0.689  0.00  0.00    -0.397 OA
ENDBRANCH  21  24
ENDBRANCH  12  22
ENDBRANCH  10  17
ENDBRANCH   1  10
BRANCH   9  25
ATOM     25  C   UNL     1       1.621 -10.964   3.938  0.00  0.00    +0.157 C 
BRANCH  25  26
ATOM     26  C   UNL     1       0.680 -10.990   5.115  0.00  0.00    -0.025 A 
ATOM     27  C   UNL     1       0.807 -10.051   6.122  0.00  0.00    +0.005 A 
ATOM     28  C   UNL     1      -0.055 -10.073   7.202  0.00  0.00    +0.003 A 
ATOM     29  C   UNL     1      -1.045 -11.035   7.277  0.00  0.00    +0.038 A 
ATOM     30  C   UNL     1      -1.173 -11.976   6.270  0.00  0.00    +0.124 A 
ATOM     31  C   UNL     1      -0.312 -11.949   5.185  0.00  0.00    +0.043 A 
ATOM     32  F   UNL     1      -2.140 -12.916   6.342  0.00  0.00    -0.205 F 
ENDBRANCH  25  26
ENDBRANCH   9  25
TORSDOF 6
