REMARK  Name = CHEMBL213874
REMARK  7 active torsions:
REMARK  status: ('A' for Active; 'I' for Inactive)
REMARK    1  A    between atoms: C_1  and  N_2
REMARK    2  A    between atoms: C_5  and  C_8
REMARK    3  A    between atoms: C_8  and  O_9
REMARK    4  A    between atoms: O_9  and  C_10
REMARK    5  A    between atoms: C_15  and  O_16
REMARK    6  A    between atoms: O_16  and  C_17
REMARK    7  A    between atoms: N_22  and  C_23
REMARK                            x       y       z     vdW  Elec       q    Type
REMARK                         _______ _______ _______ _____ _____    ______ ____
ROOT
ATOM      1  C   UNL     1      -0.480  -6.061   2.441  0.00  0.00    +0.163 A 
ATOM      2  C   UNL     1      -0.656  -6.814   1.315  0.00  0.00    +0.062 A 
ATOM      3  C   UNL     1      -0.577  -8.210   1.396  0.00  0.00    +0.044 A 
ATOM      4  C   UNL     1      -0.317  -8.832   2.643  0.00  0.00    +0.080 A 
ATOM      5  C   UNL     1      -0.141  -8.040   3.784  0.00  0.00    +0.078 A 
ATOM      6  C   UNL     1      -0.217  -6.668   3.676  0.00  0.00    +0.164 A 
ATOM      7  N   UNL     1      -0.246 -10.171   2.692  0.00  0.00    -0.235 NA
ATOM      8  C   UNL     1      -0.415 -10.887   1.606  0.00  0.00    +0.223 A 
ATOM      9  N   UNL     1      -0.660 -10.350   0.422  0.00  0.00    -0.220 NA
ATOM     10  C   UNL     1      -0.750  -9.037   0.261  0.00  0.00    +0.134 A 
ATOM     11  N   UNL     1      -1.006  -8.491  -0.981  0.00  0.00    -0.297 N 
ATOM     12  H   UNL     1      -0.977  -7.529  -1.103  0.00  0.00    +0.154 HD
ENDROOT
BRANCH  11  13
ATOM     13  C   UNL     1      -1.309  -9.324  -2.063  0.00  0.00    +0.070 A 
ATOM     14  C   UNL     1      -1.734 -10.627  -1.839  0.00  0.00    +0.026 A 
ATOM     15  C   UNL     1      -2.033 -11.449  -2.909  0.00  0.00    +0.003 A 
ATOM     16  C   UNL     1      -1.908 -10.976  -4.203  0.00  0.00    +0.023 A 
ATOM     17  C   UNL     1      -1.485  -9.679  -4.431  0.00  0.00    +0.078 A 
ATOM     18  C   UNL     1      -1.190  -8.849  -3.364  0.00  0.00    +0.163 A 
ATOM     19  F   UNL     1      -0.783  -7.580  -3.586  0.00  0.00    -0.202 F 
ATOM     20 CL   UNL     1      -1.329  -9.091  -6.057  0.00  0.00    -0.081 Cl
ENDBRANCH  11  13
BRANCH   6  21
ATOM     21  O   UNL     1      -0.041  -5.897   4.781  0.00  0.00    -0.491 OA
ATOM     22  C   UNL     1       0.225  -6.576   6.010  0.00  0.00    +0.277 C 
ENDBRANCH   6  21
BRANCH   1  23
ATOM     23  O   UNL     1      -0.557  -4.705   2.362  0.00  0.00    -0.488 OA
BRANCH  23  24
ATOM     24  C   UNL     1      -0.828  -4.145   1.075  0.00  0.00    +0.232 C 
BRANCH  24  29
ATOM     25  C   UNL     1       0.140   1.418   0.276  0.00  0.00    -0.096 C 
ATOM     26  N   UNL     1       0.098  -0.051   0.265  0.00  0.00    +0.378 N 
ATOM     27  C   UNL     1      -1.259  -0.497  -0.074  0.00  0.00    -0.079 C 
ATOM     28  C   UNL     1      -1.289  -2.024  -0.166  0.00  0.00    -0.012 C 
ATOM     29  C   UNL     1      -0.876  -2.620   1.183  0.00  0.00    +0.023 C 
ATOM     30  C   UNL     1       0.509  -2.089   1.562  0.00  0.00    -0.012 C 
ATOM     31  C   UNL     1       0.473  -0.559   1.590  0.00  0.00    -0.079 C 
ATOM     32  H   UNL     1       0.747  -0.400  -0.424  0.00  0.00    -0.082 HD
ENDBRANCH  24  29
ENDBRANCH  23  24
ENDBRANCH   1  23
TORSDOF 5
