REMARK  Name = CHEMBL204268
REMARK  5 active torsions:
REMARK  status: ('A' for Active; 'I' for Inactive)
REMARK    1  A    between atoms: C_1  and  O_2
REMARK    2  A    between atoms: O_2  and  C_3
REMARK    3  A    between atoms: C_7  and  O_9
REMARK    4  A    between atoms: O_9  and  C_10
REMARK    5  A    between atoms: N_19  and  C_20
REMARK                            x       y       z     vdW  Elec       q    Type
REMARK                         _______ _______ _______ _____ _____    ______ ____
ROOT
ATOM      1  C   UNL     1      -0.117  -1.494   0.362  0.00  0.00    +0.126 A 
ATOM      2  C   UNL     1      -0.901  -0.407   0.692  0.00  0.00    +0.074 A 
ATOM      3  C   UNL     1      -2.293  -0.530   0.687  0.00  0.00    +0.083 A 
ATOM      4  C   UNL     1      -2.883  -1.771   0.342  0.00  0.00    +0.082 A 
ATOM      5  C   UNL     1      -2.066  -2.865   0.009  0.00  0.00    +0.137 A 
ATOM      6  C   UNL     1      -0.696  -2.715   0.017  0.00  0.00    +0.092 A 
ATOM      7  C   UNL     1      -4.293  -1.865   0.345  0.00  0.00    +0.137 A 
ATOM      8  N   UNL     1      -4.994  -0.785   0.671  0.00  0.00    -0.220 NA
ATOM      9  C   UNL     1      -4.400   0.355   0.987  0.00  0.00    +0.223 A 
ATOM     10  N   UNL     1      -3.096   0.500   1.000  0.00  0.00    -0.235 NA
ATOM     11  N   UNL     1      -4.925  -3.047   0.018  0.00  0.00    -0.299 N 
ATOM     12  H   UNL     1      -4.404  -3.851  -0.128  0.00  0.00    +0.154 HD
ENDROOT
BRANCH  11  13
ATOM     13  C   UNL     1      -6.319  -3.085  -0.103  0.00  0.00    +0.034 A 
ATOM     14  C   UNL     1      -7.050  -1.904  -0.086  0.00  0.00    +0.026 A 
ATOM     15  C   UNL     1      -8.426  -1.943  -0.206  0.00  0.00    +0.041 A 
ATOM     16  C   UNL     1      -9.076  -3.158  -0.343  0.00  0.00    +0.142 A 
ATOM     17  C   UNL     1      -8.348  -4.337  -0.360  0.00  0.00    +0.078 A 
ATOM     18  C   UNL     1      -6.971  -4.302  -0.246  0.00  0.00    +0.046 A 
ATOM     19 CL   UNL     1      -9.166  -5.859  -0.530  0.00  0.00    -0.081 Cl
ATOM     20  F   UNL     1     -10.421  -3.194  -0.460  0.00  0.00    -0.204 F 
ENDBRANCH  11  13
BRANCH   1  22
ATOM     21  C   UNL     1       1.770  -0.096   0.730  0.00  0.00    +0.277 C 
ATOM     22  O   UNL     1       1.236  -1.371   0.368  0.00  0.00    -0.495 OA
ENDBRANCH   1  22
BRANCH   5  23
ATOM     23  O   UNL     1      -2.622  -4.058  -0.322  0.00  0.00    -0.486 OA
BRANCH  23  24
ATOM     24  C   UNL     1      -1.734  -5.087  -0.763  0.00  0.00    +0.201 C 
ATOM     25  C   UNL     1      -2.487  -6.112  -1.645  0.00  0.00    +0.075 C 
ATOM     26  C   UNL     1      -1.886  -7.458  -1.164  0.00  0.00    +0.163 C 
ATOM     27  O   UNL     1      -1.708  -7.259   0.255  0.00  0.00    -0.376 OA
ATOM     28  C   UNL     1      -1.231  -5.916   0.435  0.00  0.00    +0.204 C 
ENDBRANCH  23  24
ENDBRANCH   5  23
TORSDOF 4
