REMARK  Name = CHEMBL247916
REMARK  6 active torsions:
REMARK  status: ('A' for Active; 'I' for Inactive)
REMARK    1  A    between atoms: C_6  and  N_7
REMARK    2  A    between atoms: C_10  and  C_17
REMARK    3  A    between atoms: C_17  and  N_18
REMARK    4  A    between atoms: C_21  and  N_24
REMARK    5  A    between atoms: N_27  and  C_28
REMARK    6  A    between atoms: C_28  and  C_29
REMARK                            x       y       z     vdW  Elec       q    Type
REMARK                         _______ _______ _______ _____ _____    ______ ____
ROOT
ATOM      1  N   UNL     1      -1.290  -0.667   0.462  0.00  0.00    -0.298 N 
ATOM      2  C   UNL     1      -2.520  -0.040   0.492  0.00  0.00    +0.151 A 
ATOM      3  C   UNL     1      -3.711  -0.795   0.396  0.00  0.00    +0.110 A 
ATOM      4  C   UNL     1      -3.982  -2.143   0.266  0.00  0.00    -0.003 A 
ATOM      5  C   UNL     1      -5.370  -2.275   0.223  0.00  0.00    +0.027 A 
ATOM      6  C   UNL     1      -5.912  -1.032   0.325  0.00  0.00    +0.113 A 
ATOM      7  N   UNL     1      -4.921  -0.127   0.430  0.00  0.00    -0.235 N 
ATOM      8  N   UNL     1      -4.907   1.269   0.558  0.00  0.00    -0.155 NA
ATOM      9  C   UNL     1      -3.771   1.905   0.641  0.00  0.00    +0.245 A 
ATOM     10  N   UNL     1      -2.598   1.275   0.616  0.00  0.00    -0.217 NA
ATOM     11  H   UNL     1      -1.237  -1.623   0.308  0.00  0.00    +0.154 HD
ENDROOT
BRANCH   1  17
ATOM     12  C   UNL     1      -0.031   1.374   0.148  0.00  0.00    +0.025 A 
ATOM     13  C   UNL     1       1.101   2.116   0.326  0.00  0.00    +0.030 A 
ATOM     14  C   UNL     1       2.186   1.581   1.017  0.00  0.00    +0.069 A 
ATOM     15  C   UNL     1       2.106   0.273   1.532  0.00  0.00    +0.021 A 
ATOM     16  C   UNL     1       0.940  -0.477   1.345  0.00  0.00    +0.034 A 
ATOM     17  C   UNL     1      -0.120   0.077   0.654  0.00  0.00    +0.033 A 
ATOM     18  C   UNL     1       3.383   0.013   2.191  0.00  0.00    +0.143 A 
ATOM     19  N   UNL     1       4.121   1.078   2.062  0.00  0.00    -0.178 NA
ATOM     20  N   UNL     1       3.427   2.062   1.350  0.00  0.00    -0.259 N 
BRANCH  20  21
ATOM     21  C   UNL     1       3.943   3.391   1.014  0.00  0.00    +0.179 C 
BRANCH  21  22
ATOM     22  C   UNL     1       3.595   4.358   2.116  0.00  0.00    -0.023 A 
ATOM     23  C   UNL     1       2.404   5.068   2.088  0.00  0.00    +0.025 A 
ATOM     24  C   UNL     1       2.119   5.946   3.116  0.00  0.00    +0.111 A 
ATOM     25  N   UNL     1       2.965   6.113   4.114  0.00  0.00    -0.263 NA
ATOM     26  C   UNL     1       4.106   5.455   4.174  0.00  0.00    +0.111 A 
ATOM     27  C   UNL     1       4.456   4.556   3.185  0.00  0.00    +0.025 A 
ENDBRANCH  21  22
ENDBRANCH  20  21
ENDBRANCH   1  17
BRANCH   4  28
ATOM     28  C   UNL     1      -2.971  -3.258   0.185  0.00  0.00    +0.121 C 
BRANCH  28  29
ATOM     29  N   UNL     1      -2.426  -3.327  -1.177  0.00  0.00    -0.298 NA
ATOM     30  C   UNL     1      -3.449  -3.775  -2.131  0.00  0.00    +0.083 C 
ATOM     31  C   UNL     1      -2.892  -3.697  -3.554  0.00  0.00    -0.001 C 
ATOM     32  C   UNL     1      -1.647  -4.582  -3.659  0.00  0.00    -0.073 C 
ATOM     33  C   UNL     1      -0.617  -4.126  -2.622  0.00  0.00    -0.001 C 
ATOM     34  C   UNL     1      -1.240  -4.192  -1.226  0.00  0.00    +0.083 C 
BRANCH  32  35
ATOM     35  N   UNL     1      -1.074  -4.466  -5.006  0.00  0.00    +0.380 N 
ATOM     36  H   UNL     1      -0.818  -3.505  -5.181  0.00  0.00    -0.090 HD
ATOM     37  H   UNL     1      -0.254  -5.050  -5.074  0.00  0.00    -0.090 HD
ATOM     38  H   UNL     1      -1.755  -4.762  -5.688  0.00  0.00    -0.090 HD
ENDBRANCH  32  35
ENDBRANCH  28  29
ENDBRANCH   4  28
TORSDOF 6
