REMARK  Name = CHEMBL258270
REMARK  10 active torsions:
REMARK  status: ('A' for Active; 'I' for Inactive)
REMARK    1  A    between atoms: C_1  and  C_2
REMARK    2  A    between atoms: N_7  and  C_10
REMARK    3  A    between atoms: C_10  and  C_11
REMARK    4  A    between atoms: C_11  and  O_12
REMARK    5  A    between atoms: O_12  and  C_13
REMARK    6  A    between atoms: C_22  and  N_23
REMARK    7  A    between atoms: N_23  and  C_24
REMARK    8  A    between atoms: C_27  and  O_31
REMARK    9  A    between atoms: O_31  and  C_32
REMARK   10  A    between atoms: C_32  and  C_33
REMARK                            x       y       z     vdW  Elec       q    Type
REMARK                         _______ _______ _______ _____ _____    ______ ____
ROOT
ATOM      1  C   UNL     1      -1.541  -6.130  -2.561  0.00  0.00    +0.246 A 
ATOM      2  C   UNL     1      -1.619  -6.864  -1.303  0.00  0.00    +0.121 A 
ATOM      3  C   UNL     1      -1.343  -8.212  -1.609  0.00  0.00    +0.164 A 
ATOM      4  N   UNL     1      -1.119  -8.271  -2.951  0.00  0.00    -0.257 N 
ATOM      5  H   UNL     1      -0.904  -9.076  -3.449  0.00  0.00    +0.191 HD
ATOM      6  N   UNL     1      -1.252  -6.992  -3.501  0.00  0.00    -0.134 NA
ATOM      7  N   UNL     1      -1.351  -9.106  -0.621  0.00  0.00    -0.216 NA
ATOM      8  C   UNL     1      -1.610  -8.738   0.614  0.00  0.00    +0.225 A 
ATOM      9  N   UNL     1      -1.874  -7.487   0.947  0.00  0.00    -0.220 NA
ATOM     10  C   UNL     1      -1.890  -6.522   0.033  0.00  0.00    +0.141 A 
ENDROOT
BRANCH  10  11
ATOM     11  N   UNL     1      -2.167  -5.215   0.387  0.00  0.00    -0.299 N 
ATOM     12  H   UNL     1      -2.256  -4.535  -0.299  0.00  0.00    +0.154 HD
BRANCH  11  13
ATOM     13  C   UNL     1      -2.317  -4.873   1.736  0.00  0.00    +0.034 A 
ATOM     14  C   UNL     1      -3.224  -3.888   2.106  0.00  0.00    +0.027 A 
ATOM     15  C   UNL     1      -3.373  -3.550   3.437  0.00  0.00    +0.049 A 
ATOM     16  C   UNL     1      -2.617  -4.194   4.405  0.00  0.00    +0.139 A 
ATOM     17  C   UNL     1      -1.710  -5.179   4.037  0.00  0.00    +0.084 A 
ATOM     18  C   UNL     1      -1.565  -5.522   2.706  0.00  0.00    +0.047 A 
ATOM     19 CL   UNL     1      -0.764  -5.985   5.249  0.00  0.00    -0.080 Cl
BRANCH  16  20
ATOM     20  O   UNL     1      -2.764  -3.861   5.715  0.00  0.00    -0.484 OA
BRANCH  20  21
ATOM     21  C   UNL     1      -3.714  -2.839   6.022  0.00  0.00    +0.284 C 
BRANCH  21  22
ATOM     22  C   UNL     1      -3.739  -2.606   7.511  0.00  0.00    +0.078 A 
ATOM     23  C   UNL     1      -2.905  -3.343   8.331  0.00  0.00    +0.027 A 
ATOM     24  C   UNL     1      -2.936  -3.121   9.699  0.00  0.00    +0.003 A 
ATOM     25  C   UNL     1      -3.808  -2.163  10.193  0.00  0.00    +0.020 A 
ATOM     26  C   UNL     1      -4.611  -1.465   9.312  0.00  0.00    +0.111 A 
ATOM     27  N   UNL     1      -4.552  -1.699   8.015  0.00  0.00    -0.256 NA
ENDBRANCH  21  22
ENDBRANCH  20  21
ENDBRANCH  16  20
ENDBRANCH  11  13
ENDBRANCH  10  11
BRANCH   1  28
ATOM     28  O   UNL     1      -1.740  -4.796  -2.727  0.00  0.00    -0.477 OA
BRANCH  28  29
ATOM     29  C   UNL     1      -1.620  -4.283  -4.056  0.00  0.00    +0.212 C 
BRANCH  29  30
ATOM     30  C   UNL     1      -1.875  -2.775  -4.044  0.00  0.00    -0.037 C 
BRANCH  30  37
ATOM     31  C   UNL     1       1.705   2.119  -2.357  0.00  0.00    +0.109 C 
ATOM     32  C   UNL     1       2.062   0.722  -2.795  0.00  0.00    +0.212 C 
ATOM     33  O   UNL     1       3.147   0.500  -3.291  0.00  0.00    -0.276 OA
ATOM     34  N   UNL     1       1.176  -0.281  -2.637  0.00  0.00    -0.305 N 
ATOM     35  C   UNL     1       1.541  -1.671  -2.954  0.00  0.00    +0.089 C 
ATOM     36  C   UNL     1       0.459  -2.261  -3.865  0.00  0.00    -0.059 C 
ATOM     37  N   UNL     1      -0.853  -2.111  -3.224  0.00  0.00    +0.384 N 
ATOM     38  C   UNL     1      -1.185  -0.687  -3.090  0.00  0.00    -0.059 C 
ATOM     39  C   UNL     1      -0.182  -0.019  -2.136  0.00  0.00    +0.089 C 
ATOM     40  H   UNL     1      -0.831  -2.538  -2.310  0.00  0.00    -0.082 HD
ENDBRANCH  30  37
ENDBRANCH  29  30
ENDBRANCH  28  29
ENDBRANCH   1  28
TORSDOF 9
