REMARK  Name = CHEMBL448172
REMARK  10 active torsions:
REMARK  status: ('A' for Active; 'I' for Inactive)
REMARK    1  A    between atoms: C_1  and  C_2
REMARK    2  A    between atoms: N_5  and  C_8
REMARK    3  A    between atoms: C_8  and  C_9
REMARK    4  A    between atoms: C_9  and  C_10
REMARK    5  A    between atoms: C_10  and  O_11
REMARK    6  A    between atoms: O_11  and  C_12
REMARK    7  A    between atoms: C_16  and  C_20
REMARK    8  A    between atoms: C_20  and  C_21
REMARK    9  A    between atoms: C_30  and  N_31
REMARK   10  A    between atoms: C_32  and  C_34
REMARK                            x       y       z     vdW  Elec       q    Type
REMARK                         _______ _______ _______ _____ _____    ______ ____
ROOT
ATOM      1  C   UNL     1       0.436  -7.652   4.356  0.00  0.00    +0.162 A 
ATOM      2  C   UNL     1      -0.058  -8.540   3.440  0.00  0.00    +0.079 A 
ATOM      3  C   UNL     1       0.003  -9.912   3.745  0.00  0.00    +0.096 A 
ATOM      4  C   UNL     1       0.569 -10.319   4.980  0.00  0.00    +0.113 A 
ATOM      5  C   UNL     1       0.617 -11.697   5.261  0.00  0.00    +0.075 A 
ATOM      6  N   UNL     1       0.136 -12.537   4.367  0.00  0.00    -0.238 NA
ATOM      7  C   UNL     1      -0.384 -12.115   3.224  0.00  0.00    +0.222 A 
ATOM      8  N   UNL     1      -0.457 -10.845   2.905  0.00  0.00    -0.234 NA
ATOM      9  N   UNL     1       1.036  -9.410   5.839  0.00  0.00    -0.225 NA
ATOM     10  C   UNL     1       0.989  -8.125   5.562  0.00  0.00    +0.168 A 
ENDROOT
BRANCH  10  11
ATOM     11  N   UNL     1       1.493  -7.212   6.483  0.00  0.00    -0.264 N 
ATOM     12  C   UNL     1       2.026  -7.648   7.642  0.00  0.00    +0.242 C 
ATOM     13  O   UNL     1       2.067  -8.840   7.882  0.00  0.00    -0.270 OA
ATOM     14  H   UNL     1       1.461  -6.262   6.291  0.00  0.00    +0.157 HD
BRANCH  12  15
ATOM     15  C   UNL     1       2.558  -6.683   8.615  0.00  0.00    +0.060 C 
ATOM     16  C   UNL     1       3.084  -7.114   9.759  0.00  0.00    +0.013 C 
ENDBRANCH  12  15
ENDBRANCH  10  11
BRANCH   1  17
ATOM     17  O   UNL     1       0.397  -6.319   4.101  0.00  0.00    -0.489 OA
BRANCH  17  18
ATOM     18  C   UNL     1      -0.178  -5.912   2.858  0.00  0.00    +0.227 C 
BRANCH  18  19
ATOM     19  C   UNL     1      -0.134  -4.387   2.750  0.00  0.00    +0.022 C 
BRANCH  19  20
ATOM     20  C   UNL     1      -0.750  -3.952   1.419  0.00  0.00    -0.076 C 
BRANCH  20  25
ATOM     21  C   UNL     1      -0.019   1.526   0.010  0.00  0.00    +0.007 C 
ATOM     22  C   UNL     1       0.002  -0.004   0.002  0.00  0.00    -0.018 C 
ATOM     23  C   UNL     1      -1.434  -0.536   0.023  0.00  0.00    -0.016 C 
ATOM     24  C   UNL     1      -1.405  -2.064   0.095  0.00  0.00    -0.079 C 
ATOM     25  N   UNL     1      -0.707  -2.487   1.315  0.00  0.00    +0.380 N 
ATOM     26  C   UNL     1       0.691  -2.042   1.269  0.00  0.00    -0.079 C 
ATOM     27  C   UNL     1       0.743  -0.513   1.242  0.00  0.00    -0.016 C 
ATOM     28  H   UNL     1      -1.162  -2.082   2.119  0.00  0.00    -0.082 HD
ENDBRANCH  20  25
ENDBRANCH  19  20
ENDBRANCH  18  19
ENDBRANCH  17  18
ENDBRANCH   1  17
BRANCH   5  29
ATOM     29  C   UNL     1       1.204 -12.200   6.554  0.00  0.00    +0.093 C 
BRANCH  29  30
ATOM     30  C   UNL     1       0.121 -12.288   7.598  0.00  0.00    -0.040 A 
ATOM     31  C   UNL     1      -0.149 -11.199   8.406  0.00  0.00    +0.007 A 
ATOM     32  C   UNL     1      -1.142 -11.278   9.363  0.00  0.00    +0.040 A 
ATOM     33  C   UNL     1      -1.868 -12.447   9.513  0.00  0.00    +0.142 A 
ATOM     34  C   UNL     1      -1.597 -13.538   8.703  0.00  0.00    +0.076 A 
ATOM     35  C   UNL     1      -0.606 -13.455   7.742  0.00  0.00    +0.027 A 
ATOM     36 CL   UNL     1      -2.506 -15.005   8.889  0.00  0.00    -0.081 Cl
ATOM     37  F   UNL     1      -2.839 -12.525  10.449  0.00  0.00    -0.204 F 
ENDBRANCH  29  30
ENDBRANCH   5  29
TORSDOF 9
