REMARK  Name = CHEMBL7827
REMARK  3 active torsions:
REMARK  status: ('A' for Active; 'I' for Inactive)
REMARK    1  A    between atoms: C_3  and  C_8
REMARK    2  A    between atoms: C_13  and  O_20
REMARK    3  A    between atoms: C_15  and  O_19
REMARK                            x       y       z     vdW  Elec       q    Type
REMARK                         _______ _______ _______ _____ _____    ______ ____
ROOT
ATOM      1  C   UNL     1       3.659   2.166  -0.022  0.00  0.00    +0.064 A 
ATOM      2  C   UNL     1       4.021   2.936   1.037  0.00  0.00    +0.208 A 
ATOM      3  O   UNL     1       5.167   3.620   1.074  0.00  0.00    -0.462 OA
ATOM      4  C   UNL     1       5.894   3.846  -0.037  0.00  0.00    +0.145 A 
ATOM      5  C   UNL     1       6.891   4.811  -0.044  0.00  0.00    +0.092 A 
ATOM      6  C   UNL     1       7.640   5.029  -1.190  0.00  0.00    +0.124 A 
ATOM      7  C   UNL     1       7.406   4.288  -2.344  0.00  0.00    +0.091 A 
ATOM      8  C   UNL     1       6.415   3.324  -2.360  0.00  0.00    +0.135 A 
ATOM      9  C   UNL     1       5.651   3.104  -1.207  0.00  0.00    +0.106 A 
ATOM     10  C   UNL     1       4.574   2.098  -1.179  0.00  0.00    +0.204 A 
ATOM     11  O   UNL     1       4.443   1.265  -2.058  0.00  0.00    -0.286 OA
ENDROOT
BRANCH   1  14
ATOM     12  C   UNL     1      -0.017   1.379   0.010  0.00  0.00    +0.002 A 
ATOM     13  C   UNL     1       1.167   2.088   0.002  0.00  0.00    +0.009 A 
ATOM     14  C   UNL     1       2.384   1.408  -0.013  0.00  0.00    -0.010 A 
ATOM     15  C   UNL     1       2.398   0.015  -0.021  0.00  0.00    +0.028 A 
ATOM     16  C   UNL     1       1.208  -0.685  -0.013  0.00  0.00    +0.042 A 
ATOM     17  C   UNL     1       0.002  -0.004   0.002  0.00  0.00    +0.020 A 
ATOM     18 CL   UNL     1       1.222  -2.421  -0.023  0.00  0.00    -0.084 Cl
ENDBRANCH   1  14
BRANCH   8  19
ATOM     19  O   UNL     1       6.186   2.597  -3.482  0.00  0.00    -0.506 OA
ATOM     20  H   UNL     1       6.703   1.782  -3.535  0.00  0.00    +0.292 HD
ENDBRANCH   8  19
BRANCH   6  21
ATOM     21  O   UNL     1       8.611   5.977  -1.186  0.00  0.00    -0.507 OA
ATOM     22  H   UNL     1       9.480   5.648  -0.916  0.00  0.00    +0.292 HD
ENDBRANCH   6  21
TORSDOF 3
