REMARK  Name = CHEMBL396079
REMARK  7 active torsions:
REMARK  status: ('A' for Active; 'I' for Inactive)
REMARK    1  A    between atoms: C_5  and  C_7
REMARK    2  A    between atoms: C_7  and  N_8
REMARK    3  A    between atoms: C_12  and  N_17
REMARK    4  A    between atoms: C_20  and  C_27
REMARK    5  A    between atoms: C_27  and  O_28
REMARK    6  A    between atoms: O_28  and  C_29
REMARK    7  A    between atoms: C_29  and  C_30
REMARK                            x       y       z     vdW  Elec       q    Type
REMARK                         _______ _______ _______ _____ _____    ______ ____
ROOT
ATOM      1  N   UNL     1       0.972  -3.917  -6.428  0.00  0.00    -0.298 N 
ATOM      2  C   UNL     1      -0.309  -3.942  -6.944  0.00  0.00    +0.151 A 
ATOM      3  C   UNL     1      -0.539  -4.391  -8.265  0.00  0.00    +0.111 A 
ATOM      4  C   UNL     1       0.281  -4.860  -9.273  0.00  0.00    +0.008 A 
ATOM      5  C   UNL     1      -0.542  -5.150 -10.362  0.00  0.00    +0.028 A 
ATOM      6  C   UNL     1      -1.822  -4.859 -10.008  0.00  0.00    +0.113 A 
ATOM      7  N   UNL     1      -1.835  -4.399  -8.743  0.00  0.00    -0.235 N 
ATOM      8  N   UNL     1      -2.860  -3.961  -7.893  0.00  0.00    -0.155 NA
ATOM      9  C   UNL     1      -2.579  -3.559  -6.684  0.00  0.00    +0.245 A 
ATOM     10  N   UNL     1      -1.335  -3.550  -6.208  0.00  0.00    -0.217 NA
ATOM     11  H   UNL     1       1.710  -4.280  -6.942  0.00  0.00    +0.154 HD
ENDROOT
BRANCH   1  16
ATOM     12  N   UNL     1       1.715  -1.565  -1.488  0.00  0.00    -0.258 N 
ATOM     13  C   UNL     1       1.696  -2.304  -2.643  0.00  0.00    +0.069 A 
ATOM     14  C   UNL     1       2.389  -3.433  -3.075  0.00  0.00    +0.030 A 
ATOM     15  C   UNL     1       2.146  -3.953  -4.313  0.00  0.00    +0.025 A 
ATOM     16  C   UNL     1       1.205  -3.368  -5.161  0.00  0.00    +0.033 A 
ATOM     17  C   UNL     1       0.504  -2.249  -4.758  0.00  0.00    +0.034 A 
ATOM     18  C   UNL     1       0.744  -1.705  -3.491  0.00  0.00    +0.021 A 
ATOM     19  C   UNL     1       0.203  -0.564  -2.760  0.00  0.00    +0.143 A 
ATOM     20  N   UNL     1       0.791  -0.521  -1.598  0.00  0.00    -0.178 NA
BRANCH  12  21
ATOM     21  C   UNL     1       2.563  -1.830  -0.323  0.00  0.00    +0.199 C 
BRANCH  21  26
ATOM     22  C   UNL     1       1.778  -4.782   1.885  0.00  0.00    +0.003 A 
ATOM     23  C   UNL     1       0.517  -4.410   2.327  0.00  0.00    +0.020 A 
ATOM     24  C   UNL     1      -0.024  -3.216   1.890  0.00  0.00    +0.111 A 
ATOM     25  N   UNL     1       0.643  -2.436   1.063  0.00  0.00    -0.258 NA
ATOM     26  C   UNL     1       1.843  -2.757   0.622  0.00  0.00    +0.063 A 
ATOM     27  C   UNL     1       2.449  -3.936   1.016  0.00  0.00    +0.025 A 
ENDBRANCH  21  26
ENDBRANCH  12  21
ENDBRANCH   1  16
BRANCH   4  28
ATOM     28  C   UNL     1       1.778  -5.026  -9.208  0.00  0.00    +0.197 C 
BRANCH  28  29
ATOM     29  O   UNL     1       2.254  -5.538 -10.454  0.00  0.00    -0.373 OA
BRANCH  29  30
ATOM     30  C   UNL     1       3.669  -5.734 -10.500  0.00  0.00    +0.189 C 
BRANCH  30  31
ATOM     31  C   UNL     1       4.064  -6.282 -11.873  0.00  0.00    +0.127 C 
ATOM     32  C   UNL     1       5.560  -6.607 -11.882  0.00  0.00    -0.048 C 
ATOM     33  N   UNL     1       5.948  -7.077 -13.218  0.00  0.00    +0.382 N 
ATOM     34  C   UNL     1       5.668  -6.027 -14.207  0.00  0.00    -0.054 C 
ATOM     35  C   UNL     1       4.172  -5.703 -14.194  0.00  0.00    +0.141 C 
ATOM     36  O   UNL     1       3.788  -5.300 -12.876  0.00  0.00    -0.378 OA
ATOM     37  H   UNL     1       6.934  -7.292 -13.226  0.00  0.00    -0.086 HD
ATOM     38  H   UNL     1       5.421  -7.906 -13.450  0.00  0.00    -0.086 HD
ENDBRANCH  30  31
ENDBRANCH  29  30
ENDBRANCH  28  29
ENDBRANCH   4  28
TORSDOF 7
