REMARK  Name = CHEMBL517127
REMARK  9 active torsions:
REMARK  status: ('A' for Active; 'I' for Inactive)
REMARK    1  A    between atoms: C_2  and  C_3
REMARK    2  A    between atoms: C_3  and  C_5
REMARK    3  A    between atoms: C_5  and  C_6
REMARK    4  A    between atoms: C_5  and  C_15
REMARK    5  A    between atoms: C_6  and  C_7
REMARK    6  A    between atoms: C_7  and  C_8
REMARK    7  A    between atoms: C_8  and  N_9
REMARK    8  A    between atoms: C_21  and  N_25
REMARK    9  A    between atoms: N_25  and  C_26
REMARK                            x       y       z     vdW  Elec       q    Type
REMARK                         _______ _______ _______ _____ _____    ______ ____
ROOT
ATOM      1  C   UNL     1       0.808  -2.228   1.609  0.00  0.00    -0.036 A 
ATOM      2  C   UNL     1       1.789  -1.885   2.535  0.00  0.00    +0.006 A 
ATOM      3  C   UNL     1       1.857  -2.504   3.748  0.00  0.00    +0.029 A 
ATOM      4  C   UNL     1       0.925  -3.500   4.070  0.00  0.00    +0.076 A 
ATOM      5  C   UNL     1      -0.073  -3.846   3.126  0.00  0.00    +0.041 A 
ATOM      6  C   UNL     1      -0.117  -3.189   1.892  0.00  0.00    +0.017 A 
ATOM      7  C   UNL     1      -1.003  -4.855   3.476  0.00  0.00    +0.134 A 
ATOM      8  N   UNL     1      -0.891  -5.423   4.670  0.00  0.00    -0.220 NA
ATOM      9  C   UNL     1       0.058  -5.066   5.519  0.00  0.00    +0.223 A 
ATOM     10  N   UNL     1       0.946  -4.138   5.249  0.00  0.00    -0.235 NA
ENDROOT
BRANCH   7  11
ATOM     11  N   UNL     1      -1.998  -5.237   2.600  0.00  0.00    -0.299 N 
ATOM     12  H   UNL     1      -2.018  -4.874   1.700  0.00  0.00    +0.154 HD
BRANCH  11  13
ATOM     13  C   UNL     1      -2.977  -6.147   3.008  0.00  0.00    +0.033 A 
ATOM     14  C   UNL     1      -3.486  -7.073   2.106  0.00  0.00    +0.023 A 
ATOM     15  C   UNL     1      -4.454  -7.971   2.512  0.00  0.00    +0.003 A 
ATOM     16  C   UNL     1      -4.917  -7.949   3.815  0.00  0.00    +0.015 A 
ATOM     17  C   UNL     1      -4.412  -7.028   4.716  0.00  0.00    +0.020 A 
ATOM     18  C   UNL     1      -3.439  -6.131   4.317  0.00  0.00    +0.038 A 
ATOM     19 BR   UNL     1      -5.049  -7.002   6.496  0.00  0.00    -0.050 Br
ENDBRANCH  11  13
ENDBRANCH   7  11
BRANCH   1  20
ATOM     20  C   UNL     1       0.765  -1.524   0.277  0.00  0.00    +0.089 C 
BRANCH  20  21
ATOM     21  C   UNL     1       0.573  -0.045   0.497  0.00  0.00    +0.163 C 
ATOM     22  O   UNL     1       1.535   0.693   0.530  0.00  0.00    -0.292 OA
BRANCH  21  24
ATOM     23  C   UNL     1      -0.943   1.809   0.866  0.00  0.00    +0.012 C 
ATOM     24  C   UNL     1      -0.773   0.500   0.671  0.00  0.00    +0.039 C 
ENDBRANCH  21  24
ENDBRANCH  20  21
BRANCH  20  25
ATOM     25  C   UNL     1       2.079  -1.762  -0.469  0.00  0.00    +0.014 C 
BRANCH  25  26
ATOM     26  C   UNL     1       1.988  -1.153  -1.870  0.00  0.00    -0.018 C 
BRANCH  26  27
ATOM     27  C   UNL     1       3.302  -1.391  -2.616  0.00  0.00    -0.079 C 
BRANCH  27  28
ATOM     28  N   UNL     1       3.215  -0.806  -3.961  0.00  0.00    +0.383 N 
ATOM     29  C   UNL     1       2.192  -1.518  -4.739  0.00  0.00    -0.050 C 
ATOM     30  C   UNL     1       2.103  -0.907  -6.140  0.00  0.00    +0.141 C 
ATOM     31  O   UNL     1       3.385  -0.978  -6.768  0.00  0.00    -0.383 OA
ATOM     32  C   UNL     1       4.421  -0.319  -6.035  0.00  0.00    +0.141 C 
ATOM     33  C   UNL     1       4.515  -0.929  -4.634  0.00  0.00    -0.050 C 
ATOM     34  H   UNL     1       2.964   0.169  -3.888  0.00  0.00    -0.082 HD
ENDBRANCH  27  28
ENDBRANCH  26  27
ENDBRANCH  25  26
ENDBRANCH  20  25
ENDBRANCH   1  20
TORSDOF 9
