REMARK  Name = CHEMBL225721
REMARK  13 active torsions:
REMARK  status: ('A' for Active; 'I' for Inactive)
REMARK    1  A    between atoms: C_1  and  C_2
REMARK    2  A    between atoms: C_2  and  C_3
REMARK    3  A    between atoms: C_3  and  N_4
REMARK    4  A    between atoms: N_4  and  C_5
REMARK    5  A    between atoms: N_4  and  C_28
REMARK    6  A    between atoms: C_5  and  C_6
REMARK    7  A    between atoms: C_6  and  N_7
REMARK    8  A    between atoms: N_7  and  N_8
REMARK    9  A    between atoms: N_9  and  C_10
REMARK   10  A    between atoms: C_16  and  N_20
REMARK   11  A    between atoms: N_20  and  C_21
REMARK   12  A    between atoms: C_31  and  O_34
REMARK   13  A    between atoms: O_34  and  C_35
REMARK                            x       y       z     vdW  Elec       q    Type
REMARK                         _______ _______ _______ _____ _____    ______ ____
ROOT
ATOM      1  N   UNL     1       5.773  -3.358   1.458  0.00  0.00    -0.081 NA
ATOM      2  N   UNL     1       6.695  -4.045   0.872  0.00  0.00    -0.134 NA
ENDROOT
BRANCH   2   3
ATOM      3  C   UNL     1       6.484  -4.538  -0.390  0.00  0.00    +0.088 A 
ATOM      4  C   UNL     1       5.451  -4.011  -1.182  0.00  0.00    +0.032 A 
ATOM      5  C   UNL     1       5.222  -4.483  -2.436  0.00  0.00    +0.030 A 
ATOM      6  C   UNL     1       6.025  -5.510  -2.955  0.00  0.00    +0.076 A 
ATOM      7  C   UNL     1       7.071  -6.048  -2.164  0.00  0.00    +0.042 A 
ATOM      8  C   UNL     1       7.297  -5.550  -0.879  0.00  0.00    +0.043 A 
ATOM      9  C   UNL     1       7.863  -7.084  -2.718  0.00  0.00    +0.134 A 
ATOM     10  N   UNL     1       7.585  -7.496  -3.948  0.00  0.00    -0.220 NA
ATOM     11  C   UNL     1       6.598  -6.963  -4.649  0.00  0.00    +0.223 A 
ATOM     12  N   UNL     1       5.832  -6.002  -4.188  0.00  0.00    -0.235 NA
BRANCH   9  13
ATOM     13  N   UNL     1       8.896  -7.648  -1.998  0.00  0.00    -0.299 N 
ATOM     14  H   UNL     1       9.035  -7.396  -1.072  0.00  0.00    +0.154 HD
BRANCH  13  15
ATOM     15  C   UNL     1       9.741  -8.582  -2.603  0.00  0.00    +0.034 A 
ATOM     16  C   UNL     1      10.263  -9.633  -1.859  0.00  0.00    +0.023 A 
ATOM     17  C   UNL     1      11.098 -10.555  -2.459  0.00  0.00    +0.003 A 
ATOM     18  C   UNL     1      11.416 -10.433  -3.800  0.00  0.00    +0.020 A 
ATOM     19  C   UNL     1      10.898  -9.388  -4.544  0.00  0.00    +0.043 A 
ATOM     20  C   UNL     1      10.056  -8.465  -3.950  0.00  0.00    +0.043 A 
ATOM     21 CL   UNL     1      11.299  -9.238  -6.227  0.00  0.00    -0.083 Cl
ENDBRANCH  13  15
ENDBRANCH   9  13
ENDBRANCH   2   3
BRANCH   1  22
ATOM     22  N   UNL     1       4.442  -3.467   1.036  0.00  0.00    -0.249 N 
ATOM     23  H   UNL     1       4.198  -4.125   0.366  0.00  0.00    +0.170 HD
BRANCH  22  24
ATOM     24  C   UNL     1       3.418  -2.588   1.605  0.00  0.00    +0.143 C 
BRANCH  24  25
ATOM     25  C   UNL     1       2.061  -2.912   0.978  0.00  0.00    +0.125 C 
BRANCH  25  26
ATOM     26  N   UNL     1       1.037  -2.033   1.547  0.00  0.00    -0.327 N 
BRANCH  26  27
ATOM     27  C   UNL     1       0.337  -2.425   2.694  0.00  0.00    +0.030 A 
ATOM     28  C   UNL     1      -0.638  -1.595   3.231  0.00  0.00    +0.027 A 
ATOM     29  C   UNL     1      -1.328  -1.983   4.362  0.00  0.00    +0.047 A 
ATOM     30  C   UNL     1      -1.048  -3.201   4.962  0.00  0.00    +0.120 A 
ATOM     31  C   UNL     1      -0.074  -4.031   4.427  0.00  0.00    +0.047 A 
ATOM     32  C   UNL     1       0.613  -3.647   3.292  0.00  0.00    +0.027 A 
BRANCH  30  33
ATOM     33  O   UNL     1      -1.729  -3.583   6.076  0.00  0.00    -0.495 OA
ATOM     34  C   UNL     1      -1.389  -4.851   6.641  0.00  0.00    +0.277 C 
ENDBRANCH  30  33
ENDBRANCH  26  27
BRANCH  26  35
ATOM     35  C   UNL     1       0.746  -0.743   0.917  0.00  0.00    +0.124 C 
BRANCH  35  37
ATOM     36  C   UNL     1      -0.661   0.423  -0.788  0.00  0.00    +0.026 C 
ATOM     37  C   UNL     1      -0.357  -0.924  -0.129  0.00  0.00    +0.095 C 
ATOM     38 CL   UNL     1       0.193  -2.096  -1.384  0.00  0.00    -0.120 Cl
ENDBRANCH  35  37
ENDBRANCH  26  35
ENDBRANCH  25  26
ENDBRANCH  24  25
ENDBRANCH  22  24
ENDBRANCH   1  22
TORSDOF 11
