REMARK  Name = CHEMBL474343
REMARK  6 active torsions:
REMARK  status: ('A' for Active; 'I' for Inactive)
REMARK    1  A    between atoms: C_2  and  C_3
REMARK    2  A    between atoms: N_5  and  C_6
REMARK    3  A    between atoms: C_11  and  N_15
REMARK    4  A    between atoms: N_15  and  C_16
REMARK    5  A    between atoms: C_19  and  O_22
REMARK    6  A    between atoms: O_22  and  C_23
REMARK                            x       y       z     vdW  Elec       q    Type
REMARK                         _______ _______ _______ _____ _____    ______ ____
ROOT
ATOM      1  C   UNL     1       4.458  -1.907   5.255  0.00  0.00    +0.027 C 
ATOM      2  C   UNL     1       5.780  -2.162   5.318  0.00  0.00    +0.022 C 
ATOM      3  C   UNL     1       6.235  -2.807   4.144  0.00  0.00    +0.026 C 
ATOM      4  C   UNL     1       5.211  -3.143   3.361  0.00  0.00    +0.059 C 
ATOM      5  C   UNL     1       4.000  -2.388   3.908  0.00  0.00    +0.147 C 
ATOM      6  C   UNL     1       2.889  -3.403   3.967  0.00  0.00    +0.135 C 
ATOM      7  N   UNL     1       2.916  -4.380   3.086  0.00  0.00    -0.222 NA
ATOM      8  C   UNL     1       3.890  -4.543   2.185  0.00  0.00    +0.223 C 
ATOM      9  N   UNL     1       5.065  -3.943   2.290  0.00  0.00    -0.239 NA
ENDROOT
BRANCH   1  12
ATOM     10  C   UNL     1       4.233  -0.941   7.404  0.00  0.00    +0.240 C 
ATOM     11  O   UNL     1       5.423  -1.108   7.593  0.00  0.00    -0.271 OA
ATOM     12  N   UNL     1       3.676  -1.323   6.238  0.00  0.00    -0.285 N 
ATOM     13  H   UNL     1       2.727  -1.190   6.087  0.00  0.00    +0.155 HD
BRANCH  10  15
ATOM     14  C   UNL     1       3.954   0.056   9.598  0.00  0.00    +0.013 C 
ATOM     15  C   UNL     1       3.404  -0.322   8.447  0.00  0.00    +0.060 C 
ENDBRANCH  10  15
ENDBRANCH   1  12
BRANCH   6  16
ATOM     16  N   UNL     1       1.896  -3.313   4.895  0.00  0.00    -0.199 NA
BRANCH  16  17
ATOM     17  C   UNL     1       0.992  -4.369   5.057  0.00  0.00    +0.055 A 
ATOM     18  C   UNL     1      -0.297  -4.117   5.508  0.00  0.00    +0.029 A 
ATOM     19  C   UNL     1      -1.188  -5.159   5.667  0.00  0.00    +0.048 A 
ATOM     20  C   UNL     1      -0.796  -6.458   5.377  0.00  0.00    +0.129 A 
ATOM     21  C   UNL     1       0.491  -6.711   4.926  0.00  0.00    +0.048 A 
ATOM     22  C   UNL     1       1.382  -5.669   4.761  0.00  0.00    +0.029 A 
BRANCH  20  23
ATOM     23  O   UNL     1      -1.675  -7.484   5.534  0.00  0.00    -0.456 OA
BRANCH  23  24
ATOM     24  C   UNL     1      -2.965  -7.180   5.832  0.00  0.00    +0.128 A 
ATOM     25  C   UNL     1      -3.962  -7.377   4.888  0.00  0.00    +0.046 A 
ATOM     26  C   UNL     1      -5.273  -7.067   5.194  0.00  0.00    +0.004 A 
ATOM     27  C   UNL     1      -5.592  -6.560   6.440  0.00  0.00    +0.000 A 
ATOM     28  C   UNL     1      -4.600  -6.362   7.383  0.00  0.00    +0.004 A 
ATOM     29  C   UNL     1      -3.288  -6.676   7.084  0.00  0.00    +0.046 A 
ENDBRANCH  23  24
ENDBRANCH  20  23
ENDBRANCH  16  17
ENDBRANCH   6  16
TORSDOF 6
