REMARK  Name = CHEMBL247127
REMARK  7 active torsions:
REMARK  status: ('A' for Active; 'I' for Inactive)
REMARK    1  A    between atoms: C_3  and  C_7
REMARK    2  A    between atoms: C_7  and  N_8
REMARK    3  A    between atoms: C_12  and  N_17
REMARK    4  A    between atoms: C_20  and  C_27
REMARK    5  A    between atoms: C_27  and  O_28
REMARK    6  A    between atoms: O_28  and  C_29
REMARK    7  A    between atoms: C_29  and  C_30
REMARK                            x       y       z     vdW  Elec       q    Type
REMARK                         _______ _______ _______ _____ _____    ______ ____
ROOT
ATOM      1  N   UNL     1       3.505   6.283   5.095  0.00  0.00    -0.298 N 
ATOM      2  C   UNL     1       2.870   7.476   4.809  0.00  0.00    +0.151 A 
ATOM      3  C   UNL     1       2.837   8.516   5.766  0.00  0.00    +0.111 A 
ATOM      4  C   UNL     1       3.332   8.653   7.048  0.00  0.00    +0.008 A 
ATOM      5  C   UNL     1       2.974   9.929   7.486  0.00  0.00    +0.028 A 
ATOM      6  C   UNL     1       2.282  10.535   6.486  0.00  0.00    +0.113 A 
ATOM      7  N   UNL     1       2.191   9.694   5.439  0.00  0.00    -0.235 N 
ATOM      8  N   UNL     1       1.600   9.798   4.172  0.00  0.00    -0.155 NA
ATOM      9  C   UNL     1       1.667   8.800   3.336  0.00  0.00    +0.245 A 
ATOM     10  N   UNL     1       2.290   7.661   3.634  0.00  0.00    -0.217 NA
ATOM     11  H   UNL     1       3.997   6.182   5.925  0.00  0.00    +0.154 HD
ENDROOT
BRANCH   1  16
ATOM     12  N   UNL     1       2.991   2.154   1.466  0.00  0.00    -0.259 N 
ATOM     13  C   UNL     1       3.340   3.099   2.397  0.00  0.00    +0.069 A 
ATOM     14  C   UNL     1       4.505   3.357   3.115  0.00  0.00    +0.030 A 
ATOM     15  C   UNL     1       4.551   4.400   3.994  0.00  0.00    +0.025 A 
ATOM     16  C   UNL     1       3.437   5.219   4.187  0.00  0.00    +0.033 A 
ATOM     17  C   UNL     1       2.270   4.986   3.488  0.00  0.00    +0.034 A 
ATOM     18  C   UNL     1       2.211   3.920   2.583  0.00  0.00    +0.021 A 
ATOM     19  C   UNL     1       1.173   3.396   1.702  0.00  0.00    +0.143 A 
ATOM     20  N   UNL     1       1.668   2.373   1.066  0.00  0.00    -0.178 NA
BRANCH  12  21
ATOM     21  C   UNL     1       3.864   1.089   0.966  0.00  0.00    +0.180 C 
BRANCH  21  24
ATOM     22  C   UNL     1       6.509   2.642  -1.233  0.00  0.00    +0.020 A 
ATOM     23  C   UNL     1       5.850   2.203  -0.094  0.00  0.00    +0.008 A 
ATOM     24  C   UNL     1       4.619   1.583  -0.241  0.00  0.00    -0.008 A 
ATOM     25  C   UNL     1       4.092   1.425  -1.509  0.00  0.00    +0.116 A 
ATOM     26  N   UNL     1       4.747   1.854  -2.570  0.00  0.00    -0.263 NA
ATOM     27  C   UNL     1       5.920   2.448  -2.468  0.00  0.00    +0.111 A 
ENDBRANCH  21  24
ENDBRANCH  12  21
ENDBRANCH   1  16
BRANCH   4  28
ATOM     28  C   UNL     1       4.109   7.621   7.825  0.00  0.00    +0.197 C 
BRANCH  28  29
ATOM     29  O   UNL     1       4.440   8.145   9.113  0.00  0.00    -0.373 OA
BRANCH  29  30
ATOM     30  C   UNL     1       5.181   7.242   9.935  0.00  0.00    +0.189 C 
BRANCH  30  31
ATOM     31  C   UNL     1       5.478   7.904  11.282  0.00  0.00    +0.127 C 
ATOM     32  C   UNL     1       6.376   6.986  12.116  0.00  0.00    -0.048 C 
ATOM     33  N   UNL     1       6.612   7.599  13.431  0.00  0.00    +0.382 N 
ATOM     34  C   UNL     1       5.327   7.788  14.119  0.00  0.00    -0.054 C 
ATOM     35  C   UNL     1       4.432   8.704  13.281  0.00  0.00    +0.141 C 
ATOM     36  O   UNL     1       4.253   8.131  11.983  0.00  0.00    -0.378 OA
ATOM     37  H   UNL     1       7.203   6.995  13.982  0.00  0.00    -0.086 HD
ATOM     38  H   UNL     1       7.063   8.493  13.309  0.00  0.00    -0.086 HD
ENDBRANCH  30  31
ENDBRANCH  29  30
ENDBRANCH  28  29
ENDBRANCH   4  28
TORSDOF 7
