REMARK  Name = CHEMBL250925
REMARK  8 active torsions:
REMARK  status: ('A' for Active; 'I' for Inactive)
REMARK    1  A    between atoms: C_1  and  C_2
REMARK    2  A    between atoms: C_2  and  O_3
REMARK    3  A    between atoms: O_3  and  C_4
REMARK    4  A    between atoms: C_9  and  O_10
REMARK    5  A    between atoms: O_10  and  C_11
REMARK    6  A    between atoms: C_11  and  C_12
REMARK    7  A    between atoms: C_16  and  C_17
REMARK    8  A    between atoms: C_18  and  C_19
REMARK                            x       y       z     vdW  Elec       q    Type
REMARK                         _______ _______ _______ _____ _____    ______ ____
ROOT
ATOM      1  C   UNL     1      -1.498  -1.849   0.006  0.00  0.00    +0.163 A 
ATOM      2  C   UNL     1      -0.398  -2.660  -0.003  0.00  0.00    +0.061 A 
ATOM      3  C   UNL     1      -0.563  -4.047  -0.008  0.00  0.00    +0.029 A 
ATOM      4  C   UNL     1      -1.866  -4.608  -0.004  0.00  0.00    +0.078 A 
ATOM      5  C   UNL     1      -2.979  -3.758   0.005  0.00  0.00    +0.077 A 
ATOM      6  C   UNL     1      -2.790  -2.394   0.016  0.00  0.00    +0.164 A 
ATOM      7  N   UNL     1      -1.989  -5.943  -0.009  0.00  0.00    -0.235 NA
ATOM      8  C   UNL     1      -0.935  -6.721  -0.017  0.00  0.00    +0.222 A 
ATOM      9  N   UNL     1       0.308  -6.274  -0.022  0.00  0.00    -0.235 NA
ATOM     10  C   UNL     1       0.575  -4.967  -0.018  0.00  0.00    +0.075 A 
ENDROOT
BRANCH  10  11
ATOM     11  C   UNL     1       1.956  -4.471  -0.022  0.00  0.00    +0.029 C 
ATOM     12  C   UNL     1       2.984  -5.341  -0.030  0.00  0.00    +0.010 C 
BRANCH  12  13
ATOM     13  C   UNL     1       4.370  -4.844  -0.035  0.00  0.00    -0.025 A 
ATOM     14  C   UNL     1       4.622  -3.469  -0.024  0.00  0.00    +0.008 A 
ATOM     15  C   UNL     1       5.923  -3.010  -0.027  0.00  0.00    +0.001 A 
ATOM     16  C   UNL     1       6.976  -3.908  -0.042  0.00  0.00    +0.000 A 
ATOM     17  C   UNL     1       6.734  -5.270  -0.053  0.00  0.00    +0.001 A 
ATOM     18  C   UNL     1       5.439  -5.744  -0.043  0.00  0.00    +0.008 A 
ENDBRANCH  12  13
ENDBRANCH  10  11
BRANCH   1  19
ATOM     19  O   UNL     1      -1.339  -0.499   0.012  0.00  0.00    -0.489 OA
BRANCH  19  21
ATOM     20  C   UNL     1      -0.019   1.526   0.010  0.00  0.00    +0.048 C 
ATOM     21  C   UNL     1       0.002  -0.004   0.002  0.00  0.00    +0.226 C 
ENDBRANCH  19  21
ENDBRANCH   1  19
BRANCH   6  22
ATOM     22  O   UNL     1      -3.868  -1.567   0.030  0.00  0.00    -0.489 OA
BRANCH  22  23
ATOM     23  C   UNL     1      -5.158  -2.183   0.039  0.00  0.00    +0.226 C 
ATOM     24  C   UNL     1      -6.239  -1.101   0.055  0.00  0.00    +0.048 C 
ENDBRANCH  22  23
ENDBRANCH   6  22
TORSDOF 6
