REMARK  Name = CHEMBL498133
REMARK  6 active torsions:
REMARK  status: ('A' for Active; 'I' for Inactive)
REMARK    1  A    between atoms: C_3  and  C_8
REMARK    2  A    between atoms: C_8  and  N_9
REMARK    3  A    between atoms: C_13  and  N_18
REMARK    4  A    between atoms: C_20  and  C_26
REMARK    5  A    between atoms: C_21  and  N_25
REMARK    6  A    between atoms: N_27  and  N_28
REMARK                            x       y       z     vdW  Elec       q    Type
REMARK                         _______ _______ _______ _____ _____    ______ ____
ROOT
ATOM      1  N   UNL     1       3.445   6.313   5.357  0.00  0.00    -0.299 N 
ATOM      2  C   UNL     1       2.734   7.456   5.030  0.00  0.00    +0.137 A 
ATOM      3  C   UNL     1       2.625   8.518   5.945  0.00  0.00    +0.074 A 
ATOM      4  C   UNL     1       1.890   9.652   5.555  0.00  0.00    +0.130 A 
ATOM      5  N   UNL     1       1.334   9.671   4.347  0.00  0.00    -0.220 NA
ATOM      6  C   UNL     1       1.463   8.651   3.523  0.00  0.00    +0.225 A 
ATOM      7  N   UNL     1       2.146   7.570   3.842  0.00  0.00    -0.220 NA
ATOM      8  H   UNL     1       3.807   6.207   6.251  0.00  0.00    +0.154 HD
ENDROOT
BRANCH   1  13
ATOM      9  N   UNL     1       4.223   2.550   1.392  0.00  0.00    -0.259 N 
ATOM     10  C   UNL     1       4.027   3.299   2.525  0.00  0.00    +0.069 A 
ATOM     11  C   UNL     1       3.886   2.983   3.874  0.00  0.00    +0.030 A 
ATOM     12  C   UNL     1       3.697   3.974   4.793  0.00  0.00    +0.025 A 
ATOM     13  C   UNL     1       3.641   5.312   4.399  0.00  0.00    +0.033 A 
ATOM     14  C   UNL     1       3.778   5.652   3.068  0.00  0.00    +0.034 A 
ATOM     15  C   UNL     1       3.973   4.645   2.116  0.00  0.00    +0.021 A 
ATOM     16  C   UNL     1       4.150   4.641   0.667  0.00  0.00    +0.143 A 
ATOM     17  N   UNL     1       4.298   3.404   0.287  0.00  0.00    -0.178 NA
BRANCH   9  18
ATOM     18  C   UNL     1       4.342   1.091   1.348  0.00  0.00    +0.179 C 
BRANCH  18  21
ATOM     19  C   UNL     1       7.631   0.113   2.924  0.00  0.00    +0.003 A 
ATOM     20  C   UNL     1       6.304   0.472   2.773  0.00  0.00    +0.005 A 
ATOM     21  C   UNL     1       5.788   0.699   1.511  0.00  0.00    -0.023 A 
ATOM     22  C   UNL     1       6.598   0.567   0.398  0.00  0.00    +0.043 A 
ATOM     23  C   UNL     1       7.926   0.208   0.548  0.00  0.00    +0.124 A 
ATOM     24  C   UNL     1       8.442  -0.020   1.813  0.00  0.00    +0.038 A 
ATOM     25  F   UNL     1       8.718   0.078  -0.538  0.00  0.00    -0.205 F 
ENDBRANCH  18  21
ENDBRANCH   9  18
ENDBRANCH   1  13
BRANCH   4  26
ATOM     26  N   UNL     1       1.748  10.728   6.413  0.00  0.00    -0.342 N 
ATOM     27  H   UNL     1       2.074  10.668   7.325  0.00  0.00    +0.144 HD
ATOM     28  H   UNL     1       1.323  11.543   6.103  0.00  0.00    +0.144 HD
ENDBRANCH   4  26
BRANCH   3  29
ATOM     29  C   UNL     1       3.261   8.445   7.271  0.00  0.00    +0.144 C 
ATOM     30  N   UNL     1       3.062   9.390   8.139  0.00  0.00    -0.192 NA
BRANCH  30  31
ATOM     31  N   UNL     1       3.760   9.383   9.354  0.00  0.00    -0.251 N 
ATOM     32  C   UNL     1       4.815   8.391   9.617  0.00  0.00    +0.154 C 
ATOM     33  C   UNL     1       6.065   9.133  10.104  0.00  0.00    +0.180 C 
ATOM     34  O   UNL     1       5.710   9.986  11.195  0.00  0.00    -0.377 OA
ATOM     35  C   UNL     1       4.775  11.012  10.855  0.00  0.00    +0.180 C 
ATOM     36  C   UNL     1       3.463  10.371  10.404  0.00  0.00    +0.154 C 
ENDBRANCH  30  31
ENDBRANCH   3  29
TORSDOF 6
