REMARK  Name = CHEMBL1090357
REMARK  10 active torsions:
REMARK  status: ('A' for Active; 'I' for Inactive)
REMARK    1  A    between atoms: C_1  and  N_2
REMARK    2  A    between atoms: N_2  and  C_3
REMARK    3  A    between atoms: N_2  and  C_4
REMARK    4  A    between atoms: C_4  and  C_5
REMARK    5  A    between atoms: C_5  and  C_6
REMARK    6  A    between atoms: C_9  and  N_12
REMARK    7  A    between atoms: C_17  and  C_19
REMARK    8  A    between atoms: C_20  and  C_27
REMARK    9  A    between atoms: C_31  and  N_33
REMARK   10  A    between atoms: C_34  and  C_36
REMARK                            x       y       z     vdW  Elec       q    Type
REMARK                         _______ _______ _______ _____ _____    ______ ____
ROOT
ATOM      1  C   UNL     1       6.150  -1.585  10.255  0.00  0.00    +0.100 A 
ATOM      2  C   UNL     1       5.737  -2.558  11.147  0.00  0.00    +0.100 A 
ATOM      3  N   UNL     1       6.745  -2.782  12.004  0.00  0.00    -0.221 NA
ATOM      4  C   UNL     1       7.751  -2.010  11.698  0.00  0.00    +0.178 A 
ATOM      5  N   UNL     1       7.459  -1.234  10.609  0.00  0.00    -0.291 N 
ATOM      6  C   UNL     1       8.440  -0.373  10.173  0.00  0.00    +0.101 A 
ATOM      7  C   UNL     1       9.619  -0.312  10.792  0.00  0.00    +0.067 A 
ATOM      8  S   UNL     1       9.411  -1.512  12.099  0.00  0.00    -0.058 S 
ENDROOT
BRANCH   1  14
ATOM      9  N   UNL     1       2.651  -1.992   7.036  0.00  0.00    -0.284 N 
ATOM     10  C   UNL     1       3.671  -1.234   7.588  0.00  0.00    +0.220 A 
ATOM     11  N   UNL     1       3.915  -0.026   7.099  0.00  0.00    -0.223 NA
ATOM     12  C   UNL     1       4.881   0.732   7.598  0.00  0.00    +0.116 A 
ATOM     13  C   UNL     1       5.645   0.253   8.644  0.00  0.00    +0.050 A 
ATOM     14  C   UNL     1       5.366  -1.028   9.143  0.00  0.00    +0.095 A 
ATOM     15  N   UNL     1       4.373  -1.733   8.593  0.00  0.00    -0.213 NA
ATOM     16  H   UNL     1       2.409  -2.842   7.434  0.00  0.00    +0.155 HD
BRANCH   9  20
ATOM     17  C   UNL     1       0.623  -0.616   3.668  0.00  0.00    -0.049 A 
ATOM     18  C   UNL     1       1.964  -0.322   3.834  0.00  0.00    +0.005 A 
ATOM     19  C   UNL     1       2.639  -0.777   4.949  0.00  0.00    +0.023 A 
ATOM     20  C   UNL     1       1.970  -1.529   5.906  0.00  0.00    +0.034 A 
ATOM     21  C   UNL     1       0.623  -1.822   5.737  0.00  0.00    +0.023 A 
ATOM     22  C   UNL     1      -0.048  -1.360   4.622  0.00  0.00    +0.005 A 
BRANCH  17  23
ATOM     23  C   UNL     1      -0.111  -0.119   2.450  0.00  0.00    +0.016 C 
BRANCH  23  24
ATOM     24  C   UNL     1      -0.705   1.261   2.740  0.00  0.00    -0.075 C 
BRANCH  24  26
ATOM     25  C   UNL     1      -2.573   0.875   1.284  0.00  0.00    -0.097 C 
ATOM     26  N   UNL     1      -1.421   1.746   1.552  0.00  0.00    +0.376 N 
ATOM     27  C   UNL     1      -1.888   3.118   1.788  0.00  0.00    -0.097 C 
ATOM     28  H   UNL     1      -0.799   1.734   0.757  0.00  0.00    -0.083 HD
ENDBRANCH  24  26
ENDBRANCH  23  24
ENDBRANCH  17  23
ENDBRANCH   9  20
ENDBRANCH   1  14
BRANCH   2  29
ATOM     29  C   UNL     1       4.418  -3.233  11.155  0.00  0.00    +0.004 A 
ATOM     30  C   UNL     1       3.270  -2.529  10.789  0.00  0.00    +0.010 A 
ATOM     31  C   UNL     1       2.042  -3.159  10.797  0.00  0.00    +0.002 A 
ATOM     32  C   UNL     1       1.944  -4.487  11.168  0.00  0.00    +0.023 A 
ATOM     33  C   UNL     1       3.082  -5.196  11.534  0.00  0.00    +0.034 A 
ATOM     34  C   UNL     1       4.320  -4.573  11.523  0.00  0.00    +0.033 A 
BRANCH  33  35
ATOM     35  N   UNL     1       2.978  -6.540  11.909  0.00  0.00    -0.281 N 
ATOM     36  C   UNL     1       3.776  -7.034  12.876  0.00  0.00    +0.254 C 
ATOM     37  O   UNL     1       4.644  -6.335  13.363  0.00  0.00    -0.270 OA
ATOM     38  H   UNL     1       2.332  -7.117  11.472  0.00  0.00    +0.155 HD
BRANCH  36  39
ATOM     39  C   UNL     1       3.597  -8.421  13.343  0.00  0.00    +0.107 A 
ATOM     40  C   UNL     1       4.297  -9.466  12.730  0.00  0.00    +0.138 A 
ATOM     41  C   UNL     1       4.123 -10.763  13.175  0.00  0.00    +0.039 A 
ATOM     42  C   UNL     1       3.260 -11.030  14.223  0.00  0.00    +0.006 A 
ATOM     43  C   UNL     1       2.564 -10.003  14.834  0.00  0.00    +0.039 A 
ATOM     44  C   UNL     1       2.731  -8.699  14.406  0.00  0.00    +0.138 A 
ATOM     45  F   UNL     1       2.054  -7.697  15.009  0.00  0.00    -0.205 F 
ATOM     46  F   UNL     1       5.139  -9.208  11.706  0.00  0.00    -0.205 F 
ENDBRANCH  36  39
ENDBRANCH  33  35
ENDBRANCH   2  29
TORSDOF 8
