REMARK  Name = CHEMBL121954
REMARK  4 active torsions:
REMARK  status: ('A' for Active; 'I' for Inactive)
REMARK    1  A    between atoms: C_3  and  N_8
REMARK    2  A    between atoms: C_5  and  O_7
REMARK    3  A    between atoms: C_15  and  N_16
REMARK    4  A    between atoms: N_16  and  C_17
REMARK                            x       y       z     vdW  Elec       q    Type
REMARK                         _______ _______ _______ _____ _____    ______ ____
ROOT
ATOM      1  N   UNL     1       3.584   2.186   0.149  0.00  0.00    -0.297 N 
ATOM      2  C   UNL     1       3.567   3.553  -0.137  0.00  0.00    +0.157 A 
ATOM      3  C   UNL     1       4.729   4.395  -0.402  0.00  0.00    +0.100 A 
ATOM      4  C   UNL     1       4.236   5.694  -0.637  0.00  0.00    +0.163 A 
ATOM      5  N   UNL     1       5.104   6.668  -0.907  0.00  0.00    -0.216 NA
ATOM      6  C   UNL     1       6.395   6.423  -0.954  0.00  0.00    +0.225 A 
ATOM      7  N   UNL     1       6.901   5.221  -0.739  0.00  0.00    -0.220 NA
ATOM      8  C   UNL     1       6.117   4.184  -0.462  0.00  0.00    +0.139 A 
ATOM      9  N   UNL     1       2.880   5.627  -0.520  0.00  0.00    -0.258 N 
ATOM     10  N   UNL     1       2.505   4.313  -0.222  0.00  0.00    -0.156 NA
ATOM     11  H   UNL     1       2.271   6.373  -0.630  0.00  0.00    +0.191 HD
ATOM     12  H   UNL     1       4.418   1.692   0.106  0.00  0.00    +0.154 HD
ENDROOT
BRANCH   1  15
ATOM     13  C   UNL     1       0.222   1.571   1.502  0.00  0.00    +0.005 A 
ATOM     14  C   UNL     1       1.392   2.220   1.158  0.00  0.00    +0.023 A 
ATOM     15  C   UNL     1       2.401   1.530   0.498  0.00  0.00    +0.036 A 
ATOM     16  C   UNL     1       2.232   0.188   0.185  0.00  0.00    +0.068 A 
ATOM     17  C   UNL     1       1.057  -0.459   0.532  0.00  0.00    +0.119 A 
ATOM     18  C   UNL     1       0.052   0.235   1.192  0.00  0.00    +0.045 A 
BRANCH  17  19
ATOM     19  O   UNL     1       0.888  -1.772   0.227  0.00  0.00    -0.507 OA
ATOM     20  H   UNL     1       1.194  -2.379   0.916  0.00  0.00    +0.292 HD
ENDBRANCH  17  19
ENDBRANCH   1  15
BRANCH   8  21
ATOM     21  N   UNL     1       6.653   2.930  -0.238  0.00  0.00    -0.299 N 
ATOM     22  H   UNL     1       6.067   2.167  -0.113  0.00  0.00    +0.154 HD
BRANCH  21  23
ATOM     23  C   UNL     1       8.040   2.761  -0.193  0.00  0.00    +0.034 A 
ATOM     24  C   UNL     1       8.612   1.579  -0.646  0.00  0.00    +0.023 A 
ATOM     25  C   UNL     1       9.982   1.414  -0.601  0.00  0.00    +0.003 A 
ATOM     26  C   UNL     1      10.786   2.424  -0.104  0.00  0.00    +0.020 A 
ATOM     27  C   UNL     1      10.219   3.603   0.350  0.00  0.00    +0.043 A 
ATOM     28  C   UNL     1       8.849   3.776   0.301  0.00  0.00    +0.043 A 
ATOM     29 CL   UNL     1      11.232   4.868   0.973  0.00  0.00    -0.083 Cl
ENDBRANCH  21  23
ENDBRANCH   8  21
TORSDOF 4
