REMARK  Name = CHEMBL257814
REMARK  7 active torsions:
REMARK  status: ('A' for Active; 'I' for Inactive)
REMARK    1  A    between atoms: C_1  and  O_2
REMARK    2  A    between atoms: O_2  and  N_3
REMARK    3  A    between atoms: C_4  and  C_5
REMARK    4  A    between atoms: C_10  and  N_11
REMARK    5  A    between atoms: N_11  and  C_12
REMARK    6  A    between atoms: N_20  and  C_21
REMARK    7  A    between atoms: C_21  and  C_22
REMARK                            x       y       z     vdW  Elec       q    Type
REMARK                         _______ _______ _______ _____ _____    ______ ____
ROOT
ATOM      1  C   UNL     1       0.841  -6.112  -2.026  0.00  0.00    +0.033 A 
ATOM      2  C   UNL     1       1.771  -6.503  -2.980  0.00  0.00    +0.025 A 
ATOM      3  C   UNL     1       2.095  -7.834  -3.125  0.00  0.00    +0.025 A 
ATOM      4  C   UNL     1       1.492  -8.800  -2.317  0.00  0.00    +0.033 A 
ATOM      5  C   UNL     1       0.565  -8.403  -1.367  0.00  0.00    -0.023 A 
ATOM      6  C   UNL     1       0.243  -7.067  -1.216  0.00  0.00    +0.028 A 
ATOM      7  C   UNL     1       0.069  -9.630  -0.635  0.00  0.00    +0.056 C 
ATOM      8  C   UNL     1       0.829 -10.799  -1.281  0.00  0.00    +0.110 C 
ATOM      9  N   UNL     1       1.679 -10.186  -2.305  0.00  0.00    -0.325 N 
ENDROOT
BRANCH   1  10
ATOM     10  N   UNL     1       0.511  -4.758  -1.878  0.00  0.00    -0.299 N 
ATOM     11  H   UNL     1       0.277  -4.409  -1.004  0.00  0.00    +0.154 HD
BRANCH  10  17
ATOM     12  C   UNL     1       0.307  -2.538  -2.826  0.00  0.00    +0.076 A 
ATOM     13  C   UNL     1       0.334  -1.736  -3.982  0.00  0.00    +0.130 A 
ATOM     14  N   UNL     1       0.552  -2.316  -5.159  0.00  0.00    -0.220 NA
ATOM     15  C   UNL     1       0.741  -3.617  -5.252  0.00  0.00    +0.225 A 
ATOM     16  N   UNL     1       0.725  -4.408  -4.199  0.00  0.00    -0.220 NA
ATOM     17  C   UNL     1       0.520  -3.921  -2.977  0.00  0.00    +0.137 A 
ATOM     18  N   UNL     1       0.137  -0.371  -3.896  0.00  0.00    -0.342 N 
ATOM     19  H   UNL     1       0.289   0.089  -3.056  0.00  0.00    +0.144 HD
ATOM     20  H   UNL     1      -0.154   0.127  -4.676  0.00  0.00    +0.144 HD
BRANCH  12  22
ATOM     21  N   UNL     1      -0.024  -0.662  -1.369  0.00  0.00    -0.093 NA
ATOM     22  C   UNL     1       0.070  -1.948  -1.499  0.00  0.00    +0.167 C 
BRANCH  21  24
ATOM     23  C   UNL     1      -0.334   1.332  -0.096  0.00  0.00    +0.313 C 
ATOM     24  O   UNL     1      -0.253  -0.095  -0.092  0.00  0.00    -0.397 OA
ENDBRANCH  21  24
ENDBRANCH  12  22
ENDBRANCH  10  17
ENDBRANCH   1  10
BRANCH   9  25
ATOM     25  C   UNL     1       2.592 -10.918  -3.187  0.00  0.00    +0.140 C 
BRANCH  25  26
ATOM     26  C   UNL     1       3.946 -11.021  -2.535  0.00  0.00    -0.027 A 
ATOM     27  C   UNL     1       4.892 -10.035  -2.748  0.00  0.00    +0.005 A 
ATOM     28  C   UNL     1       6.135 -10.128  -2.151  0.00  0.00    +0.003 A 
ATOM     29  C   UNL     1       6.434 -11.207  -1.340  0.00  0.00    +0.038 A 
ATOM     30  C   UNL     1       5.488 -12.194  -1.126  0.00  0.00    +0.124 A 
ATOM     31  C   UNL     1       4.241 -12.097  -1.720  0.00  0.00    +0.043 A 
ATOM     32  F   UNL     1       5.779 -13.250  -0.334  0.00  0.00    -0.205 F 
ENDBRANCH  25  26
ENDBRANCH   9  25
TORSDOF 6
