REMARK  Name = CHEMBL1173814
REMARK  8 active torsions:
REMARK  status: ('A' for Active; 'I' for Inactive)
REMARK    1  A    between atoms: C_1  and  C_2
REMARK    2  A    between atoms: C_5  and  C_9
REMARK    3  A    between atoms: C_7  and  C_8
REMARK    4  A    between atoms: N_11  and  C_22
REMARK    5  A    between atoms: C_12  and  C_14
REMARK    6  A    between atoms: C_17  and  O_20
REMARK    7  A    between atoms: O_20  and  C_21
REMARK    8  A    between atoms: C_22  and  N_24
REMARK                            x       y       z     vdW  Elec       q    Type
REMARK                         _______ _______ _______ _____ _____    ______ ____
ROOT
ATOM      1  C   UNL     1       0.061  -4.248  -0.021  0.00  0.00    +0.069 C 
ATOM      2  N   UNL     1       0.070  -4.997   1.026  0.00  0.00    -0.182 NA
ATOM      3  N   UNL     1       0.089  -6.362   0.750  0.00  0.00    -0.197 N 
ATOM      4  C   UNL     1       0.092  -6.553  -0.709  0.00  0.00    +0.136 C 
ATOM      5  C   UNL     1       0.066  -5.114  -1.261  0.00  0.00    +0.087 C 
ENDROOT
BRANCH   1  10
ATOM      6  C   UNL     1      -0.018   1.503   0.010  0.00  0.00    +0.044 C 
ATOM      7  C   UNL     1       0.002  -0.004   0.002  0.00  0.00    -0.048 A 
ATOM      8  C   UNL     1       0.006  -0.686  -1.202  0.00  0.00    +0.004 A 
ATOM      9  C   UNL     1       0.025  -2.065  -1.217  0.00  0.00    +0.010 A 
ATOM     10  C   UNL     1       0.041  -2.773  -0.013  0.00  0.00    -0.002 A 
ATOM     11  C   UNL     1       0.037  -2.078   1.198  0.00  0.00    +0.013 A 
ATOM     12  C   UNL     1       0.023  -0.699   1.198  0.00  0.00    -0.047 A 
ATOM     13  C   UNL     1       0.025   0.053   2.504  0.00  0.00    +0.044 C 
ENDBRANCH   1  10
BRANCH   4  14
ATOM     14  C   UNL     1      -1.137  -7.306  -1.148  0.00  0.00    -0.025 A 
ATOM     15  C   UNL     1      -2.356  -7.048  -0.548  0.00  0.00    +0.009 A 
ATOM     16  C   UNL     1      -3.484  -7.737  -0.949  0.00  0.00    +0.046 A 
ATOM     17  C   UNL     1      -3.394  -8.689  -1.954  0.00  0.00    +0.120 A 
ATOM     18  C   UNL     1      -2.170  -8.945  -2.555  0.00  0.00    +0.046 A 
ATOM     19  C   UNL     1      -1.046  -8.250  -2.154  0.00  0.00    +0.009 A 
BRANCH  17  20
ATOM     20  O   UNL     1      -4.502  -9.368  -2.349  0.00  0.00    -0.495 OA
ATOM     21  C   UNL     1      -4.334 -10.333  -3.390  0.00  0.00    +0.277 C 
ENDBRANCH  17  20
ENDBRANCH   4  14
BRANCH   3  22
ATOM     22  C   UNL     1       0.103  -7.348   1.669  0.00  0.00    +0.151 C 
ATOM     23  S   UNL     1       0.126  -8.985   1.169  0.00  0.00    -0.017 S 
BRANCH  22  24
ATOM     24  N   UNL     1       0.098  -7.045   2.983  0.00  0.00    -0.339 N 
ATOM     25  H   UNL     1       0.085  -6.118   3.266  0.00  0.00    +0.144 HD
ATOM     26  H   UNL     1       0.108  -7.755   3.644  0.00  0.00    +0.144 HD
ENDBRANCH  22  24
ENDBRANCH   3  22
TORSDOF 5
