REMARK  Name = CHEMBL398154
REMARK  13 active torsions:
REMARK  status: ('A' for Active; 'I' for Inactive)
REMARK    1  A    between atoms: C_1  and  C_2
REMARK    2  A    between atoms: C_2  and  O_3
REMARK    3  A    between atoms: O_3  and  C_4
REMARK    4  A    between atoms: C_9  and  N_10
REMARK    5  A    between atoms: C_11  and  C_13
REMARK    6  A    between atoms: C_14  and  C_15
REMARK    7  A    between atoms: C_15  and  N_16
REMARK    8  A    between atoms: N_16  and  C_17
REMARK    9  A    between atoms: N_16  and  C_18
REMARK   10  A    between atoms: C_19  and  N_23
REMARK   11  A    between atoms: C_28  and  O_32
REMARK   12  A    between atoms: O_32  and  C_33
REMARK   13  A    between atoms: C_33  and  C_34
REMARK                            x       y       z     vdW  Elec       q    Type
REMARK                         _______ _______ _______ _____ _____    ______ ____
ROOT
ATOM      1  C   UNL     1      -1.516  -1.825  -0.009  0.00  0.00    +0.144 A 
ATOM      2  C   UNL     1      -0.418  -2.637  -0.029  0.00  0.00    +0.076 A 
ATOM      3  C   UNL     1      -0.583  -4.030  -0.042  0.00  0.00    +0.080 A 
ATOM      4  C   UNL     1      -1.892  -4.580  -0.035  0.00  0.00    +0.047 A 
ATOM      5  C   UNL     1      -3.003  -3.732  -0.014  0.00  0.00    +0.040 A 
ATOM      6  C   UNL     1      -2.813  -2.366   0.003  0.00  0.00    +0.077 A 
ATOM      7  C   UNL     1      -2.024  -5.993  -0.047  0.00  0.00    +0.164 A 
ATOM      8  N   UNL     1      -0.913  -6.726  -0.066  0.00  0.00    -0.216 NA
ATOM      9  C   UNL     1       0.283  -6.164  -0.072  0.00  0.00    +0.224 A 
ATOM     10  N   UNL     1       0.464  -4.864  -0.061  0.00  0.00    -0.235 NA
ENDROOT
BRANCH   7  11
ATOM     11  N   UNL     1      -3.251  -6.581  -0.041  0.00  0.00    -0.228 NA
ATOM     12  C   UNL     1      -3.807  -6.940  -1.163  0.00  0.00    +0.098 C 
ATOM     13  C   UNL     1      -5.126  -7.695  -1.205  0.00  0.00    +0.142 C 
ATOM     14  C   UNL     1      -6.017  -6.971  -2.192  0.00  0.00    +0.203 C 
ATOM     15  O   UNL     1      -7.192  -6.820  -1.956  0.00  0.00    -0.288 OA
ATOM     16  C   UNL     1      -5.437  -6.453  -3.446  0.00  0.00    +0.167 C 
ATOM     17  C   UNL     1      -4.099  -6.281  -3.585  0.00  0.00    +0.102 C 
ATOM     18  C   UNL     1      -3.194  -6.631  -2.484  0.00  0.00    +0.204 C 
ATOM     19  O   UNL     1      -1.989  -6.670  -2.648  0.00  0.00    -0.286 OA
BRANCH  16  20
ATOM     20  O   UNL     1      -6.256  -6.143  -4.477  0.00  0.00    -0.482 OA
BRANCH  20  21
ATOM     21  C   UNL     1      -5.641  -5.645  -5.667  0.00  0.00    +0.284 C 
BRANCH  21  22
ATOM     22  C   UNL     1      -6.702  -5.357  -6.698  0.00  0.00    +0.078 A 
ATOM     23  C   UNL     1      -8.031  -5.584  -6.393  0.00  0.00    +0.027 A 
ATOM     24  C   UNL     1      -8.999  -5.316  -7.348  0.00  0.00    +0.003 A 
ATOM     25  C   UNL     1      -8.593  -4.827  -8.581  0.00  0.00    +0.020 A 
ATOM     26  C   UNL     1      -7.246  -4.625  -8.814  0.00  0.00    +0.111 A 
ATOM     27  N   UNL     1      -6.353  -4.886  -7.879  0.00  0.00    -0.256 NA
ENDBRANCH  21  22
ENDBRANCH  20  21
ENDBRANCH  16  20
ENDBRANCH   7  11
BRANCH   6  28
ATOM     28  N   UNL     1      -3.919  -1.514   0.029  0.00  0.00    -0.279 N 
ATOM     29  C   UNL     1      -5.093  -1.948   0.529  0.00  0.00    +0.241 C 
ATOM     30  O   UNL     1      -5.164  -3.045   1.049  0.00  0.00    -0.271 OA
ATOM     31  H   UNL     1      -3.842  -0.609  -0.313  0.00  0.00    +0.155 HD
BRANCH  29  32
ATOM     32  C   UNL     1      -6.288  -1.095   0.446  0.00  0.00    +0.061 C 
ATOM     33  C   UNL     1      -7.447  -1.523   0.939  0.00  0.00    -0.040 C 
BRANCH  33  34
ATOM     34  C   UNL     1      -8.671  -0.649   0.854  0.00  0.00    -0.052 C 
BRANCH  34  35
ATOM     35  N   UNL     1      -9.753  -1.385   0.188  0.00  0.00    +0.378 N 
ATOM     36  C   UNL     1     -10.150  -2.530   1.018  0.00  0.00    -0.096 C 
ATOM     37  C   UNL     1     -10.906  -0.495  -0.003  0.00  0.00    -0.096 C 
ATOM     38  H   UNL     1      -9.432  -1.716  -0.710  0.00  0.00    -0.082 HD
ENDBRANCH  34  35
ENDBRANCH  33  34
ENDBRANCH  29  32
ENDBRANCH   6  28
BRANCH   1  39
ATOM     39  O   UNL     1      -1.352  -0.477   0.003  0.00  0.00    -0.490 OA
BRANCH  39  41
ATOM     40  C   UNL     1      -0.026   1.544   0.007  0.00  0.00    +0.048 C 
ATOM     41  C   UNL     1      -0.010   0.014  -0.011  0.00  0.00    +0.226 C 
ENDBRANCH  39  41
ENDBRANCH   1  39
TORSDOF 10
