REMARK  Name = CHEMBL196438
REMARK  6 active torsions:
REMARK  status: ('A' for Active; 'I' for Inactive)
REMARK    1  A    between atoms: C_1  and  C_2
REMARK    2  A    between atoms: C_2  and  C_3
REMARK    3  A    between atoms: C_4  and  C_29
REMARK    4  A    between atoms: N_12  and  C_13
REMARK    5  A    between atoms: N_21  and  C_22
REMARK    6  A    between atoms: C_22  and  C_23
REMARK                            x       y       z     vdW  Elec       q    Type
REMARK                         _______ _______ _______ _____ _____    ______ ____
ROOT
ATOM      1  C   UNL     1      -1.464  -0.651  -0.022  0.00  0.00    -0.003 A 
ATOM      2  C   UNL     1      -2.082  -1.307   1.065  0.00  0.00    +0.086 A 
ATOM      3  C   UNL     1      -2.939  -2.260   0.533  0.00  0.00    +0.128 A 
ATOM      4  N   UNL     1      -2.866  -2.207  -0.803  0.00  0.00    -0.234 N 
ATOM      5  C   UNL     1      -1.968  -1.220  -1.168  0.00  0.00    +0.109 A 
ATOM      6  C   UNL     1      -1.742  -0.989  -2.549  0.00  0.00    +0.151 A 
ATOM      7  N   UNL     1      -2.393  -1.717  -3.439  0.00  0.00    -0.217 NA
ATOM      8  C   UNL     1      -3.258  -2.662  -3.072  0.00  0.00    +0.245 A 
ATOM      9  N   UNL     1      -3.506  -2.931  -1.820  0.00  0.00    -0.155 NA
ATOM     10  N   UNL     1      -0.852  -0.017  -2.958  0.00  0.00    -0.298 N 
ATOM     11  H   UNL     1      -0.319   0.458  -2.302  0.00  0.00    +0.154 HD
ENDROOT
BRANCH  10  12
ATOM     12  C   UNL     1      -0.721   0.283  -4.319  0.00  0.00    +0.033 A 
ATOM     13  C   UNL     1      -1.830   0.191  -5.161  0.00  0.00    +0.025 A 
ATOM     14  C   UNL     1      -1.722   0.479  -6.490  0.00  0.00    +0.030 A 
ATOM     15  C   UNL     1      -0.496   0.871  -7.024  0.00  0.00    +0.069 A 
ATOM     16  C   UNL     1       0.629   0.967  -6.183  0.00  0.00    +0.021 A 
ATOM     17  C   UNL     1       0.505   0.673  -4.821  0.00  0.00    +0.034 A 
ATOM     18  C   UNL     1       1.738   1.393  -7.030  0.00  0.00    +0.143 A 
ATOM     19  N   UNL     1       1.285   1.528  -8.244  0.00  0.00    -0.178 NA
ATOM     20  N   UNL     1      -0.079   1.218  -8.284  0.00  0.00    -0.259 N 
BRANCH  20  21
ATOM     21  C   UNL     1      -0.925   1.257  -9.479  0.00  0.00    +0.179 C 
BRANCH  21  22
ATOM     22  C   UNL     1      -1.532   2.629  -9.620  0.00  0.00    -0.026 A 
ATOM     23  C   UNL     1      -2.747   2.912  -9.026  0.00  0.00    +0.005 A 
ATOM     24  C   UNL     1      -3.304   4.170  -9.155  0.00  0.00    +0.000 A 
ATOM     25  C   UNL     1      -2.645   5.147  -9.878  0.00  0.00    +0.000 A 
ATOM     26  C   UNL     1      -1.428   4.864 -10.472  0.00  0.00    +0.000 A 
ATOM     27  C   UNL     1      -0.870   3.607 -10.339  0.00  0.00    +0.005 A 
ENDBRANCH  21  22
ENDBRANCH  20  21
ENDBRANCH  10  12
BRANCH   2  28
ATOM     28  C   UNL     1      -1.858  -1.033   2.492  0.00  0.00    +0.388 C 
ATOM     29  O   UNL     1      -2.460  -1.677   3.340  0.00  0.00    -0.241 OA
ATOM     30  O   UNL     1      -1.070  -0.161   2.831  0.00  0.00    -0.241 OA
ENDBRANCH   2  28
BRANCH   1  32
ATOM     31  C   UNL     1      -1.166   1.811  -0.068  0.00  0.00    +0.009 C 
ATOM     32  C   UNL     1      -0.452   0.463   0.059  0.00  0.00    +0.035 C 
ENDBRANCH   1  32
TORSDOF 5
