REMARK  Name = CHEMBL325589
REMARK  3 active torsions:
REMARK  status: ('A' for Active; 'I' for Inactive)
REMARK    1  A    between atoms: C_1  and  N_2
REMARK    2  A    between atoms: C_6  and  C_9
REMARK    3  A    between atoms: N_21  and  C_22
REMARK                            x       y       z     vdW  Elec       q    Type
REMARK                         _______ _______ _______ _____ _____    ______ ____
ROOT
ATOM      1  C   UNL     1      -0.038   1.394   0.640  0.00  0.00    +0.154 C 
ATOM      2  N   UNL     1      -0.009  -0.041   0.346  0.00  0.00    -0.295 N 
ATOM      3  C   UNL     1      -1.185  -0.713   0.127  0.00  0.00    +0.148 A 
ATOM      4  C   UNL     1      -1.175  -2.095  -0.158  0.00  0.00    +0.037 A 
ATOM      5  C   UNL     1       0.049  -2.800  -0.219  0.00  0.00    +0.027 A 
ATOM      6  C   UNL     1       1.218  -2.121   0.001  0.00  0.00    +0.050 A 
ATOM      7  C   UNL     1       1.172  -0.686   0.289  0.00  0.00    +0.260 A 
ATOM      8  O   UNL     1       2.207  -0.073   0.481  0.00  0.00    -0.267 OA
ATOM      9  C   UNL     1      -2.399  -2.745  -0.377  0.00  0.00    +0.126 A 
ATOM     10  N   UNL     1      -3.511  -2.036  -0.307  0.00  0.00    -0.222 NA
ATOM     11  C   UNL     1      -3.482  -0.736  -0.037  0.00  0.00    +0.221 A 
ATOM     12  N   UNL     1      -2.352  -0.080   0.176  0.00  0.00    -0.196 NA
ATOM     13  N   UNL     1      -4.676  -0.042   0.023  0.00  0.00    -0.282 N 
ATOM     14  H   UNL     1      -4.671   0.921   0.138  0.00  0.00    +0.155 HD
ENDROOT
BRANCH   6  15
ATOM     15  C   UNL     1       2.517  -2.831  -0.056  0.00  0.00    +0.024 A 
ATOM     16  C   UNL     1       3.047  -3.415   1.095  0.00  0.00    +0.050 A 
ATOM     17  C   UNL     1       4.259  -4.075   1.035  0.00  0.00    +0.021 A 
ATOM     18  C   UNL     1       4.946  -4.159  -0.162  0.00  0.00    +0.003 A 
ATOM     19  C   UNL     1       4.426  -3.582  -1.307  0.00  0.00    +0.021 A 
ATOM     20  C   UNL     1       3.212  -2.924  -1.262  0.00  0.00    +0.050 A 
ATOM     21 CL   UNL     1       2.558  -2.208  -2.701  0.00  0.00    -0.083 Cl
ATOM     22 CL   UNL     1       2.187  -3.311   2.599  0.00  0.00    -0.083 Cl
ENDBRANCH   6  15
BRANCH  13  23
ATOM     23  C   UNL     1      -5.889  -0.729  -0.081  0.00  0.00    +0.052 A 
ATOM     24  C   UNL     1      -6.045  -1.982   0.507  0.00  0.00    +0.026 A 
ATOM     25  C   UNL     1      -7.266  -2.623   0.376  0.00  0.00    +0.021 A 
ATOM     26  C   UNL     1      -8.283  -2.003  -0.328  0.00  0.00    +0.111 A 
ATOM     27  N   UNL     1      -8.103  -0.816  -0.873  0.00  0.00    -0.261 NA
ATOM     28  C   UNL     1      -6.959  -0.169  -0.768  0.00  0.00    +0.134 A 
ENDBRANCH  13  23
TORSDOF 2
