REMARK  Name = CHEMBL205045
REMARK  7 active torsions:
REMARK  status: ('A' for Active; 'I' for Inactive)
REMARK    1  A    between atoms: C_5  and  C_7
REMARK    2  A    between atoms: C_8  and  C_9
REMARK    3  A    between atoms: C_14  and  N_15
REMARK    4  A    between atoms: N_15  and  C_16
REMARK    5  A    between atoms: C_19  and  O_23
REMARK    6  A    between atoms: O_23  and  C_24
REMARK    7  A    between atoms: C_24  and  C_25
REMARK                            x       y       z     vdW  Elec       q    Type
REMARK                         _______ _______ _______ _____ _____    ______ ____
ROOT
ATOM      1  N   UNL     1      -1.084  -4.836  -0.015  0.00  0.00    -0.298 N 
ATOM      2  H   UNL     1      -1.053  -3.997   0.469  0.00  0.00    +0.154 HD
ENDROOT
BRANCH   1   3
ATOM      3  C   UNL     1      -2.284  -5.553  -0.098  0.00  0.00    +0.034 A 
ATOM      4  C   UNL     1      -2.265  -6.942  -0.095  0.00  0.00    +0.027 A 
ATOM      5  C   UNL     1      -3.448  -7.649  -0.177  0.00  0.00    +0.049 A 
ATOM      6  C   UNL     1      -4.656  -6.973  -0.262  0.00  0.00    +0.139 A 
ATOM      7  C   UNL     1      -4.676  -5.585  -0.265  0.00  0.00    +0.084 A 
ATOM      8  C   UNL     1      -3.493  -4.876  -0.177  0.00  0.00    +0.047 A 
ATOM      9 CL   UNL     1      -6.189  -4.739  -0.371  0.00  0.00    -0.080 Cl
BRANCH   6  10
ATOM     10  O   UNL     1      -5.821  -7.670  -0.343  0.00  0.00    -0.486 OA
BRANCH  10  11
ATOM     11  C   UNL     1      -5.726  -9.095  -0.335  0.00  0.00    +0.264 C 
BRANCH  11  12
ATOM     12  C   UNL     1      -7.107  -9.692  -0.431  0.00  0.00    -0.008 A 
ATOM     13  C   UNL     1      -7.825  -9.959   0.720  0.00  0.00    +0.007 A 
ATOM     14  C   UNL     1      -9.092 -10.506   0.633  0.00  0.00    +0.003 A 
ATOM     15  C   UNL     1      -9.641 -10.787  -0.604  0.00  0.00    +0.038 A 
ATOM     16  C   UNL     1      -8.922 -10.519  -1.756  0.00  0.00    +0.124 A 
ATOM     17  C   UNL     1      -7.656  -9.966  -1.669  0.00  0.00    +0.045 A 
ATOM     18  F   UNL     1      -9.458 -10.793  -2.966  0.00  0.00    -0.205 F 
ENDBRANCH  11  12
ENDBRANCH  10  11
ENDBRANCH   6  10
ENDBRANCH   1   3
BRANCH   1  24
ATOM     19  C   UNL     1       1.299  -4.679  -0.449  0.00  0.00    +0.083 A 
ATOM     20  C   UNL     1       2.418  -5.224  -1.086  0.00  0.00    +0.132 A 
ATOM     21  N   UNL     1       2.269  -6.311  -1.825  0.00  0.00    -0.242 NA
ATOM     22  C   UNL     1       1.089  -6.882  -1.969  0.00  0.00    +0.223 A 
ATOM     23  N   UNL     1       0.004  -6.409  -1.391  0.00  0.00    -0.219 NA
ATOM     24  C   UNL     1       0.057  -5.325  -0.625  0.00  0.00    +0.142 A 
BRANCH  19  26
ATOM     25  C   UNL     1       1.503  -2.540   1.025  0.00  0.00    -0.041 C 
ATOM     26  C   UNL     1       1.411  -3.503   0.361  0.00  0.00    -0.055 C 
BRANCH  25  31
ATOM     27  C   UNL     1       0.605   0.291   3.243  0.00  0.00    +0.004 A 
ATOM     28  C   UNL     1       1.859   0.874   3.370  0.00  0.00    +0.020 A 
ATOM     29  C   UNL     1       2.941   0.308   2.721  0.00  0.00    +0.112 A 
ATOM     30  N   UNL     1       2.797  -0.775   1.984  0.00  0.00    -0.247 NA
ATOM     31  C   UNL     1       1.615  -1.364   1.836  0.00  0.00    +0.114 A 
ATOM     32  C   UNL     1       0.480  -0.845   2.465  0.00  0.00    +0.037 A 
ENDBRANCH  25  31
ENDBRANCH  19  26
ENDBRANCH   1  24
TORSDOF 7
