REMARK  Name = CHEMBL461967
REMARK  7 active torsions:
REMARK  status: ('A' for Active; 'I' for Inactive)
REMARK    1  A    between atoms: C_1  and  N_2
REMARK    2  A    between atoms: C_7  and  C_9
REMARK    3  A    between atoms: N_11  and  C_12
REMARK    4  A    between atoms: C_12  and  C_13
REMARK    5  A    between atoms: C_18  and  O_19
REMARK    6  A    between atoms: O_19  and  C_20
REMARK    7  A    between atoms: N_25  and  C_26
REMARK                            x       y       z     vdW  Elec       q    Type
REMARK                         _______ _______ _______ _____ _____    ______ ____
ROOT
ATOM      1  C   UNL     1       0.266  -0.646   6.092  0.00  0.00    +0.012 A 
ATOM      2  C   UNL     1      -0.247  -1.780   6.647  0.00  0.00    +0.022 A 
ATOM      3  C   UNL     1       0.365  -2.339   7.775  0.00  0.00    +0.041 A 
ATOM      4  C   UNL     1       1.514  -1.724   8.332  0.00  0.00    +0.079 A 
ATOM      5  C   UNL     1       2.023  -0.560   7.745  0.00  0.00    +0.074 A 
ATOM      6  C   UNL     1       1.402  -0.036   6.631  0.00  0.00    +0.127 A 
ATOM      7  N   UNL     1       2.083  -2.280   9.413  0.00  0.00    -0.235 NA
ATOM      8  C   UNL     1       1.583  -3.372   9.940  0.00  0.00    +0.223 A 
ATOM      9  N   UNL     1       0.513  -3.981   9.455  0.00  0.00    -0.220 NA
ATOM     10  C   UNL     1      -0.127  -3.515   8.389  0.00  0.00    +0.134 A 
ATOM     11  N   UNL     1      -1.241  -4.160   7.894  0.00  0.00    -0.299 N 
ATOM     12  H   UNL     1      -1.647  -3.860   7.066  0.00  0.00    +0.154 HD
ENDROOT
BRANCH  11  13
ATOM     13  C   UNL     1      -1.785  -5.247   8.586  0.00  0.00    +0.034 A 
ATOM     14  C   UNL     1      -1.753  -5.275   9.974  0.00  0.00    +0.026 A 
ATOM     15  C   UNL     1      -2.291  -6.349  10.655  0.00  0.00    +0.041 A 
ATOM     16  C   UNL     1      -2.863  -7.398   9.956  0.00  0.00    +0.142 A 
ATOM     17  C   UNL     1      -2.896  -7.373   8.571  0.00  0.00    +0.078 A 
ATOM     18  C   UNL     1      -2.364  -6.298   7.886  0.00  0.00    +0.046 A 
ATOM     19 CL   UNL     1      -3.613  -8.691   7.697  0.00  0.00    -0.081 Cl
ATOM     20  F   UNL     1      -3.388  -8.448  10.625  0.00  0.00    -0.204 F 
ENDBRANCH  11  13
BRANCH   6  21
ATOM     21  O   UNL     1       1.896   1.090   6.054  0.00  0.00    -0.495 OA
ATOM     22  C   UNL     1       3.059   1.668   6.651  0.00  0.00    +0.277 C 
ENDBRANCH   6  21
BRANCH   1  23
ATOM     23  C   UNL     1      -0.396  -0.046   4.878  0.00  0.00    +0.143 C 
BRANCH  23  26
ATOM     24  C   UNL     1      -0.067  -0.014   2.464  0.00  0.00    +0.200 C 
ATOM     25  O   UNL     1      -1.050   0.690   2.369  0.00  0.00    -0.278 OA
ATOM     26  N   UNL     1       0.344  -0.437   3.676  0.00  0.00    -0.312 N 
ATOM     27  H   UNL     1       1.131  -1.000   3.752  0.00  0.00    +0.149 HD
BRANCH  24  34
ATOM     28  C   UNL     1      -0.012   1.564   0.075  0.00  0.00    -0.095 C 
ATOM     29  N   UNL     1       0.000   0.096   0.039  0.00  0.00    +0.385 N 
ATOM     30  C   UNL     1      -1.380  -0.403   0.015  0.00  0.00    -0.078 C 
ATOM     31  C   UNL     1      -1.373  -1.928  -0.103  0.00  0.00    -0.019 C 
ATOM     32  C   UNL     1      -0.634  -2.525   1.097  0.00  0.00    -0.003 C 
ATOM     33  C   UNL     1       0.781  -1.941   1.155  0.00  0.00    -0.006 C 
ATOM     34  C   UNL     1       0.694  -0.415   1.227  0.00  0.00    +0.019 C 
ATOM     35  H   UNL     1       0.482  -0.215  -0.791  0.00  0.00    -0.081 HD
ENDBRANCH  24  34
ENDBRANCH  23  26
ENDBRANCH   1  23
TORSDOF 5
