REMARK  Name = CHEMBL402011
REMARK  9 active torsions:
REMARK  status: ('A' for Active; 'I' for Inactive)
REMARK    1  A    between atoms: C_1  and  C_2
REMARK    2  A    between atoms: C_2  and  C_4
REMARK    3  A    between atoms: C_2  and  O_9
REMARK    4  A    between atoms: N_6  and  C_7
REMARK    5  A    between atoms: N_6  and  C_8
REMARK    6  A    between atoms: O_9  and  C_10
REMARK    7  A    between atoms: N_20  and  C_21
REMARK    8  A    between atoms: N_29  and  C_30
REMARK    9  A    between atoms: C_30  and  C_31
REMARK                            x       y       z     vdW  Elec       q    Type
REMARK                         _______ _______ _______ _____ _____    ______ ____
ROOT
ATOM      1  C   UNL     1      -1.575  -0.167   1.344  0.00  0.00    +0.134 A 
ATOM      2  C   UNL     1      -0.760   0.090   2.429  0.00  0.00    +0.046 A 
ATOM      3  C   UNL     1      -0.936  -0.594   3.625  0.00  0.00    +0.006 A 
ATOM      4  C   UNL     1      -1.914  -1.535   3.763  0.00  0.00    +0.029 A 
ATOM      5  C   UNL     1      -2.761  -1.823   2.686  0.00  0.00    +0.080 A 
ATOM      6  C   UNL     1      -2.593  -1.127   1.463  0.00  0.00    +0.082 A 
ATOM      7  C   UNL     1      -3.465  -1.434   0.393  0.00  0.00    +0.137 A 
ATOM      8  N   UNL     1      -4.400  -2.356   0.591  0.00  0.00    -0.220 NA
ATOM      9  C   UNL     1      -4.523  -2.977   1.752  0.00  0.00    +0.223 A 
ATOM     10  N   UNL     1      -3.736  -2.741   2.775  0.00  0.00    -0.235 NA
ATOM     11  N   UNL     1      -3.348  -0.793  -0.823  0.00  0.00    -0.299 N 
ATOM     12  H   UNL     1      -2.600  -0.198  -0.987  0.00  0.00    +0.154 HD
ENDROOT
BRANCH  11  13
ATOM     13  C   UNL     1      -4.308  -1.002  -1.819  0.00  0.00    +0.033 A 
ATOM     14  C   UNL     1      -5.642  -1.210  -1.466  0.00  0.00    +0.025 A 
ATOM     15  C   UNL     1      -6.594  -1.415  -2.422  0.00  0.00    +0.030 A 
ATOM     16  C   UNL     1      -6.241  -1.419  -3.770  0.00  0.00    +0.069 A 
ATOM     17  C   UNL     1      -4.898  -1.210  -4.138  0.00  0.00    +0.021 A 
ATOM     18  C   UNL     1      -3.932  -0.996  -3.148  0.00  0.00    +0.034 A 
ATOM     19  C   UNL     1      -4.857  -1.272  -5.595  0.00  0.00    +0.143 A 
ATOM     20  N   UNL     1      -6.069  -1.496  -6.018  0.00  0.00    -0.178 NA
ATOM     21  N   UNL     1      -6.946  -1.593  -4.934  0.00  0.00    -0.258 N 
BRANCH  21  22
ATOM     22  C   UNL     1      -8.387  -1.841  -5.025  0.00  0.00    +0.199 C 
BRANCH  22  23
ATOM     23  C   UNL     1      -9.118  -0.526  -5.123  0.00  0.00    +0.063 A 
ATOM     24  C   UNL     1      -9.986  -0.303  -6.175  0.00  0.00    +0.025 A 
ATOM     25  C   UNL     1     -10.653   0.909  -6.256  0.00  0.00    +0.003 A 
ATOM     26  C   UNL     1     -10.421   1.857  -5.270  0.00  0.00    +0.020 A 
ATOM     27  C   UNL     1      -9.539   1.563  -4.247  0.00  0.00    +0.111 A 
ATOM     28  N   UNL     1      -8.926   0.396  -4.200  0.00  0.00    -0.258 NA
ENDBRANCH  22  23
ENDBRANCH  21  22
ENDBRANCH  11  13
BRANCH   1  29
ATOM     29  O   UNL     1      -1.399   0.505   0.178  0.00  0.00    -0.479 OA
BRANCH  29  31
ATOM     30  C   UNL     1      -0.643   2.742   0.692  0.00  0.00    +0.062 C 
ATOM     31  C   UNL     1      -0.273   1.381   0.099  0.00  0.00    +0.256 C 
BRANCH  31  32
ATOM     32  C   UNL     1       0.128   1.554  -1.343  0.00  0.00    +0.256 C 
ATOM     33  O   UNL     1      -0.668   1.318  -2.227  0.00  0.00    -0.272 OA
ATOM     34  N   UNL     1       1.373   1.970  -1.652  0.00  0.00    -0.305 N 
ATOM     35  C   UNL     1       1.795   2.041  -3.053  0.00  0.00    +0.131 C 
ATOM     36  C   UNL     1       2.303   2.351  -0.586  0.00  0.00    +0.131 C 
ENDBRANCH  31  32
ENDBRANCH  29  31
ENDBRANCH   1  29
TORSDOF 6
