REMARK  Name = CHEMBL1173718
REMARK  9 active torsions:
REMARK  status: ('A' for Active; 'I' for Inactive)
REMARK    1  A    between atoms: C_1  and  C_2
REMARK    2  A    between atoms: C_5  and  N_26
REMARK    3  A    between atoms: N_6  and  C_7
REMARK    4  A    between atoms: C_7  and  C_8
REMARK    5  A    between atoms: C_8  and  O_9
REMARK    6  A    between atoms: O_9  and  C_10
REMARK    7  A    between atoms: C_10  and  C_12
REMARK    8  A    between atoms: C_13  and  C_14
REMARK    9  A    between atoms: C_17  and  C_20
REMARK                            x       y       z     vdW  Elec       q    Type
REMARK                         _______ _______ _______ _____ _____    ______ ____
ROOT
ATOM      1  C   UNL     1      -2.603   0.383   4.947  0.00  0.00    +0.332 C 
ATOM      2  O   UNL     1      -3.626   0.168   4.324  0.00  0.00    -0.246 OA
ENDROOT
BRANCH   1   3
ATOM      3  C   UNL     1      -2.674   0.824   6.338  0.00  0.00    +0.092 C 
ATOM      4  C   UNL     1      -3.874   0.993   6.933  0.00  0.00    +0.015 C 
BRANCH   4   5
ATOM      5  C   UNL     1      -3.944   1.437   8.333  0.00  0.00    -0.025 A 
ATOM      6  C   UNL     1      -2.768   1.690   9.048  0.00  0.00    +0.008 A 
ATOM      7  C   UNL     1      -2.836   2.104  10.354  0.00  0.00    +0.009 A 
ATOM      8  C   UNL     1      -4.077   2.273  10.969  0.00  0.00    -0.018 A 
ATOM      9  C   UNL     1      -5.251   2.020  10.258  0.00  0.00    +0.009 A 
ATOM     10  C   UNL     1      -5.188   1.612   8.951  0.00  0.00    +0.008 A 
BRANCH   8  11
ATOM     11  C   UNL     1      -4.148   2.720  12.381  0.00  0.00    -0.018 A 
ATOM     12  C   UNL     1      -2.978   2.979  13.093  0.00  0.00    +0.008 A 
ATOM     13  C   UNL     1      -3.050   3.396  14.406  0.00  0.00    +0.001 A 
ATOM     14  C   UNL     1      -4.281   3.557  15.017  0.00  0.00    +0.000 A 
ATOM     15  C   UNL     1      -5.446   3.302  14.315  0.00  0.00    +0.001 A 
ATOM     16  C   UNL     1      -5.386   2.890  13.000  0.00  0.00    +0.008 A 
ENDBRANCH   8  11
ENDBRANCH   4   5
ENDBRANCH   1   3
BRANCH   1  17
ATOM     17  O   UNL     1      -1.404   0.214   4.352  0.00  0.00    -0.460 OA
BRANCH  17  18
ATOM     18  C   UNL     1      -1.410  -0.219   2.990  0.00  0.00    +0.254 C 
BRANCH  18  19
ATOM     19  C   UNL     1       0.030  -0.353   2.491  0.00  0.00    +0.166 C 
BRANCH  19  25
ATOM     20  C   UNL     1      -0.018   1.503   0.010  0.00  0.00    +0.086 C 
ATOM     21  C   UNL     1       0.002  -0.004   0.002  0.00  0.00    +0.108 A 
ATOM     22  N   UNL     1       0.008  -0.759  -1.063  0.00  0.00    -0.239 NA
ATOM     23  C   UNL     1       0.028  -2.047  -0.691  0.00  0.00    +0.164 A 
ATOM     24  C   UNL     1       0.035  -2.093   0.655  0.00  0.00    +0.216 A 
ATOM     25  N   UNL     1       0.023  -0.797   1.095  0.00  0.00    -0.306 N 
BRANCH  24  26
ATOM     26  N   UNL     1       0.055  -3.311   1.496  0.00  0.00    +0.075 N 
ATOM     27  O   UNL     1       0.069  -4.403   0.979  0.00  0.00    -0.125 OA
ATOM     28  O   UNL     1       0.059  -3.213   2.701  0.00  0.00    -0.125 OA
ENDBRANCH  24  26
ENDBRANCH  19  25
ENDBRANCH  18  19
ENDBRANCH  17  18
ENDBRANCH   1  17
TORSDOF 8
