REMARK  Name = CHEMBL125086
REMARK  8 active torsions:
REMARK  status: ('A' for Active; 'I' for Inactive)
REMARK    1  A    between atoms: C_1  and  C_2
REMARK    2  A    between atoms: C_2  and  O_3
REMARK    3  A    between atoms: O_3  and  C_4
REMARK    4  A    between atoms: C_9  and  O_10
REMARK    5  A    between atoms: O_10  and  C_11
REMARK    6  A    between atoms: C_11  and  C_12
REMARK    7  A    between atoms: N_17  and  C_18
REMARK    8  A    between atoms: C_22  and  C_24
REMARK                            x       y       z     vdW  Elec       q    Type
REMARK                         _______ _______ _______ _____ _____    ______ ____
ROOT
ATOM      1  C   UNL     1       1.351  -1.867  -0.987  0.00  0.00    +0.163 A 
ATOM      2  C   UNL     1       0.640  -2.687  -0.157  0.00  0.00    +0.062 A 
ATOM      3  C   UNL     1       0.541  -4.053  -0.450  0.00  0.00    +0.044 A 
ATOM      4  C   UNL     1       1.177  -4.576  -1.603  0.00  0.00    +0.080 A 
ATOM      5  C   UNL     1       1.900  -3.718  -2.440  0.00  0.00    +0.078 A 
ATOM      6  C   UNL     1       1.978  -2.377  -2.133  0.00  0.00    +0.164 A 
ATOM      7  N   UNL     1       1.065  -5.889  -1.861  0.00  0.00    -0.235 NA
ATOM      8  C   UNL     1       0.381  -6.668  -1.058  0.00  0.00    +0.223 A 
ATOM      9  N   UNL     1      -0.230  -6.224   0.029  0.00  0.00    -0.220 NA
ATOM     10  C   UNL     1      -0.183  -4.945   0.376  0.00  0.00    +0.134 A 
ATOM     11  N   UNL     1      -0.824  -4.495   1.514  0.00  0.00    -0.299 N 
ATOM     12  H   UNL     1      -0.853  -3.546   1.711  0.00  0.00    +0.154 HD
ENDROOT
BRANCH  11  13
ATOM     13  C   UNL     1      -1.432  -5.408   2.380  0.00  0.00    +0.033 A 
ATOM     14  C   UNL     1      -2.615  -5.070   3.029  0.00  0.00    +0.023 A 
ATOM     15  C   UNL     1      -3.220  -5.969   3.887  0.00  0.00    +0.002 A 
ATOM     16  C   UNL     1      -2.655  -7.209   4.104  0.00  0.00    +0.011 A 
ATOM     17  C   UNL     1      -1.468  -7.559   3.458  0.00  0.00    +0.019 A 
ATOM     18  C   UNL     1      -0.860  -6.654   2.588  0.00  0.00    +0.034 A 
BRANCH  17  19
ATOM     19  C   UNL     1      -0.860  -8.886   3.690  0.00  0.00    +0.135 A 
ATOM     20  C   UNL     1      -1.354  -9.859   4.501  0.00  0.00    +0.050 A 
ATOM     21  C   UNL     1      -0.462 -10.947   4.421  0.00  0.00    +0.042 A 
ATOM     22  C   UNL     1       0.523 -10.588   3.574  0.00  0.00    +0.196 A 
ATOM     23  O   UNL     1       0.276  -9.344   3.130  0.00  0.00    -0.463 OA
ENDBRANCH  17  19
ENDBRANCH  11  13
BRANCH   1  24
ATOM     24  O   UNL     1       1.447  -0.541  -0.702  0.00  0.00    -0.489 OA
BRANCH  24  26
ATOM     25  C   UNL     1       1.004   1.424   0.632  0.00  0.00    +0.048 C 
ATOM     26  C   UNL     1       0.786  -0.082   0.479  0.00  0.00    +0.226 C 
ENDBRANCH  24  26
ENDBRANCH   1  24
BRANCH   6  27
ATOM     27  O   UNL     1       2.674  -1.541  -2.946  0.00  0.00    -0.489 OA
BRANCH  27  28
ATOM     28  C   UNL     1       3.291  -2.121  -4.098  0.00  0.00    +0.226 C 
ATOM     29  C   UNL     1       4.023  -1.033  -4.886  0.00  0.00    +0.048 C 
ENDBRANCH  27  28
ENDBRANCH   6  27
TORSDOF 6
