REMARK  Name = CHEMBL206783
REMARK  6 active torsions:
REMARK  status: ('A' for Active; 'I' for Inactive)
REMARK    1  A    between atoms: C_1  and  O_2
REMARK    2  A    between atoms: O_2  and  C_3
REMARK    3  A    between atoms: C_8  and  C_9
REMARK    4  A    between atoms: C_9  and  N_10
REMARK    5  A    between atoms: C_15  and  C_17
REMARK    6  A    between atoms: N_24  and  C_25
REMARK                            x       y       z     vdW  Elec       q    Type
REMARK                         _______ _______ _______ _____ _____    ______ ____
ROOT
ATOM      1  C   UNL     1      -0.999  -1.150  -1.153  0.00  0.00    +0.127 A 
ATOM      2  C   UNL     1      -2.117  -0.494  -1.623  0.00  0.00    +0.074 A 
ATOM      3  C   UNL     1      -3.352  -1.152  -1.623  0.00  0.00    +0.079 A 
ATOM      4  C   UNL     1      -3.431  -2.482  -1.140  0.00  0.00    +0.041 A 
ATOM      5  C   UNL     1      -2.279  -3.122  -0.668  0.00  0.00    +0.022 A 
ATOM      6  C   UNL     1      -1.087  -2.463  -0.683  0.00  0.00    +0.009 A 
ATOM      7  C   UNL     1      -4.693  -3.123  -1.152  0.00  0.00    +0.134 A 
ATOM      8  N   UNL     1      -5.736  -2.446  -1.616  0.00  0.00    -0.220 NA
ATOM      9  C   UNL     1      -5.614  -1.205  -2.057  0.00  0.00    +0.223 A 
ATOM     10  N   UNL     1      -4.471  -0.561  -2.070  0.00  0.00    -0.235 NA
ATOM     11  N   UNL     1      -4.834  -4.417  -0.695  0.00  0.00    -0.297 N 
ATOM     12  H   UNL     1      -4.087  -4.866  -0.271  0.00  0.00    +0.154 HD
ENDROOT
BRANCH  11  13
ATOM     13  C   UNL     1      -6.057  -5.082  -0.844  0.00  0.00    +0.070 A 
ATOM     14  C   UNL     1      -6.987  -4.629  -1.771  0.00  0.00    +0.026 A 
ATOM     15  C   UNL     1      -8.193  -5.287  -1.916  0.00  0.00    +0.003 A 
ATOM     16  C   UNL     1      -8.476  -6.396  -1.140  0.00  0.00    +0.023 A 
ATOM     17  C   UNL     1      -7.553  -6.851  -0.215  0.00  0.00    +0.078 A 
ATOM     18  C   UNL     1      -6.340  -6.200  -0.068  0.00  0.00    +0.163 A 
ATOM     19  F   UNL     1      -5.437  -6.647   0.831  0.00  0.00    -0.202 F 
ATOM     20 CL   UNL     1      -7.913  -8.244   0.757  0.00  0.00    -0.081 Cl
ENDBRANCH  11  13
BRANCH   1  22
ATOM     21  C   UNL     1       0.226   0.827  -1.643  0.00  0.00    +0.277 C 
ATOM     22  O   UNL     1       0.201  -0.515  -1.151  0.00  0.00    -0.495 OA
ENDBRANCH   1  22
BRANCH   6  23
ATOM     23  C   UNL     1       0.153  -3.157  -0.180  0.00  0.00    +0.124 C 
BRANCH  23  24
ATOM     24  N   UNL     1       0.437  -2.719   1.193  0.00  0.00    -0.287 NA
ATOM     25  C   UNL     1       0.789  -1.294   1.229  0.00  0.00    +0.085 C 
ATOM     26  C   UNL     1       0.934  -0.840   2.683  0.00  0.00    +0.015 C 
ATOM     27  C   UNL     1       2.024  -1.671   3.366  0.00  0.00    +0.003 C 
ATOM     28  C   UNL     1       1.657  -3.155   3.272  0.00  0.00    +0.028 C 
ATOM     29  C   UNL     1       1.490  -3.542   1.801  0.00  0.00    +0.143 C 
BRANCH  29  30
ATOM     30  C   UNL     1       2.789  -3.314   1.072  0.00  0.00    +0.228 C 
ATOM     31  O   UNL     1       2.844  -2.506   0.169  0.00  0.00    -0.274 OA
ATOM     32  N   UNL     1       3.890  -4.008   1.422  0.00  0.00    -0.328 N 
ATOM     33  H   UNL     1       3.846  -4.655   2.144  0.00  0.00    +0.145 HD
ATOM     34  H   UNL     1       4.726  -3.862   0.953  0.00  0.00    +0.145 HD
ENDBRANCH  29  30
ENDBRANCH  23  24
ENDBRANCH   6  23
TORSDOF 5
