REMARK  Name = CHEMBL555797
REMARK  5 active torsions:
REMARK  status: ('A' for Active; 'I' for Inactive)
REMARK    1  A    between atoms: C_1  and  O_2
REMARK    2  A    between atoms: O_2  and  C_3
REMARK    3  A    between atoms: C_8  and  O_9
REMARK    4  A    between atoms: O_9  and  C_10
REMARK    5  A    between atoms: N_15  and  C_16
REMARK                            x       y       z     vdW  Elec       q    Type
REMARK                         _______ _______ _______ _____ _____    ______ ____
ROOT
ATOM      1  C   UNL     1      -1.260  -0.641   0.683  0.00  0.00    +0.162 A 
ATOM      2  C   UNL     1      -2.393   0.096   0.479  0.00  0.00    +0.062 A 
ATOM      3  C   UNL     1      -3.611  -0.554   0.249  0.00  0.00    +0.044 A 
ATOM      4  C   UNL     1      -3.663  -1.970   0.230  0.00  0.00    +0.080 A 
ATOM      5  C   UNL     1      -2.490  -2.705   0.442  0.00  0.00    +0.078 A 
ATOM      6  C   UNL     1      -1.303  -2.042   0.660  0.00  0.00    +0.164 A 
ATOM      7  N   UNL     1      -4.844  -2.569   0.008  0.00  0.00    -0.235 NA
ATOM      8  C   UNL     1      -5.926  -1.854  -0.188  0.00  0.00    +0.223 A 
ATOM      9  N   UNL     1      -5.925  -0.530  -0.179  0.00  0.00    -0.220 NA
ATOM     10  C   UNL     1      -4.812   0.161   0.032  0.00  0.00    +0.134 A 
ATOM     11  N   UNL     1      -4.826   1.542   0.039  0.00  0.00    -0.299 N 
ATOM     12  H   UNL     1      -3.994   2.034   0.110  0.00  0.00    +0.154 HD
ENDROOT
BRANCH  11  13
ATOM     13  C   UNL     1      -6.040   2.229  -0.058  0.00  0.00    +0.033 A 
ATOM     14  C   UNL     1      -6.108   3.427  -0.757  0.00  0.00    +0.023 A 
ATOM     15  C   UNL     1      -7.308   4.101  -0.849  0.00  0.00    +0.006 A 
ATOM     16  C   UNL     1      -8.446   3.588  -0.246  0.00  0.00    -0.044 A 
ATOM     17  C   UNL     1      -8.381   2.396   0.450  0.00  0.00    -0.042 A 
ATOM     18  C   UNL     1      -7.181   1.713   0.540  0.00  0.00    +0.027 A 
ATOM     19  C   UNL     1      -9.746   2.054   1.009  0.00  0.00    +0.036 C 
ATOM     20  C   UNL     1     -10.546   3.373   0.954  0.00  0.00    +0.009 C 
ATOM     21  C   UNL     1      -9.860   4.129  -0.203  0.00  0.00    +0.036 C 
ENDBRANCH  11  13
BRANCH   1  23
ATOM     22  C   UNL     1      -0.098   1.421   0.917  0.00  0.00    +0.277 C 
ATOM     23  O   UNL     1      -0.077  -0.008   0.905  0.00  0.00    -0.491 OA
ENDBRANCH   1  23
BRANCH   6  24
ATOM     24  O   UNL     1      -0.163  -2.752   0.861  0.00  0.00    -0.491 OA
ATOM     25  C   UNL     1      -0.272  -4.177   0.826  0.00  0.00    +0.277 C 
ENDBRANCH   6  24
TORSDOF 3
