REMARK  Name = CHEMBL251124
REMARK  9 active torsions:
REMARK  status: ('A' for Active; 'I' for Inactive)
REMARK    1  A    between atoms: C_1  and  C_2
REMARK    2  A    between atoms: C_2  and  O_3
REMARK    3  A    between atoms: O_3  and  C_4
REMARK    4  A    between atoms: C_9  and  O_10
REMARK    5  A    between atoms: O_10  and  C_11
REMARK    6  A    between atoms: C_11  and  C_12
REMARK    7  A    between atoms: C_16  and  C_17
REMARK    8  A    between atoms: C_18  and  C_19
REMARK    9  A    between atoms: C_20  and  C_25
REMARK                            x       y       z     vdW  Elec       q    Type
REMARK                         _______ _______ _______ _____ _____    ______ ____
ROOT
ATOM      1  C   UNL     1       0.575  -1.852   1.383  0.00  0.00    +0.163 A 
ATOM      2  C   UNL     1       0.163  -2.663   0.361  0.00  0.00    +0.062 A 
ATOM      3  C   UNL     1       0.293  -4.047   0.484  0.00  0.00    +0.038 A 
ATOM      4  C   UNL     1       0.849  -4.608   1.662  0.00  0.00    +0.079 A 
ATOM      5  C   UNL     1       1.264  -3.760   2.696  0.00  0.00    +0.077 A 
ATOM      6  C   UNL     1       1.131  -2.396   2.549  0.00  0.00    +0.164 A 
ATOM      7  N   UNL     1       0.960  -5.942   1.748  0.00  0.00    -0.235 NA
ATOM      8  C   UNL     1       0.565  -6.720   0.769  0.00  0.00    +0.223 A 
ATOM      9  N   UNL     1       0.039  -6.275  -0.357  0.00  0.00    -0.226 NA
ATOM     10  C   UNL     1      -0.129  -4.967  -0.574  0.00  0.00    +0.125 A 
ENDROOT
BRANCH  10  11
ATOM     11  C   UNL     1      -0.701  -4.484  -1.795  0.00  0.00    -0.039 C 
ATOM     12  C   UNL     1      -1.169  -4.088  -2.796  0.00  0.00    -0.041 C 
BRANCH  12  13
ATOM     13  C   UNL     1      -1.741  -3.605  -4.017  0.00  0.00    +0.098 A 
ATOM     14  C   UNL     1      -1.958  -2.271  -4.356  0.00  0.00    +0.015 A 
ATOM     15  C   UNL     1      -2.535  -2.267  -5.644  0.00  0.00    +0.028 A 
ATOM     16  C   UNL     1      -2.653  -3.550  -6.047  0.00  0.00    +0.084 A 
ATOM     17  N   UNL     1      -2.171  -4.372  -5.075  0.00  0.00    -0.354 N 
ATOM     18  H   UNL     1      -2.138  -5.340  -5.120  0.00  0.00    +0.166 HD
BRANCH  14  19
ATOM     19  C   UNL     1      -1.645  -1.086  -3.525  0.00  0.00    -0.015 A 
ATOM     20  C   UNL     1      -0.347  -0.883  -3.054  0.00  0.00    +0.008 A 
ATOM     21  C   UNL     1      -0.062   0.223  -2.281  0.00  0.00    +0.001 A 
ATOM     22  C   UNL     1      -1.059   1.130  -1.972  0.00  0.00    +0.000 A 
ATOM     23  C   UNL     1      -2.348   0.935  -2.435  0.00  0.00    +0.001 A 
ATOM     24  C   UNL     1      -2.645  -0.164  -3.214  0.00  0.00    +0.008 A 
ENDBRANCH  14  19
ENDBRANCH  12  13
ENDBRANCH  10  11
BRANCH   1  25
ATOM     25  O   UNL     1       0.450  -0.503   1.264  0.00  0.00    -0.489 OA
BRANCH  25  27
ATOM     26  C   UNL     1      -0.309   0.860   3.109  0.00  0.00    +0.048 C 
ATOM     27  C   UNL     1      -0.710   0.094   1.847  0.00  0.00    +0.226 C 
ENDBRANCH  25  27
ENDBRANCH   1  25
BRANCH   6  28
ATOM     28  O   UNL     1       1.538  -1.570   3.548  0.00  0.00    -0.489 OA
BRANCH  28  29
ATOM     29  C   UNL     1       2.096  -2.185   4.711  0.00  0.00    +0.226 C 
ATOM     30  C   UNL     1       2.493  -1.104   5.718  0.00  0.00    +0.048 C 
ENDBRANCH  28  29
ENDBRANCH   6  28
TORSDOF 7
