REMARK  Name = CHEMBL125920
REMARK  8 active torsions:
REMARK  status: ('A' for Active; 'I' for Inactive)
REMARK    1  A    between atoms: C_1  and  C_2
REMARK    2  A    between atoms: C_2  and  O_3
REMARK    3  A    between atoms: O_3  and  C_4
REMARK    4  A    between atoms: C_9  and  O_10
REMARK    5  A    between atoms: O_10  and  C_11
REMARK    6  A    between atoms: C_11  and  C_12
REMARK    7  A    between atoms: N_17  and  C_18
REMARK    8  A    between atoms: C_22  and  C_24
REMARK                            x       y       z     vdW  Elec       q    Type
REMARK                         _______ _______ _______ _____ _____    ______ ____
ROOT
ATOM      1  C   UNL     1       0.213  -1.897   1.627  0.00  0.00    +0.163 A 
ATOM      2  C   UNL     1      -0.137  -2.702   0.580  0.00  0.00    +0.062 A 
ATOM      3  C   UNL     1       0.186  -4.063   0.614  0.00  0.00    +0.044 A 
ATOM      4  C   UNL     1       0.874  -4.599   1.731  0.00  0.00    +0.080 A 
ATOM      5  C   UNL     1       1.224  -3.756   2.793  0.00  0.00    +0.078 A 
ATOM      6  C   UNL     1       0.899  -2.419   2.733  0.00  0.00    +0.164 A 
ATOM      7  N   UNL     1       1.172  -5.907   1.738  0.00  0.00    -0.235 NA
ATOM      8  C   UNL     1       0.832  -6.672   0.728  0.00  0.00    +0.223 A 
ATOM      9  N   UNL     1       0.190  -6.217  -0.335  0.00  0.00    -0.220 NA
ATOM     10  C   UNL     1      -0.153  -4.940  -0.444  0.00  0.00    +0.134 A 
ATOM     11  N   UNL     1      -0.824  -4.479  -1.559  0.00  0.00    -0.299 N 
ATOM     12  H   UNL     1      -0.995  -3.530  -1.664  0.00  0.00    +0.154 HD
ENDROOT
BRANCH  11  13
ATOM     13  C   UNL     1      -1.256  -5.379  -2.537  0.00  0.00    +0.033 A 
ATOM     14  C   UNL     1      -1.233  -5.013  -3.878  0.00  0.00    +0.023 A 
ATOM     15  C   UNL     1      -1.659  -5.901  -4.847  0.00  0.00    +0.002 A 
ATOM     16  C   UNL     1      -2.111  -7.156  -4.489  0.00  0.00    +0.010 A 
ATOM     17  C   UNL     1      -2.138  -7.531  -3.147  0.00  0.00    +0.004 A 
ATOM     18  C   UNL     1      -1.704  -6.639  -2.170  0.00  0.00    +0.033 A 
BRANCH  17  19
ATOM     19  C   UNL     1      -2.624  -8.879  -2.761  0.00  0.00    +0.093 A 
ATOM     20  C   UNL     1      -2.987  -9.914  -3.645  0.00  0.00    +0.049 A 
ATOM     21  C   UNL     1      -3.372 -10.976  -2.905  0.00  0.00    +0.105 A 
ATOM     22  N   UNL     1      -3.261 -10.637  -1.602  0.00  0.00    -0.284 N 
ATOM     23  H   UNL     1      -3.471 -11.208  -0.846  0.00  0.00    +0.188 HD
ATOM     24  N   UNL     1      -2.786  -9.321  -1.532  0.00  0.00    -0.174 NA
ENDBRANCH  17  19
ENDBRANCH  11  13
BRANCH   1  25
ATOM     25  O   UNL     1      -0.101  -0.575   1.594  0.00  0.00    -0.489 OA
BRANCH  25  27
ATOM     26  C   UNL     1      -1.065   1.397   0.581  0.00  0.00    +0.048 C 
ATOM     27  C   UNL     1      -0.800  -0.103   0.440  0.00  0.00    +0.226 C 
ENDBRANCH  25  27
ENDBRANCH   1  25
BRANCH   6  28
ATOM     28  O   UNL     1       1.242  -1.597   3.760  0.00  0.00    -0.489 OA
BRANCH  28  29
ATOM     29  C   UNL     1       1.939  -2.188   4.858  0.00  0.00    +0.226 C 
ATOM     30  C   UNL     1       2.238  -1.116   5.908  0.00  0.00    +0.048 C 
ENDBRANCH  28  29
ENDBRANCH   6  28
TORSDOF 6
