REMARK  Name = CHEMBL53404
REMARK  3 active torsions:
REMARK  status: ('A' for Active; 'I' for Inactive)
REMARK    1  A    between atoms: C_1  and  C_2
REMARK    2  A    between atoms: N_15  and  C_16
REMARK    3  A    between atoms: C_16  and  C_17
REMARK                            x       y       z     vdW  Elec       q    Type
REMARK                         _______ _______ _______ _____ _____    ______ ____
ROOT
ATOM      1  C   UNL     1      -0.039   1.515  -2.324  0.00  0.00    +0.109 C 
ATOM      2  C   UNL     1      -0.016   0.009  -2.332  0.00  0.00    +0.215 C 
ATOM      3  O   UNL     1      -0.013  -0.592  -3.386  0.00  0.00    -0.276 OA
ATOM      4  N   UNL     1       0.000  -0.672  -1.169  0.00  0.00    -0.271 N 
ATOM      5  C   UNL     1      -0.086  -2.062  -1.174  0.00  0.00    +0.127 A 
ATOM      6  C   UNL     1      -0.175  -2.737   0.029  0.00  0.00    +0.072 A 
ATOM      7  C   UNL     1      -0.261  -4.134   0.007  0.00  0.00    +0.081 A 
ATOM      8  C   UNL     1      -0.253  -4.787  -1.254  0.00  0.00    +0.058 A 
ATOM      9  C   UNL     1      -0.160  -4.019  -2.417  0.00  0.00    +0.126 A 
ATOM     10  N   UNL     1      -0.087  -2.708  -2.336  0.00  0.00    -0.239 NA
ATOM     11  C   UNL     1      -0.340  -6.199  -1.275  0.00  0.00    +0.131 A 
ATOM     12  N   UNL     1      -0.424  -6.836  -0.113  0.00  0.00    -0.220 NA
ATOM     13  C   UNL     1      -0.428  -6.183   1.038  0.00  0.00    +0.223 A 
ATOM     14  N   UNL     1      -0.350  -4.874   1.118  0.00  0.00    -0.235 NA
ATOM     15  N   UNL     1      -0.337  -6.892  -2.465  0.00  0.00    -0.324 N 
ATOM     16  H   UNL     1       0.072  -0.193  -0.328  0.00  0.00    +0.156 HD
ATOM     17  H   UNL     1      -0.275  -6.412  -3.305  0.00  0.00    +0.148 HD
ENDROOT
BRANCH  15  18
ATOM     18  C   UNL     1      -0.428  -8.354  -2.461  0.00  0.00    +0.138 C 
BRANCH  18  19
ATOM     19  C   UNL     1      -0.406  -8.862  -3.880  0.00  0.00    -0.030 A 
ATOM     20  C   UNL     1      -1.589  -9.016  -4.578  0.00  0.00    +0.005 A 
ATOM     21  C   UNL     1      -1.568  -9.482  -5.879  0.00  0.00    +0.000 A 
ATOM     22  C   UNL     1      -0.364  -9.795  -6.482  0.00  0.00    +0.000 A 
ATOM     23  C   UNL     1       0.819  -9.640  -5.784  0.00  0.00    +0.000 A 
ATOM     24  C   UNL     1       0.798  -9.170  -4.484  0.00  0.00    +0.005 A 
ENDBRANCH  18  19
ENDBRANCH  15  18
TORSDOF 2
