REMARK  Name = CHEMBL95774
REMARK  10 active torsions:
REMARK  status: ('A' for Active; 'I' for Inactive)
REMARK    1  A    between atoms: C_2  and  C_3
REMARK    2  A    between atoms: N_5  and  C_6
REMARK    3  A    between atoms: C_11  and  O_12
REMARK    4  A    between atoms: O_12  and  C_13
REMARK    5  A    between atoms: C_13  and  C_14
REMARK    6  A    between atoms: C_14  and  C_15
REMARK    7  A    between atoms: C_15  and  N_16
REMARK    8  A    between atoms: C_24  and  C_35
REMARK    9  A    between atoms: C_25  and  N_26
REMARK   10  A    between atoms: N_26  and  C_27
REMARK                            x       y       z     vdW  Elec       q    Type
REMARK                         _______ _______ _______ _____ _____    ______ ____
ROOT
ATOM      1  C   UNL     1       4.959  -4.103  -1.938  0.00  0.00    +0.077 A 
ATOM      2  C   UNL     1       5.334  -2.907  -1.366  0.00  0.00    +0.039 A 
ATOM      3  C   UNL     1       5.917  -2.900  -0.091  0.00  0.00    +0.025 A 
ATOM      4  C   UNL     1       6.118  -4.119   0.602  0.00  0.00    +0.076 A 
ATOM      5  C   UNL     1       5.728  -5.324  -0.001  0.00  0.00    +0.076 A 
ATOM      6  C   UNL     1       5.152  -5.311  -1.251  0.00  0.00    +0.144 A 
ATOM      7  N   UNL     1       6.674  -4.117   1.823  0.00  0.00    -0.253 NA
ATOM      8  C   UNL     1       7.048  -3.011   2.414  0.00  0.00    +0.132 A 
ATOM      9  C   UNL     1       6.887  -1.758   1.800  0.00  0.00    +0.091 A 
ATOM     10  C   UNL     1       6.312  -1.688   0.522  0.00  0.00    +0.060 A 
ENDROOT
BRANCH   1  13
ATOM     11  C   UNL     1       3.731  -3.019  -3.665  0.00  0.00    +0.241 C 
ATOM     12  O   UNL     1       3.562  -2.064  -2.930  0.00  0.00    -0.271 OA
ATOM     13  N   UNL     1       4.376  -4.112  -3.211  0.00  0.00    -0.279 N 
ATOM     14  H   UNL     1       4.437  -4.905  -3.766  0.00  0.00    +0.155 HD
BRANCH  11  16
ATOM     15  C   UNL     1       2.595  -1.902  -5.495  0.00  0.00    +0.013 C 
ATOM     16  C   UNL     1       3.232  -2.981  -5.047  0.00  0.00    +0.060 C 
ENDBRANCH  11  16
ENDBRANCH   1  13
BRANCH  10  17
ATOM     17  N   UNL     1       6.136  -0.476  -0.115  0.00  0.00    -0.313 N 
ATOM     18  H   UNL     1       5.241  -0.141  -0.280  0.00  0.00    +0.152 HD
BRANCH  17  19
ATOM     19  C   UNL     1       7.248   0.268  -0.522  0.00  0.00    +0.033 A 
ATOM     20  C   UNL     1       8.402  -0.381  -0.945  0.00  0.00    +0.026 A 
ATOM     21  C   UNL     1       9.499   0.355  -1.347  0.00  0.00    +0.041 A 
ATOM     22  C   UNL     1       9.450   1.739  -1.329  0.00  0.00    +0.142 A 
ATOM     23  C   UNL     1       8.301   2.388  -0.907  0.00  0.00    +0.078 A 
ATOM     24  C   UNL     1       7.199   1.655  -0.509  0.00  0.00    +0.046 A 
ATOM     25 CL   UNL     1       8.243   4.123  -0.884  0.00  0.00    -0.081 Cl
ATOM     26  F   UNL     1      10.524   2.457  -1.722  0.00  0.00    -0.204 F 
ENDBRANCH  17  19
ENDBRANCH  10  17
BRANCH   9  27
ATOM     27  C   UNL     1       7.306  -0.565   2.472  0.00  0.00    +0.103 C 
ATOM     28  N   UNL     1       7.639   0.382   3.004  0.00  0.00    -0.191 NA
ENDBRANCH   9  27
BRANCH   6  29
ATOM     29  O   UNL     1       4.771  -6.480  -1.827  0.00  0.00    -0.490 OA
BRANCH  29  30
ATOM     30  C   UNL     1       4.994  -7.676  -1.078  0.00  0.00    +0.230 C 
BRANCH  30  31
ATOM     31  C   UNL     1       4.505  -8.882  -1.883  0.00  0.00    +0.056 C 
BRANCH  31  32
ATOM     32  C   UNL     1       4.744 -10.162  -1.080  0.00  0.00    +0.088 C 
BRANCH  32  33
ATOM     33  N   UNL     1       4.274 -11.319  -1.853  0.00  0.00    -0.298 NA
ATOM     34  C   UNL     1       2.814 -11.285  -2.019  0.00  0.00    +0.112 C 
ATOM     35  C   UNL     1       2.375 -12.474  -2.879  0.00  0.00    +0.175 C 
ATOM     36  O   UNL     1       2.823 -13.688  -2.269  0.00  0.00    -0.377 OA
ATOM     37  C   UNL     1       4.240 -13.755  -2.093  0.00  0.00    +0.175 C 
ATOM     38  C   UNL     1       4.698 -12.579  -1.226  0.00  0.00    +0.112 C 
ENDBRANCH  32  33
ENDBRANCH  31  32
ENDBRANCH  30  31
ENDBRANCH  29  30
ENDBRANCH   6  29
TORSDOF 10
