REMARK  Name = CHEMBL489111
REMARK  10 active torsions:
REMARK  status: ('A' for Active; 'I' for Inactive)
REMARK    1  A    between atoms: C_1  and  C_2
REMARK    2  A    between atoms: C_6  and  C_8
REMARK    3  A    between atoms: C_8  and  C_9
REMARK    4  A    between atoms: C_12  and  N_29
REMARK    5  A    between atoms: C_13  and  O_19
REMARK    6  A    between atoms: O_19  and  C_20
REMARK    7  A    between atoms: C_20  and  C_21
REMARK    8  A    between atoms: C_21  and  C_22
REMARK    9  A    between atoms: C_22  and  N_23
REMARK   10  A    between atoms: C_30  and  C_32
REMARK                            x       y       z     vdW  Elec       q    Type
REMARK                         _______ _______ _______ _____ _____    ______ ____
ROOT
ATOM      1  C   UNL     1       1.471  -3.064   2.886  0.00  0.00    +0.057 A 
ATOM      2  C   UNL     1       2.167  -4.216   2.484  0.00  0.00    +0.024 A 
ATOM      3  C   UNL     1       1.575  -5.198   1.674  0.00  0.00    +0.038 A 
ATOM      4  C   UNL     1       2.300  -6.299   1.313  0.00  0.00    +0.077 A 
ATOM      5  C   UNL     1       3.628  -6.458   1.744  0.00  0.00    +0.144 A 
ATOM      6  C   UNL     1       4.227  -5.518   2.532  0.00  0.00    +0.076 A 
ATOM      7  C   UNL     1       3.509  -4.377   2.919  0.00  0.00    +0.078 A 
ATOM      8  N   UNL     1       4.052  -3.427   3.691  0.00  0.00    -0.235 NA
ATOM      9  C   UNL     1       3.351  -2.373   4.033  0.00  0.00    +0.222 A 
ATOM     10  N   UNL     1       2.099  -2.185   3.643  0.00  0.00    -0.239 NA
ENDROOT
BRANCH   4  11
ATOM     11  N   UNL     1       1.712  -7.279   0.506  0.00  0.00    -0.279 N 
ATOM     12  C   UNL     1       0.402  -7.565   0.639  0.00  0.00    +0.241 C 
ATOM     13  O   UNL     1      -0.288  -6.915   1.401  0.00  0.00    -0.271 OA
ATOM     14  H   UNL     1       2.248  -7.752  -0.150  0.00  0.00    +0.155 HD
BRANCH  12  15
ATOM     15  C   UNL     1      -0.193  -8.663  -0.137  0.00  0.00    +0.060 C 
ATOM     16  C   UNL     1      -1.486  -8.945  -0.006  0.00  0.00    +0.013 C 
ENDBRANCH  12  15
ENDBRANCH   4  11
BRANCH   1  17
ATOM     17  C   UNL     1       0.045  -2.834   2.458  0.00  0.00    +0.091 C 
BRANCH  17  23
ATOM     18  C   UNL     1      -0.034   1.496  -0.050  0.00  0.00    +0.044 C 
ATOM     19  C   UNL     1      -0.011  -0.011  -0.048  0.00  0.00    -0.050 A 
ATOM     20  C   UNL     1      -0.005  -0.704  -1.245  0.00  0.00    +0.003 A 
ATOM     21  C   UNL     1       0.016  -2.086  -1.243  0.00  0.00    +0.001 A 
ATOM     22  C   UNL     1       0.032  -2.775  -0.044  0.00  0.00    +0.004 A 
ATOM     23  C   UNL     1       0.028  -2.083   1.151  0.00  0.00    -0.041 A 
ATOM     24  C   UNL     1       0.011  -0.700   1.150  0.00  0.00    +0.007 A 
ENDBRANCH  17  23
ENDBRANCH   1  17
BRANCH   5  25
ATOM     25  O   UNL     1       4.325  -7.562   1.371  0.00  0.00    -0.490 OA
BRANCH  25  26
ATOM     26  C   UNL     1       5.671  -7.668   1.839  0.00  0.00    +0.227 C 
BRANCH  26  27
ATOM     27  C   UNL     1       6.290  -8.968   1.321  0.00  0.00    +0.022 C 
BRANCH  27  28
ATOM     28  C   UNL     1       7.731  -9.082   1.823  0.00  0.00    -0.075 C 
BRANCH  28  29
ATOM     29  N   UNL     1       8.326 -10.329   1.325  0.00  0.00    +0.383 N 
ATOM     30  C   UNL     1       7.620 -11.477   1.911  0.00  0.00    -0.050 C 
ATOM     31  C   UNL     1       8.241 -12.775   1.391  0.00  0.00    +0.141 C 
ATOM     32  O   UNL     1       9.634 -12.795   1.716  0.00  0.00    -0.383 OA
ATOM     33  C   UNL     1      10.361 -11.683   1.186  0.00  0.00    +0.141 C 
ATOM     34  C   UNL     1       9.744 -10.382   1.706  0.00  0.00    -0.050 C 
ATOM     35  H   UNL     1       8.246 -10.363   0.320  0.00  0.00    -0.082 HD
ENDBRANCH  28  29
ENDBRANCH  27  28
ENDBRANCH  26  27
ENDBRANCH  25  26
ENDBRANCH   5  25
TORSDOF 9
