REMARK  Name = CHEMBL265629
REMARK  5 active torsions:
REMARK  status: ('A' for Active; 'I' for Inactive)
REMARK    1  A    between atoms: C_3  and  C_8
REMARK    2  A    between atoms: C_8  and  N_9
REMARK    3  A    between atoms: C_13  and  N_18
REMARK    4  A    between atoms: C_21  and  C_28
REMARK    5  A    between atoms: C_28  and  N_29
REMARK                            x       y       z     vdW  Elec       q    Type
REMARK                         _______ _______ _______ _____ _____    ______ ____
ROOT
ATOM      1  N   UNL     1       3.262   6.401   5.100  0.00  0.00    -0.298 N 
ATOM      2  C   UNL     1       2.567   7.560   4.814  0.00  0.00    +0.151 A 
ATOM      3  C   UNL     1       2.481   8.596   5.772  0.00  0.00    +0.107 A 
ATOM      4  C   UNL     1       2.967   8.757   7.055  0.00  0.00    -0.034 A 
ATOM      5  C   UNL     1       2.544  10.012   7.494  0.00  0.00    +0.023 A 
ATOM      6  C   UNL     1       1.823  10.584   6.493  0.00  0.00    +0.113 A 
ATOM      7  N   UNL     1       1.776   9.739   5.446  0.00  0.00    -0.235 N 
ATOM      8  N   UNL     1       1.181   9.815   4.179  0.00  0.00    -0.155 NA
ATOM      9  C   UNL     1       1.299   8.822   3.341  0.00  0.00    +0.245 A 
ATOM     10  N   UNL     1       1.979   7.716   3.639  0.00  0.00    -0.217 NA
ATOM     11  H   UNL     1       3.759   6.325   5.929  0.00  0.00    +0.154 HD
ENDROOT
BRANCH   1  16
ATOM     12  N   UNL     1       2.957   2.252   1.468  0.00  0.00    -0.259 N 
ATOM     13  C   UNL     1       3.258   3.213   2.400  0.00  0.00    +0.069 A 
ATOM     14  C   UNL     1       4.407   3.527   3.122  0.00  0.00    +0.030 A 
ATOM     15  C   UNL     1       4.400   4.570   4.002  0.00  0.00    +0.025 A 
ATOM     16  C   UNL     1       3.248   5.335   4.192  0.00  0.00    +0.033 A 
ATOM     17  C   UNL     1       2.096   5.046   3.489  0.00  0.00    +0.034 A 
ATOM     18  C   UNL     1       2.091   3.978   2.584  0.00  0.00    +0.021 A 
ATOM     19  C   UNL     1       1.081   3.406   1.699  0.00  0.00    +0.143 A 
ATOM     20  N   UNL     1       1.627   2.408   1.065  0.00  0.00    -0.178 NA
BRANCH  12  21
ATOM     21  C   UNL     1       3.882   1.231   0.971  0.00  0.00    +0.179 C 
BRANCH  21  24
ATOM     22  C   UNL     1       6.486   2.923  -1.177  0.00  0.00    +0.003 A 
ATOM     23  C   UNL     1       5.812   2.436  -0.073  0.00  0.00    +0.005 A 
ATOM     24  C   UNL     1       4.616   1.761  -0.234  0.00  0.00    -0.023 A 
ATOM     25  C   UNL     1       4.093   1.573  -1.499  0.00  0.00    +0.043 A 
ATOM     26  C   UNL     1       4.767   2.060  -2.606  0.00  0.00    +0.124 A 
ATOM     27  C   UNL     1       5.965   2.736  -2.443  0.00  0.00    +0.038 A 
ATOM     28  F   UNL     1       4.257   1.876  -3.843  0.00  0.00    -0.205 F 
ENDBRANCH  21  24
ENDBRANCH  12  21
ENDBRANCH   1  16
BRANCH   4  29
ATOM     29  C   UNL     1       3.795   7.766   7.832  0.00  0.00    -0.040 C 
BRANCH  29  30
ATOM     30  N   UNL     1       5.196   7.850   7.396  0.00  0.00    +0.389 N 
ATOM     31  C   UNL     1       5.986   6.812   8.076  0.00  0.00    -0.059 C 
ATOM     32  C   UNL     1       7.372   6.747   7.432  0.00  0.00    +0.085 C 
ATOM     33  N   UNL     1       7.955   8.085   7.369  0.00  0.00    -0.319 N 
ATOM     34  C   UNL     1       7.222   9.197   7.497  0.00  0.00    +0.196 C 
ATOM     35  O   UNL     1       7.776  10.273   7.409  0.00  0.00    -0.278 OA
ATOM     36  C   UNL     1       5.740   9.168   7.745  0.00  0.00    +0.019 C 
ATOM     37  H   UNL     1       8.911   8.171   7.229  0.00  0.00    +0.149 HD
ATOM     38  H   UNL     1       5.247   7.716   6.397  0.00  0.00    -0.081 HD
ENDBRANCH  29  30
ENDBRANCH   4  29
TORSDOF 5
