REMARK  Name = CHEMBL138940
REMARK  8 active torsions:
REMARK  status: ('A' for Active; 'I' for Inactive)
REMARK    1  A    between atoms: C_6  and  N_7
REMARK    2  A    between atoms: C_11  and  N_18
REMARK    3  A    between atoms: C_19  and  C_21
REMARK    4  A    between atoms: C_22  and  C_23
REMARK    5  A    between atoms: N_25  and  C_26
REMARK    6  A    between atoms: C_26  and  C_27
REMARK    7  A    between atoms: C_27  and  C_28
REMARK    8  A    between atoms: C_28  and  N_29
REMARK                            x       y       z     vdW  Elec       q    Type
REMARK                         _______ _______ _______ _____ _____    ______ ____
ROOT
ATOM      1  N   UNL     1      -4.127  -7.397  -0.039  0.00  0.00    -0.299 N 
ATOM      2  C   UNL     1      -3.103  -6.479   0.074  0.00  0.00    +0.134 A 
ATOM      3  C   UNL     1      -3.376  -5.051   0.203  0.00  0.00    +0.045 A 
ATOM      4  C   UNL     1      -4.666  -4.517   0.222  0.00  0.00    +0.057 A 
ATOM      5  C   UNL     1      -4.808  -3.146   0.349  0.00  0.00    +0.126 A 
ATOM      6  N   UNL     1      -3.751  -2.347   0.451  0.00  0.00    -0.238 NA
ATOM      7  C   UNL     1      -2.517  -2.795   0.438  0.00  0.00    +0.141 A 
ATOM      8  C   UNL     1      -2.270  -4.169   0.314  0.00  0.00    +0.094 A 
ATOM      9  N   UNL     1      -1.035  -4.687   0.295  0.00  0.00    -0.234 NA
ATOM     10  C   UNL     1      -0.849  -5.979   0.177  0.00  0.00    +0.224 A 
ATOM     11  N   UNL     1      -1.831  -6.860   0.075  0.00  0.00    -0.220 NA
ATOM     12  H   UNL     1      -5.045  -7.093  -0.112  0.00  0.00    +0.154 HD
ENDROOT
BRANCH   1  18
ATOM     13  C   UNL     1      -2.763  -9.255   0.681  0.00  0.00    +0.026 A 
ATOM     14  C   UNL     1      -2.482 -10.608   0.672  0.00  0.00    +0.041 A 
ATOM     15  C   UNL     1      -3.272 -11.476  -0.061  0.00  0.00    +0.142 A 
ATOM     16  C   UNL     1      -4.348 -10.990  -0.789  0.00  0.00    +0.078 A 
ATOM     17  C   UNL     1      -4.632  -9.638  -0.783  0.00  0.00    +0.046 A 
ATOM     18  C   UNL     1      -3.840  -8.766  -0.047  0.00  0.00    +0.034 A 
ATOM     19 CL   UNL     1      -5.337 -12.081  -1.708  0.00  0.00    -0.081 Cl
ATOM     20  F   UNL     1      -2.994 -12.798  -0.069  0.00  0.00    -0.204 F 
ENDBRANCH   1  18
BRANCH   5  21
ATOM     21  N   UNL     1      -6.087  -2.591   0.370  0.00  0.00    -0.267 N 
ATOM     22  C   UNL     1      -6.241  -1.252   0.383  0.00  0.00    +0.242 C 
ATOM     23  O   UNL     1      -5.268  -0.530   0.469  0.00  0.00    -0.270 OA
ATOM     24  H   UNL     1      -6.866  -3.169   0.375  0.00  0.00    +0.157 HD
BRANCH  22  25
ATOM     25  C   UNL     1      -7.591  -0.664   0.294  0.00  0.00    +0.072 C 
ATOM     26  C   UNL     1      -7.745   0.670   0.307  0.00  0.00    +0.072 C 
BRANCH  26  27
ATOM     27  C   UNL     1      -9.095   1.258   0.218  0.00  0.00    +0.237 C 
ATOM     28  O   UNL     1     -10.069   0.535   0.132  0.00  0.00    -0.271 OA
ATOM     29  N   UNL     1      -9.249   2.597   0.231  0.00  0.00    -0.312 N 
ATOM     30  H   UNL     1      -8.472   3.174   0.299  0.00  0.00    +0.149 HD
BRANCH  29  31
ATOM     31  C   UNL     1     -10.590   3.181   0.142  0.00  0.00    +0.102 C 
BRANCH  31  32
ATOM     32  C   UNL     1     -10.485   4.707   0.178  0.00  0.00    +0.000 C 
BRANCH  32  33
ATOM     33  C   UNL     1     -11.885   5.317   0.085  0.00  0.00    -0.077 C 
BRANCH  33  34
ATOM     34  N   UNL     1     -11.784   6.782   0.120  0.00  0.00    +0.383 N 
ATOM     35  C   UNL     1     -11.261   7.207   1.426  0.00  0.00    -0.050 C 
ATOM     36  C   UNL     1     -11.157   8.734   1.460  0.00  0.00    +0.141 C 
ATOM     37  O   UNL     1     -12.444   9.300   1.199  0.00  0.00    -0.383 OA
ATOM     38  C   UNL     1     -13.006   8.897  -0.053  0.00  0.00    +0.141 C 
ATOM     39  C   UNL     1     -13.114   7.370  -0.089  0.00  0.00    -0.050 C 
ATOM     40  H   UNL     1     -11.160   7.094  -0.609  0.00  0.00    -0.082 HD
ENDBRANCH  33  34
ENDBRANCH  32  33
ENDBRANCH  31  32
ENDBRANCH  29  31
ENDBRANCH  26  27
ENDBRANCH  22  25
ENDBRANCH   5  21
TORSDOF 8
