REMARK  Name = CHEMBL28418
REMARK  3 active torsions:
REMARK  status: ('A' for Active; 'I' for Inactive)
REMARK    1  A    between atoms: C_2  and  C_3
REMARK    2  A    between atoms: C_12  and  N_16
REMARK    3  A    between atoms: N_16  and  C_17
REMARK                            x       y       z     vdW  Elec       q    Type
REMARK                         _______ _______ _______ _____ _____    ______ ____
ROOT
ATOM      1  C   UNL     1      -0.118  -2.740  -0.324  0.00  0.00    +0.242 C 
ATOM      2  O   UNL     1      -0.090  -3.955  -0.330  0.00  0.00    -0.270 OA
ATOM      3  N   UNL     1      -1.289  -2.094  -0.158  0.00  0.00    -0.267 N 
ATOM      4  C   UNL     1      -2.478  -2.813  -0.096  0.00  0.00    +0.126 A 
ATOM      5  C   UNL     1      -3.696  -2.122  -0.037  0.00  0.00    +0.046 A 
ATOM      6  C   UNL     1      -4.869  -2.814   0.023  0.00  0.00    +0.033 A 
ATOM      7  C   UNL     1      -4.812  -4.220   0.023  0.00  0.00    +0.094 A 
ATOM      8  C   UNL     1      -3.550  -4.856  -0.039  0.00  0.00    +0.131 A 
ATOM      9  N   UNL     1      -2.435  -4.130  -0.101  0.00  0.00    -0.227 NA
ATOM     10  C   UNL     1      -3.521  -6.274  -0.038  0.00  0.00    +0.152 A 
ATOM     11  N   UNL     1      -4.673  -6.926   0.020  0.00  0.00    -0.218 NA
ATOM     12  C   UNL     1      -5.829  -6.284   0.077  0.00  0.00    +0.224 A 
ATOM     13  N   UNL     1      -5.917  -4.975   0.079  0.00  0.00    -0.234 NA
ATOM     14  H   UNL     1      -1.303  -1.127  -0.081  0.00  0.00    +0.157 HD
ENDROOT
BRANCH   1  16
ATOM     15  C   UNL     1       2.281  -2.612  -0.663  0.00  0.00    +0.013 C 
ATOM     16  C   UNL     1       1.125  -1.974  -0.499  0.00  0.00    +0.060 C 
ENDBRANCH   1  16
BRANCH  10  17
ATOM     17  N   UNL     1      -2.323  -6.958  -0.098  0.00  0.00    -0.298 N 
ATOM     18  H   UNL     1      -1.485  -6.471  -0.063  0.00  0.00    +0.154 HD
BRANCH  17  19
ATOM     19  C   UNL     1      -2.318  -8.352  -0.207  0.00  0.00    +0.034 A 
ATOM     20  C   UNL     1      -1.300  -9.093   0.380  0.00  0.00    +0.026 A 
ATOM     21  C   UNL     1      -1.297 -10.469   0.271  0.00  0.00    +0.041 A 
ATOM     22  C   UNL     1      -2.307 -11.112  -0.424  0.00  0.00    +0.142 A 
ATOM     23  C   UNL     1      -3.324 -10.376  -1.011  0.00  0.00    +0.078 A 
ATOM     24  C   UNL     1      -3.334  -8.999  -0.899  0.00  0.00    +0.046 A 
ATOM     25 CL   UNL     1      -4.589 -11.185  -1.882  0.00  0.00    -0.081 Cl
ATOM     26  F   UNL     1      -2.301 -12.459  -0.531  0.00  0.00    -0.204 F 
ENDBRANCH  17  19
ENDBRANCH  10  17
TORSDOF 3
