REMARK  Name = CHEMBL56543
REMARK  7 active torsions:
REMARK  status: ('A' for Active; 'I' for Inactive)
REMARK    1  A    between atoms: C_4  and  C_7
REMARK    2  A    between atoms: C_7  and  N_8
REMARK    3  A    between atoms: C_9  and  C_11
REMARK    4  A    between atoms: C_11  and  C_21
REMARK    5  A    between atoms: C_12  and  C_13
REMARK    6  A    between atoms: C_16  and  O_20
REMARK    7  A    between atoms: C_17  and  O_19
REMARK                            x       y       z     vdW  Elec       q    Type
REMARK                         _______ _______ _______ _____ _____    ______ ____
ROOT
ATOM      1  C   UNL     1       5.751  -1.850   2.950  0.00  0.00    +0.114 C 
ATOM      2  C   UNL     1       6.938  -2.509   3.186  0.00  0.00    +0.032 C 
ENDROOT
BRANCH   2   3
ATOM      3  C   UNL     1       7.433  -2.659   4.556  0.00  0.00    -0.020 A 
ATOM      4  C   UNL     1       8.811  -2.618   4.815  0.00  0.00    +0.012 A 
ATOM      5  C   UNL     1       9.273  -2.758   6.104  0.00  0.00    +0.050 A 
ATOM      6  C   UNL     1       8.377  -2.941   7.151  0.00  0.00    +0.158 A 
ATOM      7  C   UNL     1       7.005  -2.982   6.903  0.00  0.00    +0.159 A 
ATOM      8  C   UNL     1       6.531  -2.837   5.615  0.00  0.00    +0.057 A 
BRANCH   7   9
ATOM      9  O   UNL     1       6.133  -3.161   7.931  0.00  0.00    -0.503 OA
ATOM     10  H   UNL     1       5.835  -2.337   8.341  0.00  0.00    +0.292 HD
ENDBRANCH   7   9
BRANCH   6  11
ATOM     11  O   UNL     1       8.840  -3.079   8.420  0.00  0.00    -0.503 OA
ATOM     12  H   UNL     1       8.927  -2.244   8.900  0.00  0.00    +0.292 HD
ENDBRANCH   6  11
ENDBRANCH   2   3
BRANCH   1  14
ATOM     13  N   UNL     1       4.008  -1.199   1.369  0.00  0.00    -0.307 N 
ATOM     14  C   UNL     1       5.169  -1.844   1.599  0.00  0.00    +0.255 C 
ATOM     15  O   UNL     1       5.736  -2.421   0.690  0.00  0.00    -0.269 OA
ATOM     16  H   UNL     1       3.557  -0.739   2.094  0.00  0.00    +0.149 HD
BRANCH  13  17
ATOM     17  C   UNL     1       3.429  -1.192   0.023  0.00  0.00    +0.139 C 
BRANCH  17  21
ATOM     18  C   UNL     1      -0.220   1.028   0.053  0.00  0.00    +0.000 A 
ATOM     19  C   UNL     1       0.977   1.669  -0.207  0.00  0.00    +0.000 A 
ATOM     20  C   UNL     1       2.158   0.950  -0.217  0.00  0.00    +0.005 A 
ATOM     21  C   UNL     1       2.142  -0.409   0.035  0.00  0.00    -0.030 A 
ATOM     22  C   UNL     1       0.945  -1.049   0.296  0.00  0.00    +0.005 A 
ATOM     23  C   UNL     1      -0.236  -0.331   0.304  0.00  0.00    +0.000 A 
ENDBRANCH  17  21
ENDBRANCH  13  17
ENDBRANCH   1  14
BRANCH   1  24
ATOM     24  C   UNL     1       5.085  -1.171   4.021  0.00  0.00    +0.104 C 
ATOM     25  N   UNL     1       4.556  -0.632   4.869  0.00  0.00    -0.191 NA
ENDBRANCH   1  24
TORSDOF 7
