REMARK  Name = CHEMBL422066
REMARK  6 active torsions:
REMARK  status: ('A' for Active; 'I' for Inactive)
REMARK    1  A    between atoms: C_1  and  O_2
REMARK    2  A    between atoms: O_2  and  C_3
REMARK    3  A    between atoms: C_8  and  O_9
REMARK    4  A    between atoms: O_9  and  C_10
REMARK    5  A    between atoms: N_15  and  N_16
REMARK    6  A    between atoms: N_16  and  C_17
REMARK                            x       y       z     vdW  Elec       q    Type
REMARK                         _______ _______ _______ _____ _____    ______ ____
ROOT
ATOM      1  C   UNL     1       0.606  -0.608  -1.056  0.00  0.00    +0.162 A 
ATOM      2  C   UNL     1       1.162   0.157  -2.043  0.00  0.00    +0.062 A 
ATOM      3  C   UNL     1       1.784  -0.463  -3.133  0.00  0.00    +0.043 A 
ATOM      4  C   UNL     1       1.835  -1.877  -3.207  0.00  0.00    +0.055 A 
ATOM      5  C   UNL     1       1.259  -2.641  -2.184  0.00  0.00    +0.075 A 
ATOM      6  C   UNL     1       0.657  -2.007  -1.120  0.00  0.00    +0.163 A 
ATOM      7  N   UNL     1       2.438  -2.447  -4.262  0.00  0.00    -0.345 N 
ATOM      8  C   UNL     1       2.969  -1.705  -5.204  0.00  0.00    +0.199 A 
ATOM      9  N   UNL     1       2.947  -0.382  -5.177  0.00  0.00    -0.221 NA
ATOM     10  C   UNL     1       2.376   0.282  -4.181  0.00  0.00    +0.146 A 
ATOM     11  N   UNL     1       2.359   1.661  -4.166  0.00  0.00    -0.250 N 
ATOM     12  H   UNL     1       1.938   2.133  -3.431  0.00  0.00    +0.171 HD
ATOM     13  H   UNL     1       2.482  -3.414  -4.328  0.00  0.00    +0.167 HD
ENDROOT
BRANCH   1  15
ATOM     14  C   UNL     1      -0.017   1.425   0.010  0.00  0.00    +0.277 C 
ATOM     15  O   UNL     1       0.002  -0.004   0.002  0.00  0.00    -0.491 OA
ENDBRANCH   1  15
BRANCH   6  16
ATOM     16  O   UNL     1       0.102  -2.745  -0.124  0.00  0.00    -0.491 OA
ATOM     17  C   UNL     1       0.185  -4.167  -0.246  0.00  0.00    +0.277 C 
ENDBRANCH   6  16
BRANCH  11  18
ATOM     18  N   UNL     1       2.950   2.380  -5.213  0.00  0.00    -0.265 N 
ATOM     19  H   UNL     1       3.371   1.908  -5.949  0.00  0.00    +0.170 HD
BRANCH  18  20
ATOM     20  C   UNL     1       2.933   3.778  -5.198  0.00  0.00    +0.046 A 
ATOM     21  C   UNL     1       2.335   4.455  -4.143  0.00  0.00    +0.027 A 
ATOM     22  C   UNL     1       2.319   5.836  -4.130  0.00  0.00    +0.042 A 
ATOM     23  C   UNL     1       2.898   6.546  -5.168  0.00  0.00    +0.142 A 
ATOM     24  C   UNL     1       3.495   5.873  -6.222  0.00  0.00    +0.078 A 
ATOM     25  C   UNL     1       3.518   4.491  -6.236  0.00  0.00    +0.047 A 
ATOM     26 CL   UNL     1       4.220   6.767  -7.522  0.00  0.00    -0.081 Cl
ATOM     27  F   UNL     1       2.881   7.897  -5.152  0.00  0.00    -0.204 F 
ENDBRANCH  18  20
ENDBRANCH  11  18
TORSDOF 4
