REMARK  Name = CHEMBL603266
REMARK  4 active torsions:
REMARK  status: ('A' for Active; 'I' for Inactive)
REMARK    1  A    between atoms: C_3  and  N_8
REMARK    2  A    between atoms: C_12  and  N_19
REMARK    3  A    between atoms: C_20  and  C_22
REMARK    4  A    between atoms: C_22  and  N_23
REMARK                            x       y       z     vdW  Elec       q    Type
REMARK                         _______ _______ _______ _____ _____    ______ ____
ROOT
ATOM      1  N   UNL     1       3.581   2.136  -0.117  0.00  0.00    -0.299 N 
ATOM      2  C   UNL     1       4.780   1.461  -0.004  0.00  0.00    +0.134 A 
ATOM      3  C   UNL     1       6.002   2.165   0.132  0.00  0.00    +0.042 A 
ATOM      4  C   UNL     1       6.053   3.563   0.156  0.00  0.00    +0.036 A 
ATOM      5  C   UNL     1       7.274   4.192   0.291  0.00  0.00    +0.034 A 
ATOM      6  C   UNL     1       8.451   3.446   0.401  0.00  0.00    +0.025 A 
ATOM      7  C   UNL     1       8.422   2.084   0.379  0.00  0.00    +0.030 A 
ATOM      8  C   UNL     1       7.197   1.415   0.244  0.00  0.00    +0.076 A 
ATOM      9  N   UNL     1       7.122   0.076   0.219  0.00  0.00    -0.235 NA
ATOM     10  C   UNL     1       5.962  -0.523   0.091  0.00  0.00    +0.223 A 
ATOM     11  N   UNL     1       4.818   0.136  -0.012  0.00  0.00    -0.220 NA
ATOM     12  H   UNL     1       3.574   3.104  -0.184  0.00  0.00    +0.154 HD
ENDROOT
BRANCH   1  15
ATOM     13  C   UNL     1       1.062  -0.452   0.569  0.00  0.00    +0.003 A 
ATOM     14  C   UNL     1       2.253   0.248   0.590  0.00  0.00    +0.023 A 
ATOM     15  C   UNL     1       2.378   1.425  -0.137  0.00  0.00    +0.033 A 
ATOM     16  C   UNL     1       1.304   1.895  -0.883  0.00  0.00    +0.038 A 
ATOM     17  C   UNL     1       0.116   1.190  -0.899  0.00  0.00    +0.020 A 
ATOM     18  C   UNL     1      -0.005   0.018  -0.174  0.00  0.00    +0.015 A 
ATOM     19 BR   UNL     1      -1.347   1.828  -1.914  0.00  0.00    -0.050 Br
ENDBRANCH   1  15
BRANCH   5  20
ATOM     20  N   UNL     1       7.335   5.590   0.316  0.00  0.00    -0.284 N 
ATOM     21  C   UNL     1       6.356   6.296   0.917  0.00  0.00    +0.238 C 
ATOM     22  O   UNL     1       5.382   5.726   1.361  0.00  0.00    -0.273 OA
ATOM     23  H   UNL     1       8.081   6.051  -0.098  0.00  0.00    +0.155 HD
BRANCH  21  24
ATOM     24  C   UNL     1       6.473   7.794   1.037  0.00  0.00    +0.229 C 
BRANCH  24  25
ATOM     25  N   UNL     1       5.291   8.322   1.723  0.00  0.00    -0.270 N 
ATOM     26  C   UNL     1       4.095   8.643   1.189  0.00  0.00    +0.258 A 
ATOM     27  O   UNL     1       3.866   8.515  -0.004  0.00  0.00    -0.267 OA
ATOM     28  C   UNL     1       3.142   9.127   2.070  0.00  0.00    +0.079 A 
ATOM     29  C   UNL     1       3.529   9.218   3.368  0.00  0.00    +0.069 A 
ATOM     30  S   UNL     1       5.111   8.659   3.351  0.00  0.00    -0.016 S 
ENDBRANCH  24  25
ENDBRANCH  21  24
ENDBRANCH   5  20
TORSDOF 4
