REMARK  Name = CHEMBL203779
REMARK  8 active torsions:
REMARK  status: ('A' for Active; 'I' for Inactive)
REMARK    1  A    between atoms: C_1  and  C_2
REMARK    2  A    between atoms: C_2  and  C_3
REMARK    3  A    between atoms: C_3  and  N_4
REMARK    4  A    between atoms: C_7  and  O_10
REMARK    5  A    between atoms: O_10  and  C_11
REMARK    6  A    between atoms: C_13  and  O_30
REMARK    7  A    between atoms: N_21  and  C_22
REMARK    8  A    between atoms: O_30  and  C_31
REMARK                            x       y       z     vdW  Elec       q    Type
REMARK                         _______ _______ _______ _____ _____    ______ ____
ROOT
ATOM      1  C   UNL     1      -2.956  -6.628  -1.527  0.00  0.00    +0.137 A 
ATOM      2  C   UNL     1      -3.957  -5.937  -2.176  0.00  0.00    +0.092 A 
ATOM      3  C   UNL     1      -4.897  -6.612  -2.955  0.00  0.00    +0.126 A 
ATOM      4  C   UNL     1      -4.845  -7.984  -3.095  0.00  0.00    +0.074 A 
ATOM      5  C   UNL     1      -3.840  -8.710  -2.448  0.00  0.00    +0.083 A 
ATOM      6  C   UNL     1      -2.882  -8.024  -1.660  0.00  0.00    +0.082 A 
ATOM      7  C   UNL     1      -1.875  -8.784  -1.023  0.00  0.00    +0.137 A 
ATOM      8  N   UNL     1      -1.875 -10.100  -1.198  0.00  0.00    -0.220 NA
ATOM      9  C   UNL     1      -2.787 -10.697  -1.948  0.00  0.00    +0.223 A 
ATOM     10  N   UNL     1      -3.751 -10.045  -2.555  0.00  0.00    -0.235 NA
ATOM     11  N   UNL     1      -0.917  -8.174  -0.239  0.00  0.00    -0.299 N 
ATOM     12  H   UNL     1      -1.015  -7.241   0.008  0.00  0.00    +0.154 HD
ENDROOT
BRANCH  11  13
ATOM     13  C   UNL     1       0.194  -8.902   0.201  0.00  0.00    +0.034 A 
ATOM     14  C   UNL     1       0.113 -10.282   0.333  0.00  0.00    +0.026 A 
ATOM     15  C   UNL     1       1.211 -10.999   0.767  0.00  0.00    +0.041 A 
ATOM     16  C   UNL     1       2.392 -10.343   1.070  0.00  0.00    +0.142 A 
ATOM     17  C   UNL     1       2.475  -8.966   0.939  0.00  0.00    +0.078 A 
ATOM     18  C   UNL     1       1.381  -8.245   0.499  0.00  0.00    +0.046 A 
ATOM     19 CL   UNL     1       3.957  -8.145   1.322  0.00  0.00    -0.081 Cl
ATOM     20  F   UNL     1       3.465 -11.046   1.495  0.00  0.00    -0.204 F 
ENDBRANCH  11  13
BRANCH   3  21
ATOM     21  O   UNL     1      -5.875  -5.910  -3.584  0.00  0.00    -0.495 OA
ATOM     22  C   UNL     1      -6.808  -6.657  -4.367  0.00  0.00    +0.277 C 
ENDBRANCH   3  21
BRANCH   1  23
ATOM     23  O   UNL     1      -2.046  -5.963  -0.771  0.00  0.00    -0.488 OA
BRANCH  23  27
ATOM     24  N   UNL     1      -2.041  -2.149   0.941  0.00  0.00    +0.380 N 
ATOM     25  C   UNL     1      -1.034  -2.411  -0.094  0.00  0.00    -0.075 C 
ATOM     26  C   UNL     1      -0.853  -3.921  -0.266  0.00  0.00    +0.026 C 
ATOM     27  C   UNL     1      -2.189  -4.545  -0.681  0.00  0.00    +0.170 C 
ATOM     28  C   UNL     1      -3.250  -4.202   0.369  0.00  0.00    +0.026 C 
ATOM     29  C   UNL     1      -3.341  -2.682   0.517  0.00  0.00    -0.075 C 
ATOM     30  H   UNL     1      -1.760  -2.595   1.801  0.00  0.00    -0.082 HD
BRANCH  24  31
ATOM     31  C   UNL     1      -2.154  -0.700   1.157  0.00  0.00    -0.079 C 
BRANCH  31  33
ATOM     32  C   UNL     1      -0.953   1.345   1.943  0.00  0.00    +0.002 C 
ATOM     33  C   UNL     1      -0.835  -0.164   1.718  0.00  0.00    -0.022 C 
ENDBRANCH  31  33
ENDBRANCH  24  31
ENDBRANCH  23  27
ENDBRANCH   1  23
TORSDOF 6
