REMARK  Name = CHEMBL56142
REMARK  7 active torsions:
REMARK  status: ('A' for Active; 'I' for Inactive)
REMARK    1  A    between atoms: C_1  and  O_2
REMARK    2  A    between atoms: O_2  and  C_3
REMARK    3  A    between atoms: C_8  and  O_9
REMARK    4  A    between atoms: O_9  and  C_10
REMARK    5  A    between atoms: C_10  and  C_11
REMARK    6  A    between atoms: C_11  and  N_12
REMARK    7  A    between atoms: N_22  and  C_23
REMARK                            x       y       z     vdW  Elec       q    Type
REMARK                         _______ _______ _______ _____ _____    ______ ____
ROOT
ATOM      1  C   UNL     1       0.612  -0.558  -1.111  0.00  0.00    +0.164 A 
ATOM      2  C   UNL     1       0.948   0.248  -2.176  0.00  0.00    +0.078 A 
ATOM      3  C   UNL     1       1.421  -0.333  -3.359  0.00  0.00    +0.080 A 
ATOM      4  C   UNL     1       1.547  -1.742  -3.441  0.00  0.00    +0.044 A 
ATOM      5  C   UNL     1       1.199  -2.539  -2.344  0.00  0.00    +0.062 A 
ATOM      6  C   UNL     1       0.745  -1.951  -1.197  0.00  0.00    +0.163 A 
ATOM      7  C   UNL     1       2.029  -2.301  -4.649  0.00  0.00    +0.134 A 
ATOM      8  N   UNL     1       2.337  -1.477  -5.642  0.00  0.00    -0.220 NA
ATOM      9  C   UNL     1       2.203  -0.166  -5.520  0.00  0.00    +0.223 A 
ATOM     10  N   UNL     1       1.762   0.407  -4.425  0.00  0.00    -0.235 NA
ATOM     11  N   UNL     1       2.174  -3.666  -4.790  0.00  0.00    -0.299 N 
ATOM     12  H   UNL     1       1.879  -4.261  -4.083  0.00  0.00    +0.154 HD
ENDROOT
BRANCH  11  13
ATOM     13  C   UNL     1       2.747  -4.192  -5.953  0.00  0.00    +0.034 A 
ATOM     14  C   UNL     1       3.740  -3.486  -6.619  0.00  0.00    +0.026 A 
ATOM     15  C   UNL     1       4.306  -4.006  -7.767  0.00  0.00    +0.041 A 
ATOM     16  C   UNL     1       3.883  -5.232  -8.254  0.00  0.00    +0.142 A 
ATOM     17  C   UNL     1       2.893  -5.938  -7.591  0.00  0.00    +0.078 A 
ATOM     18  C   UNL     1       2.328  -5.423  -6.439  0.00  0.00    +0.046 A 
ATOM     19 CL   UNL     1       2.365  -7.475  -8.204  0.00  0.00    -0.081 Cl
ATOM     20  F   UNL     1       4.437  -5.739  -9.377  0.00  0.00    -0.204 F 
ENDBRANCH  11  13
BRANCH   1  22
ATOM     21  C   UNL     1       0.040   1.427   0.064  0.00  0.00    +0.277 C 
ATOM     22  O   UNL     1       0.153   0.003   0.038  0.00  0.00    -0.491 OA
ENDBRANCH   1  22
BRANCH   6  23
ATOM     23  O   UNL     1       0.413  -2.726  -0.130  0.00  0.00    -0.490 OA
BRANCH  23  24
ATOM     24  C   UNL     1       0.570  -4.138  -0.280  0.00  0.00    +0.211 C 
BRANCH  24  25
ATOM     25  C   UNL     1       0.150  -4.838   1.014  0.00  0.00    -0.037 C 
BRANCH  25  26
ATOM     26  N   UNL     1      -1.288  -4.636   1.235  0.00  0.00    +0.382 N 
ATOM     27  C   UNL     1      -1.659  -5.166   2.553  0.00  0.00    -0.079 C 
ATOM     28  C   UNL     1      -3.139  -4.886   2.823  0.00  0.00    -0.019 C 
ATOM     29  C   UNL     1      -3.986  -5.564   1.742  0.00  0.00    -0.004 C 
ATOM     30  C   UNL     1      -3.540  -5.059   0.367  0.00  0.00    -0.019 C 
ATOM     31  C   UNL     1      -2.045  -5.332   0.188  0.00  0.00    -0.079 C 
ATOM     32  H   UNL     1      -1.498  -3.650   1.201  0.00  0.00    -0.082 HD
ENDBRANCH  25  26
ENDBRANCH  24  25
ENDBRANCH  23  24
ENDBRANCH   6  23
TORSDOF 6
