REMARK  Name = CHEMBL179164
REMARK  14 active torsions:
REMARK  status: ('A' for Active; 'I' for Inactive)
REMARK    1  A    between atoms: C_1  and  C_2
REMARK    2  A    between atoms: C_2  and  O_3
REMARK    3  A    between atoms: O_3  and  C_4
REMARK    4  A    between atoms: C_9  and  N_10
REMARK    5  A    between atoms: C_11  and  C_13
REMARK    6  A    between atoms: C_14  and  C_15
REMARK    7  A    between atoms: C_15  and  N_16
REMARK    8  A    between atoms: N_16  and  C_17
REMARK    9  A    between atoms: N_16  and  C_18
REMARK   10  A    between atoms: C_19  and  N_25
REMARK   11  A    between atoms: C_20  and  C_23
REMARK   12  A    between atoms: N_25  and  C_26
REMARK   13  A    between atoms: N_34  and  S_35
REMARK   14  A    between atoms: S_35  and  C_38
REMARK                            x       y       z     vdW  Elec       q    Type
REMARK                         _______ _______ _______ _____ _____    ______ ____
ROOT
ATOM      1  C   UNL     1       0.584  -3.775   2.133  0.00  0.00    +0.144 A 
ATOM      2  C   UNL     1       1.035  -4.096   0.874  0.00  0.00    +0.076 A 
ATOM      3  C   UNL     1       0.188  -4.765  -0.023  0.00  0.00    +0.076 A 
ATOM      4  C   UNL     1      -1.126  -5.102   0.385  0.00  0.00    +0.025 A 
ATOM      5  C   UNL     1      -1.567  -4.767   1.673  0.00  0.00    +0.039 A 
ATOM      6  C   UNL     1      -0.716  -4.115   2.537  0.00  0.00    +0.077 A 
ATOM      7  C   UNL     1      -1.975  -5.777  -0.523  0.00  0.00    +0.060 A 
ATOM      8  C   UNL     1      -1.465  -6.080  -1.795  0.00  0.00    +0.091 A 
ATOM      9  C   UNL     1      -0.149  -5.708  -2.114  0.00  0.00    +0.132 A 
ATOM     10  N   UNL     1       0.615  -5.084  -1.254  0.00  0.00    -0.253 NA
ENDROOT
BRANCH   6  11
ATOM     11  N   UNL     1      -1.153  -3.784   3.826  0.00  0.00    -0.279 N 
ATOM     12  C   UNL     1      -2.461  -3.555   4.056  0.00  0.00    +0.241 C 
ATOM     13  O   UNL     1      -3.275  -3.735   3.170  0.00  0.00    -0.271 OA
ATOM     14  H   UNL     1      -0.514  -3.720   4.553  0.00  0.00    +0.155 HD
BRANCH  12  15
ATOM     15  C   UNL     1      -2.904  -3.087   5.378  0.00  0.00    +0.061 C 
ATOM     16  C   UNL     1      -4.195  -2.861   5.604  0.00  0.00    -0.040 C 
BRANCH  16  17
ATOM     17  C   UNL     1      -4.649  -2.381   6.959  0.00  0.00    -0.052 C 
BRANCH  17  18
ATOM     18  N   UNL     1      -5.420  -1.139   6.806  0.00  0.00    +0.378 N 
ATOM     19  C   UNL     1      -5.963  -0.737   8.110  0.00  0.00    -0.096 C 
ATOM     20  C   UNL     1      -4.542  -0.079   6.292  0.00  0.00    -0.096 C 
ATOM     21  H   UNL     1      -6.178  -1.292   6.158  0.00  0.00    -0.082 HD
ENDBRANCH  17  18
ENDBRANCH  16  17
ENDBRANCH  12  15
ENDBRANCH   6  11
BRANCH   8  22
ATOM     22  C   UNL     1      -2.278  -6.762  -2.756  0.00  0.00    +0.103 C 
ATOM     23  N   UNL     1      -2.922  -7.303  -3.519  0.00  0.00    -0.191 NA
ENDBRANCH   8  22
BRANCH   7  24
ATOM     24  N   UNL     1      -3.263  -6.126  -0.170  0.00  0.00    -0.313 N 
ATOM     25  H   UNL     1      -3.969  -5.461  -0.192  0.00  0.00    +0.152 HD
BRANCH  24  26
ATOM     26  C   UNL     1      -3.550  -7.439   0.221  0.00  0.00    +0.032 A 
ATOM     27  C   UNL     1      -2.517  -8.286   0.621  0.00  0.00    +0.025 A 
ATOM     28  C   UNL     1      -2.783  -9.580   1.009  0.00  0.00    +0.030 A 
ATOM     29  C   UNL     1      -4.091 -10.054   1.003  0.00  0.00    +0.072 A 
ATOM     30  C   UNL     1      -5.135  -9.202   0.601  0.00  0.00    +0.003 A 
ATOM     31  C   UNL     1      -4.857  -7.889   0.215  0.00  0.00    +0.033 A 
ATOM     32  C   UNL     1      -6.365  -9.991   0.707  0.00  0.00    +0.029 A 
ATOM     33  C   UNL     1      -6.013 -11.210   1.145  0.00  0.00    +0.113 A 
ATOM     34  N   UNL     1      -4.659 -11.268   1.327  0.00  0.00    -0.218 N 
BRANCH  34  35
ATOM     35  S   UNL     1      -3.826 -12.596   1.859  0.00  0.00    +0.084 S 
ATOM     36  O   UNL     1      -2.972 -12.149   2.903  0.00  0.00    -0.148 OA
ATOM     37  O   UNL     1      -4.785 -13.628   2.048  0.00  0.00    -0.148 OA
BRANCH  35  38
ATOM     38  C   UNL     1      -2.779 -13.117   0.541  0.00  0.00    +0.111 A 
ATOM     39  C   UNL     1      -3.242 -14.028  -0.391  0.00  0.00    +0.029 A 
ATOM     40  C   UNL     1      -2.421 -14.436  -1.425  0.00  0.00    +0.002 A 
ATOM     41  C   UNL     1      -1.137 -13.934  -1.528  0.00  0.00    +0.000 A 
ATOM     42  C   UNL     1      -0.675 -13.022  -0.598  0.00  0.00    +0.002 A 
ATOM     43  C   UNL     1      -1.497 -12.611   0.434  0.00  0.00    +0.029 A 
ENDBRANCH  35  38
ENDBRANCH  34  35
ENDBRANCH  24  26
ENDBRANCH   7  24
BRANCH   1  44
ATOM     44  O   UNL     1       1.409  -3.128   2.997  0.00  0.00    -0.490 OA
BRANCH  44  46
ATOM     45  C   UNL     1       3.496  -2.088   3.631  0.00  0.00    +0.048 C 
ATOM     46  C   UNL     1       2.720  -2.810   2.527  0.00  0.00    +0.226 C 
ENDBRANCH  44  46
ENDBRANCH   1  44
TORSDOF 11
