REMARK  Name = CHEMBL368702
REMARK  13 active torsions:
REMARK  status: ('A' for Active; 'I' for Inactive)
REMARK    1  A    between atoms: C_1  and  C_2
REMARK    2  A    between atoms: C_2  and  O_3
REMARK    3  A    between atoms: O_3  and  C_4
REMARK    4  A    between atoms: C_9  and  N_10
REMARK    5  A    between atoms: C_11  and  C_13
REMARK    6  A    between atoms: C_14  and  C_15
REMARK    7  A    between atoms: C_15  and  N_16
REMARK    8  A    between atoms: C_20  and  N_26
REMARK    9  A    between atoms: C_21  and  C_24
REMARK   10  A    between atoms: N_26  and  C_27
REMARK   11  A    between atoms: C_30  and  O_34
REMARK   12  A    between atoms: O_34  and  C_35
REMARK   13  A    between atoms: C_35  and  C_36
REMARK                            x       y       z     vdW  Elec       q    Type
REMARK                         _______ _______ _______ _____ _____    ______ ____
ROOT
ATOM      1  C   UNL     1      -2.088  -3.791  -0.653  0.00  0.00    +0.144 A 
ATOM      2  C   UNL     1      -1.221  -4.116   0.364  0.00  0.00    +0.076 A 
ATOM      3  C   UNL     1      -0.009  -4.761   0.072  0.00  0.00    +0.076 A 
ATOM      4  C   UNL     1       0.305  -5.068  -1.274  0.00  0.00    +0.025 A 
ATOM      5  C   UNL     1      -0.591  -4.728  -2.297  0.00  0.00    +0.039 A 
ATOM      6  C   UNL     1      -1.777  -4.101  -1.986  0.00  0.00    +0.077 A 
ATOM      7  C   UNL     1       1.528  -5.718  -1.563  0.00  0.00    +0.060 A 
ATOM      8  C   UNL     1       2.375  -6.027  -0.487  0.00  0.00    +0.091 A 
ATOM      9  C   UNL     1       1.982  -5.685   0.817  0.00  0.00    +0.132 A 
ATOM     10  N   UNL     1       0.844  -5.084   1.055  0.00  0.00    -0.253 NA
ENDROOT
BRANCH   6  11
ATOM     11  N   UNL     1      -2.675  -3.766  -3.006  0.00  0.00    -0.279 N 
ATOM     12  C   UNL     1      -2.219  -3.507  -4.248  0.00  0.00    +0.241 C 
ATOM     13  O   UNL     1      -1.042  -3.664  -4.508  0.00  0.00    -0.271 OA
ATOM     14  H   UNL     1      -3.626  -3.720  -2.819  0.00  0.00    +0.155 HD
BRANCH  12  15
ATOM     15  C   UNL     1      -3.146  -3.034  -5.287  0.00  0.00    +0.061 C 
ATOM     16  C   UNL     1      -2.696  -2.779  -6.513  0.00  0.00    -0.040 C 
BRANCH  16  17
ATOM     17  C   UNL     1      -3.645  -2.295  -7.578  0.00  0.00    -0.051 C 
BRANCH  17  18
ATOM     18  N   UNL     1      -3.145  -1.035  -8.144  0.00  0.00    +0.382 N 
ATOM     19  C   UNL     1      -2.193  -1.228  -9.255  0.00  0.00    -0.080 C 
ATOM     20  C   UNL     1      -2.841  -0.019  -9.945  0.00  0.00    -0.037 C 
ATOM     21  C   UNL     1      -4.069  -0.421  -9.116  0.00  0.00    -0.080 C 
ATOM     22  H   UNL     1      -2.816  -0.391  -7.441  0.00  0.00    -0.081 HD
ENDBRANCH  17  18
ENDBRANCH  16  17
ENDBRANCH  12  15
ENDBRANCH   6  11
BRANCH   8  23
ATOM     23  C   UNL     1       3.626  -6.685  -0.717  0.00  0.00    +0.103 C 
ATOM     24  N   UNL     1       4.618  -7.207  -0.900  0.00  0.00    -0.191 NA
ENDBRANCH   8  23
BRANCH   7  25
ATOM     25  N   UNL     1       1.877  -6.037  -2.859  0.00  0.00    -0.313 N 
ATOM     26  H   UNL     1       2.242  -5.356  -3.445  0.00  0.00    +0.152 HD
BRANCH  25  27
ATOM     27  C   UNL     1       1.702  -7.343  -3.329  0.00  0.00    +0.033 A 
ATOM     28  C   UNL     1       0.856  -8.216  -2.657  0.00  0.00    +0.027 A 
ATOM     29  C   UNL     1       0.684  -9.506  -3.121  0.00  0.00    +0.049 A 
ATOM     30  C   UNL     1       1.356  -9.930  -4.258  0.00  0.00    +0.139 A 
ATOM     31  C   UNL     1       2.202  -9.058  -4.931  0.00  0.00    +0.084 A 
ATOM     32  C   UNL     1       2.370  -7.766  -4.471  0.00  0.00    +0.047 A 
ATOM     33 CL   UNL     1       3.043  -9.590  -6.353  0.00  0.00    -0.080 Cl
BRANCH  30  34
ATOM     34  O   UNL     1       1.186 -11.200  -4.714  0.00  0.00    -0.486 OA
BRANCH  34  35
ATOM     35  C   UNL     1       0.301 -12.042  -3.973  0.00  0.00    +0.264 C 
BRANCH  35  36
ATOM     36  C   UNL     1       0.240 -13.400  -4.622  0.00  0.00    -0.010 A 
ATOM     37  C   UNL     1      -0.702 -13.656  -5.602  0.00  0.00    +0.007 A 
ATOM     38  C   UNL     1      -0.758 -14.902  -6.198  0.00  0.00    +0.000 A 
ATOM     39  C   UNL     1       0.126 -15.893  -5.814  0.00  0.00    +0.000 A 
ATOM     40  C   UNL     1       1.068 -15.637  -4.835  0.00  0.00    +0.000 A 
ATOM     41  C   UNL     1       1.128 -14.389  -4.242  0.00  0.00    +0.007 A 
ENDBRANCH  35  36
ENDBRANCH  34  35
ENDBRANCH  30  34
ENDBRANCH  25  27
ENDBRANCH   7  25
BRANCH   1  42
ATOM     42  O   UNL     1      -3.259  -3.167  -0.364  0.00  0.00    -0.490 OA
BRANCH  42  44
ATOM     43  C   UNL     1      -4.874  -2.180   1.139  0.00  0.00    +0.048 C 
ATOM     44  C   UNL     1      -3.518  -2.878   1.011  0.00  0.00    +0.226 C 
ENDBRANCH  42  44
ENDBRANCH   1  42
TORSDOF 12
