REMARK  Name = CHEMBL179652
REMARK  14 active torsions:
REMARK  status: ('A' for Active; 'I' for Inactive)
REMARK    1  A    between atoms: C_1  and  C_2
REMARK    2  A    between atoms: C_2  and  O_3
REMARK    3  A    between atoms: O_3  and  C_4
REMARK    4  A    between atoms: C_9  and  N_10
REMARK    5  A    between atoms: C_11  and  C_13
REMARK    6  A    between atoms: C_14  and  C_15
REMARK    7  A    between atoms: C_15  and  N_16
REMARK    8  A    between atoms: N_16  and  C_17
REMARK    9  A    between atoms: N_16  and  C_18
REMARK   10  A    between atoms: C_19  and  N_25
REMARK   11  A    between atoms: C_20  and  C_23
REMARK   12  A    between atoms: N_25  and  C_26
REMARK   13  A    between atoms: N_34  and  C_35
REMARK   14  A    between atoms: C_35  and  C_36
REMARK                            x       y       z     vdW  Elec       q    Type
REMARK                         _______ _______ _______ _____ _____    ______ ____
ROOT
ATOM      1  C   UNL     1       0.584  -3.775   2.133  0.00  0.00    +0.144 A 
ATOM      2  C   UNL     1       1.035  -4.096   0.874  0.00  0.00    +0.076 A 
ATOM      3  C   UNL     1       0.188  -4.765  -0.023  0.00  0.00    +0.076 A 
ATOM      4  C   UNL     1      -1.126  -5.102   0.385  0.00  0.00    +0.025 A 
ATOM      5  C   UNL     1      -1.567  -4.767   1.673  0.00  0.00    +0.039 A 
ATOM      6  C   UNL     1      -0.716  -4.115   2.537  0.00  0.00    +0.077 A 
ATOM      7  C   UNL     1      -1.975  -5.777  -0.523  0.00  0.00    +0.060 A 
ATOM      8  C   UNL     1      -1.465  -6.080  -1.795  0.00  0.00    +0.091 A 
ATOM      9  C   UNL     1      -0.149  -5.708  -2.114  0.00  0.00    +0.132 A 
ATOM     10  N   UNL     1       0.615  -5.084  -1.254  0.00  0.00    -0.253 NA
ENDROOT
BRANCH   6  11
ATOM     11  N   UNL     1      -1.153  -3.784   3.826  0.00  0.00    -0.279 N 
ATOM     12  C   UNL     1      -2.461  -3.555   4.056  0.00  0.00    +0.241 C 
ATOM     13  O   UNL     1      -3.275  -3.735   3.170  0.00  0.00    -0.271 OA
ATOM     14  H   UNL     1      -0.514  -3.720   4.553  0.00  0.00    +0.155 HD
BRANCH  12  15
ATOM     15  C   UNL     1      -2.904  -3.087   5.378  0.00  0.00    +0.064 C 
ATOM     16  C   UNL     1      -4.195  -2.861   5.604  0.00  0.00    -0.007 C 
BRANCH  16  17
ATOM     17  C   UNL     1      -4.649  -2.381   6.959  0.00  0.00    +0.111 C 
BRANCH  17  18
ATOM     18  N   UNL     1      -5.420  -1.139   6.806  0.00  0.00    -0.305 NA
ATOM     19  C   UNL     1      -6.675  -1.385   6.083  0.00  0.00    +0.104 C 
ATOM     20  C   UNL     1      -5.677  -0.515   8.111  0.00  0.00    +0.104 C 
ENDBRANCH  17  18
ENDBRANCH  16  17
ENDBRANCH  12  15
ENDBRANCH   6  11
BRANCH   8  21
ATOM     21  C   UNL     1      -2.278  -6.762  -2.756  0.00  0.00    +0.103 C 
ATOM     22  N   UNL     1      -2.922  -7.303  -3.519  0.00  0.00    -0.191 NA
ENDBRANCH   8  21
BRANCH   7  23
ATOM     23  N   UNL     1      -3.263  -6.126  -0.170  0.00  0.00    -0.313 N 
ATOM     24  H   UNL     1      -3.969  -5.461  -0.192  0.00  0.00    +0.152 HD
BRANCH  23  25
ATOM     25  C   UNL     1      -3.550  -7.439   0.221  0.00  0.00    +0.032 A 
ATOM     26  C   UNL     1      -2.517  -8.286   0.621  0.00  0.00    +0.025 A 
ATOM     27  C   UNL     1      -2.783  -9.580   1.009  0.00  0.00    +0.028 A 
ATOM     28  C   UNL     1      -4.091 -10.054   1.003  0.00  0.00    +0.049 A 
ATOM     29  C   UNL     1      -5.135  -9.202   0.601  0.00  0.00    +0.002 A 
ATOM     30  C   UNL     1      -4.857  -7.889   0.215  0.00  0.00    +0.033 A 
ATOM     31  C   UNL     1      -6.365  -9.991   0.707  0.00  0.00    +0.027 A 
ATOM     32  C   UNL     1      -6.013 -11.210   1.145  0.00  0.00    +0.087 A 
ATOM     33  N   UNL     1      -4.659 -11.268   1.327  0.00  0.00    -0.342 N 
BRANCH  33  34
ATOM     34  C   UNL     1      -3.922 -12.443   1.798  0.00  0.00    +0.157 C 
BRANCH  34  35
ATOM     35  C   UNL     1      -3.725 -12.349   3.289  0.00  0.00    -0.028 A 
ATOM     36  C   UNL     1      -2.605 -11.722   3.801  0.00  0.00    +0.005 A 
ATOM     37  C   UNL     1      -2.425 -11.636   5.168  0.00  0.00    +0.000 A 
ATOM     38  C   UNL     1      -3.365 -12.177   6.025  0.00  0.00    +0.000 A 
ATOM     39  C   UNL     1      -4.487 -12.803   5.513  0.00  0.00    +0.000 A 
ATOM     40  C   UNL     1      -4.669 -12.885   4.145  0.00  0.00    +0.005 A 
ENDBRANCH  34  35
ENDBRANCH  33  34
ENDBRANCH  23  25
ENDBRANCH   7  23
BRANCH   1  41
ATOM     41  O   UNL     1       1.409  -3.128   2.997  0.00  0.00    -0.490 OA
BRANCH  41  43
ATOM     42  C   UNL     1       3.496  -2.088   3.631  0.00  0.00    +0.048 C 
ATOM     43  C   UNL     1       2.720  -2.810   2.527  0.00  0.00    +0.226 C 
ENDBRANCH  41  43
ENDBRANCH   1  41
TORSDOF 11
