REMARK  Name = CHEMBL135853
REMARK  6 active torsions:
REMARK  status: ('A' for Active; 'I' for Inactive)
REMARK    1  A    between atoms: C_1  and  O_2
REMARK    2  A    between atoms: O_2  and  C_3
REMARK    3  A    between atoms: C_8  and  O_9
REMARK    4  A    between atoms: O_9  and  C_10
REMARK    5  A    between atoms: C_14  and  O_15
REMARK    6  A    between atoms: O_15  and  C_16
REMARK                            x       y       z     vdW  Elec       q    Type
REMARK                         _______ _______ _______ _____ _____    ______ ____
ROOT
ATOM      1  C   UNL     1       0.625  -0.610   1.037  0.00  0.00    +0.162 A 
ATOM      2  C   UNL     1       1.191   0.141   2.027  0.00  0.00    +0.064 A 
ATOM      3  C   UNL     1       1.799  -0.495   3.117  0.00  0.00    +0.066 A 
ATOM      4  C   UNL     1       1.823  -1.910   3.187  0.00  0.00    +0.082 A 
ATOM      5  C   UNL     1       1.236  -2.660   2.160  0.00  0.00    +0.078 A 
ATOM      6  C   UNL     1       0.640  -2.011   1.101  0.00  0.00    +0.164 A 
ATOM      7  N   UNL     1       2.411  -2.494   4.242  0.00  0.00    -0.235 NA
ATOM      8  C   UNL     1       2.952  -1.764   5.188  0.00  0.00    +0.225 A 
ATOM      9  N   UNL     1       2.952  -0.440   5.165  0.00  0.00    -0.201 NA
ATOM     10  C   UNL     1       2.399   0.235   4.168  0.00  0.00    +0.231 A 
ENDROOT
BRANCH   1  12
ATOM     11  C   UNL     1       0.051   1.437  -0.030  0.00  0.00    +0.277 C 
ATOM     12  O   UNL     1       0.034   0.008  -0.021  0.00  0.00    -0.491 OA
ENDBRANCH   1  12
BRANCH   6  13
ATOM     13  O   UNL     1       0.065  -2.735   0.107  0.00  0.00    -0.491 OA
ATOM     14  C   UNL     1       0.113  -4.158   0.230  0.00  0.00    +0.277 C 
ENDBRANCH   6  13
BRANCH  10  15
ATOM     15  O   UNL     1       2.408   1.588   4.158  0.00  0.00    -0.437 OA
BRANCH  15  16
ATOM     16  C   UNL     1       2.910   2.231   5.244  0.00  0.00    +0.132 A 
ATOM     17  C   UNL     1       4.282   2.313   5.431  0.00  0.00    +0.046 A 
ATOM     18  C   UNL     1       4.791   2.967   6.536  0.00  0.00    +0.005 A 
ATOM     19  C   UNL     1       3.934   3.541   7.457  0.00  0.00    +0.020 A 
ATOM     20  C   UNL     1       2.565   3.461   7.274  0.00  0.00    +0.044 A 
ATOM     21  C   UNL     1       2.051   2.812   6.166  0.00  0.00    +0.066 A 
ATOM     22 CL   UNL     1       1.491   4.181   8.432  0.00  0.00    -0.083 Cl
ENDBRANCH  15  16
ENDBRANCH  10  15
TORSDOF 4
