REMARK  Name = CHEMBL566337
REMARK  10 active torsions:
REMARK  status: ('A' for Active; 'I' for Inactive)
REMARK    1  A    between atoms: C_1  and  C_2
REMARK    2  A    between atoms: C_2  and  C_3
REMARK    3  A    between atoms: C_9  and  N_10
REMARK    4  A    between atoms: N_10  and  C_11
REMARK    5  A    between atoms: N_19  and  C_20
REMARK    6  A    between atoms: C_20  and  C_21
REMARK    7  A    between atoms: C_30  and  O_32
REMARK    8  A    between atoms: O_32  and  C_33
REMARK    9  A    between atoms: C_33  and  C_34
REMARK   10  A    between atoms: C_34  and  N_35
REMARK                            x       y       z     vdW  Elec       q    Type
REMARK                         _______ _______ _______ _____ _____    ______ ____
ROOT
ATOM      1  C   UNL     1       0.799   0.439  -1.048  0.00  0.00    +0.003 C 
ATOM      2  C   UNL     1       1.948  -0.189  -1.250  0.00  0.00    +0.047 C 
ATOM      3  C   UNL     1       1.927  -0.657  -2.703  0.00  0.00    +0.258 C 
ATOM      4  N   UNL     1       3.239  -0.298  -3.240  0.00  0.00    -0.241 NA
ATOM      5  C   UNL     1       4.265  -0.254  -2.445  0.00  0.00    +0.220 C 
ATOM      6  N   UNL     1       4.268  -0.478  -1.129  0.00  0.00    -0.219 NA
ATOM      7  C   UNL     1       3.130  -0.463  -0.421  0.00  0.00    +0.152 C 
ATOM      8  N   UNL     1       0.804   0.046  -3.305  0.00  0.00    -0.237 NA
ATOM      9  C   UNL     1       0.129   0.621  -2.349  0.00  0.00    +0.129 C 
ATOM     10  N   UNL     1      -1.058   1.315  -2.531  0.00  0.00    -0.236 N 
ATOM     11  C   UNL     1      -1.590   1.425  -3.764  0.00  0.00    +0.406 C 
ATOM     12  O   UNL     1      -1.031   0.917  -4.715  0.00  0.00    -0.226 OA
ATOM     13  H   UNL     1      -1.504   1.720  -1.772  0.00  0.00    +0.160 HD
ENDROOT
BRANCH   1  15
ATOM     14  C   UNL     1       0.638   2.350   0.523  0.00  0.00    +0.009 C 
ATOM     15  C   UNL     1       0.264   0.885   0.288  0.00  0.00    +0.036 C 
ENDBRANCH   1  15
BRANCH   7  16
ATOM     16  N   UNL     1       3.075  -0.679   0.933  0.00  0.00    -0.196 NA
BRANCH  16  17
ATOM     17  C   UNL     1       4.244  -0.619   1.700  0.00  0.00    +0.056 A 
ATOM     18  C   UNL     1       4.325  -1.329   2.899  0.00  0.00    +0.027 A 
ATOM     19  C   UNL     1       5.456  -1.283   3.661  0.00  0.00    +0.030 A 
ATOM     20  C   UNL     1       6.548  -0.522   3.247  0.00  0.00    +0.069 A 
ATOM     21  C   UNL     1       6.476   0.197   2.039  0.00  0.00    +0.022 A 
ATOM     22  C   UNL     1       5.313   0.138   1.263  0.00  0.00    +0.036 A 
ATOM     23  C   UNL     1       7.758   0.879   1.891  0.00  0.00    +0.143 A 
ATOM     24  N   UNL     1       8.492   0.575   2.923  0.00  0.00    -0.178 NA
ATOM     25  N   UNL     1       7.790  -0.281   3.777  0.00  0.00    -0.259 N 
BRANCH  25  26
ATOM     26  C   UNL     1       8.298  -0.831   5.036  0.00  0.00    +0.179 C 
BRANCH  26  27
ATOM     27  C   UNL     1       8.990  -2.142   4.768  0.00  0.00    -0.026 A 
ATOM     28  C   UNL     1       8.271  -3.323   4.805  0.00  0.00    +0.005 A 
ATOM     29  C   UNL     1       8.906  -4.526   4.559  0.00  0.00    +0.000 A 
ATOM     30  C   UNL     1      10.259  -4.549   4.276  0.00  0.00    +0.000 A 
ATOM     31  C   UNL     1      10.977  -3.369   4.239  0.00  0.00    +0.000 A 
ATOM     32  C   UNL     1      10.342  -2.165   4.481  0.00  0.00    +0.005 A 
ENDBRANCH  26  27
ENDBRANCH  25  26
ENDBRANCH  16  17
ENDBRANCH   7  16
BRANCH  11  33
ATOM     33  O   UNL     1      -2.742   2.098  -3.942  0.00  0.00    -0.448 OA
BRANCH  33  34
ATOM     34  C   UNL     1      -3.250   2.176  -5.276  0.00  0.00    +0.255 C 
BRANCH  34  35
ATOM     35  C   UNL     1      -4.555   2.973  -5.279  0.00  0.00    +0.163 C 
BRANCH  35  36
ATOM     36  N   UNL     1      -5.076   3.052  -6.646  0.00  0.00    -0.335 N 
ATOM     37  C   UNL     1      -4.791   4.023  -7.569  0.00  0.00    +0.104 A 
ATOM     38  C   UNL     1      -5.476   3.711  -8.686  0.00  0.00    +0.101 A 
ATOM     39  N   UNL     1      -6.160   2.582  -8.452  0.00  0.00    -0.352 N 
ATOM     40  C   UNL     1      -5.921   2.179  -7.234  0.00  0.00    +0.173 A 
ATOM     41  H   UNL     1      -6.738   2.133  -9.089  0.00  0.00    +0.166 HD
ENDBRANCH  35  36
ENDBRANCH  34  35
ENDBRANCH  33  34
ENDBRANCH  11  33
TORSDOF 9
