REMARK  Name = CHEMBL203661
REMARK  6 active torsions:
REMARK  status: ('A' for Active; 'I' for Inactive)
REMARK    1  A    between atoms: C_6  and  N_7
REMARK    2  A    between atoms: C_11  and  N_18
REMARK    3  A    between atoms: C_19  and  C_21
REMARK    4  A    between atoms: C_22  and  C_23
REMARK    5  A    between atoms: C_23  and  C_24
REMARK    6  A    between atoms: C_24  and  N_25
REMARK                            x       y       z     vdW  Elec       q    Type
REMARK                         _______ _______ _______ _____ _____    ______ ____
ROOT
ATOM      1  N   UNL     1      -4.127  -7.396  -0.037  0.00  0.00    -0.299 N 
ATOM      2  C   UNL     1      -3.103  -6.478   0.076  0.00  0.00    +0.134 A 
ATOM      3  C   UNL     1      -3.376  -5.050   0.204  0.00  0.00    +0.045 A 
ATOM      4  C   UNL     1      -4.667  -4.516   0.222  0.00  0.00    +0.057 A 
ATOM      5  C   UNL     1      -4.808  -3.146   0.349  0.00  0.00    +0.126 A 
ATOM      6  N   UNL     1      -3.751  -2.347   0.451  0.00  0.00    -0.238 NA
ATOM      7  C   UNL     1      -2.517  -2.795   0.439  0.00  0.00    +0.141 A 
ATOM      8  C   UNL     1      -2.270  -4.169   0.316  0.00  0.00    +0.094 A 
ATOM      9  N   UNL     1      -1.035  -4.687   0.298  0.00  0.00    -0.234 NA
ATOM     10  C   UNL     1      -0.849  -5.979   0.180  0.00  0.00    +0.224 A 
ATOM     11  N   UNL     1      -1.831  -6.859   0.078  0.00  0.00    -0.220 NA
ATOM     12  H   UNL     1      -5.045  -7.093  -0.111  0.00  0.00    +0.154 HD
ENDROOT
BRANCH   1  18
ATOM     13  C   UNL     1      -2.764  -9.255   0.684  0.00  0.00    +0.026 A 
ATOM     14  C   UNL     1      -2.483 -10.607   0.676  0.00  0.00    +0.041 A 
ATOM     15  C   UNL     1      -3.273 -11.476  -0.058  0.00  0.00    +0.142 A 
ATOM     16  C   UNL     1      -4.348 -10.990  -0.786  0.00  0.00    +0.078 A 
ATOM     17  C   UNL     1      -4.632  -9.638  -0.780  0.00  0.00    +0.046 A 
ATOM     18  C   UNL     1      -3.840  -8.766  -0.045  0.00  0.00    +0.034 A 
ATOM     19 CL   UNL     1      -5.337 -12.081  -1.705  0.00  0.00    -0.081 Cl
ATOM     20  F   UNL     1      -2.996 -12.798  -0.065  0.00  0.00    -0.204 F 
ENDBRANCH   1  18
BRANCH   5  21
ATOM     21  N   UNL     1      -6.088  -2.591   0.369  0.00  0.00    -0.260 N 
ATOM     22  C   UNL     1      -6.242  -1.252   0.382  0.00  0.00    +0.294 C 
ATOM     23  O   UNL     1      -5.268  -0.529   0.468  0.00  0.00    -0.260 OA
ATOM     24  H   UNL     1      -6.867  -3.169   0.375  0.00  0.00    +0.157 HD
BRANCH  22  25
ATOM     25  C   UNL     1      -7.552  -0.681   0.295  0.00  0.00    -0.008 C 
ATOM     26  C   UNL     1      -8.627  -0.213   0.224  0.00  0.00    -0.091 C 
BRANCH  26  27
ATOM     27  C   UNL     1      -9.973   0.374   0.134  0.00  0.00    +0.104 C 
BRANCH  27  28
ATOM     28  C   UNL     1      -9.868   1.900   0.169  0.00  0.00    +0.097 C 
BRANCH  28  29
ATOM     29  N   UNL     1     -11.212   2.486   0.080  0.00  0.00    -0.297 NA
ATOM     30  C   UNL     1     -11.819   2.214  -1.231  0.00  0.00    +0.112 C 
ATOM     31  C   UNL     1     -13.238   2.789  -1.260  0.00  0.00    +0.175 C 
ATOM     32  O   UNL     1     -13.186   4.188  -0.967  0.00  0.00    -0.377 OA
ATOM     33  C   UNL     1     -12.601   4.489   0.303  0.00  0.00    +0.175 C 
ATOM     34  C   UNL     1     -11.176   3.931   0.348  0.00  0.00    +0.112 C 
ENDBRANCH  28  29
ENDBRANCH  27  28
ENDBRANCH  26  27
ENDBRANCH  22  25
ENDBRANCH   5  21
TORSDOF 6
