REMARK  Name = CHEMBL249511
REMARK  4 active torsions:
REMARK  status: ('A' for Active; 'I' for Inactive)
REMARK    1  A    between atoms: C_4  and  C_7
REMARK    2  A    between atoms: C_8  and  C_9
REMARK    3  A    between atoms: C_15  and  N_19
REMARK    4  A    between atoms: N_19  and  C_20
REMARK                            x       y       z     vdW  Elec       q    Type
REMARK                         _______ _______ _______ _____ _____    ______ ____
ROOT
ATOM      1  C   UNL     1       5.977  -1.985   0.606  0.00  0.00    +0.026 A 
ATOM      2  C   UNL     1       7.179  -1.256   0.583  0.00  0.00    +0.019 A 
ATOM      3  C   UNL     1       8.365  -1.874   0.338  0.00  0.00    +0.030 A 
ATOM      4  C   UNL     1       8.399  -3.258   0.103  0.00  0.00    +0.076 A 
ATOM      5  C   UNL     1       7.193  -4.002   0.124  0.00  0.00    +0.042 A 
ATOM      6  C   UNL     1       5.982  -3.357   0.383  0.00  0.00    +0.030 A 
ATOM      7  C   UNL     1       7.263  -5.397  -0.116  0.00  0.00    +0.134 A 
ATOM      8  N   UNL     1       8.454  -5.934  -0.348  0.00  0.00    -0.220 NA
ATOM      9  C   UNL     1       9.553  -5.198  -0.357  0.00  0.00    +0.223 A 
ATOM     10  N   UNL     1       9.548  -3.903  -0.141  0.00  0.00    -0.235 NA
ENDROOT
BRANCH   1  12
ATOM     11  C   UNL     1       3.727  -0.758   1.080  0.00  0.00    -0.061 C 
ATOM     12  C   UNL     1       4.741  -1.311   0.866  0.00  0.00    -0.061 C 
BRANCH  11  16
ATOM     13  C   UNL     1       0.100   1.221   1.843  0.00  0.00    +0.000 A 
ATOM     14  C   UNL     1       1.283   1.938   1.816  0.00  0.00    +0.001 A 
ATOM     15  C   UNL     1       2.477   1.295   1.566  0.00  0.00    +0.017 A 
ATOM     16  C   UNL     1       2.491  -0.084   1.340  0.00  0.00    +0.025 A 
ATOM     17  C   UNL     1       1.292  -0.802   1.370  0.00  0.00    +0.017 A 
ATOM     18  C   UNL     1       0.105  -0.145   1.620  0.00  0.00    +0.001 A 
ENDBRANCH  11  16
ENDBRANCH   1  12
BRANCH   7  19
ATOM     19  N   UNL     1       6.125  -6.176  -0.109  0.00  0.00    -0.299 N 
ATOM     20  H   UNL     1       5.253  -5.759  -0.021  0.00  0.00    +0.154 HD
BRANCH  19  21
ATOM     21  C   UNL     1       6.227  -7.566  -0.228  0.00  0.00    +0.034 A 
ATOM     22  C   UNL     1       5.261  -8.277  -0.928  0.00  0.00    +0.026 A 
ATOM     23  C   UNL     1       5.363  -9.649  -1.046  0.00  0.00    +0.041 A 
ATOM     24  C   UNL     1       6.428 -10.317  -0.466  0.00  0.00    +0.142 A 
ATOM     25  C   UNL     1       7.394  -9.610   0.234  0.00  0.00    +0.078 A 
ATOM     26  C   UNL     1       7.298  -8.236   0.348  0.00  0.00    +0.046 A 
ATOM     27 CL   UNL     1       8.728 -10.450   0.961  0.00  0.00    -0.081 Cl
ATOM     28  F   UNL     1       6.527 -11.659  -0.582  0.00  0.00    -0.204 F 
ENDBRANCH  19  21
ENDBRANCH   7  19
TORSDOF 4
