REMARK  Name = CHEMBL593911
REMARK  12 active torsions:
REMARK  status: ('A' for Active; 'I' for Inactive)
REMARK    1  A    between atoms: C_1  and  N_2
REMARK    2  A    between atoms: N_5  and  C_8
REMARK    3  A    between atoms: C_8  and  C_9
REMARK    4  A    between atoms: C_9  and  C_10
REMARK    5  A    between atoms: C_10  and  O_11
REMARK    6  A    between atoms: O_11  and  C_12
REMARK    7  A    between atoms: C_17  and  O_18
REMARK    8  A    between atoms: O_18  and  C_19
REMARK    9  A    between atoms: N_24  and  C_25
REMARK   10  A    between atoms: C_28  and  C_33
REMARK   11  A    between atoms: C_29  and  O_31
REMARK   12  A    between atoms: O_31  and  C_32
REMARK                            x       y       z     vdW  Elec       q    Type
REMARK                         _______ _______ _______ _____ _____    ______ ____
ROOT
ATOM      1  C   UNL     1       0.143  -8.071   3.815  0.00  0.00    +0.163 A 
ATOM      2  C   UNL     1      -0.068  -8.843   2.708  0.00  0.00    +0.062 A 
ATOM      3  C   UNL     1       0.281 -10.198   2.731  0.00  0.00    +0.044 A 
ATOM      4  C   UNL     1       0.850 -10.762   3.900  0.00  0.00    +0.080 A 
ATOM      5  C   UNL     1       1.056  -9.953   5.024  0.00  0.00    +0.078 A 
ATOM      6  C   UNL     1       0.710  -8.621   4.974  0.00  0.00    +0.164 A 
ATOM      7  N   UNL     1       1.176 -12.064   3.895  0.00  0.00    -0.235 NA
ATOM      8  C   UNL     1       0.970 -12.797   2.827  0.00  0.00    +0.223 A 
ATOM      9  N   UNL     1       0.443 -12.314   1.713  0.00  0.00    -0.220 NA
ATOM     10  C   UNL     1       0.085 -11.041   1.611  0.00  0.00    +0.134 A 
ATOM     11  N   UNL     1      -0.464 -10.551   0.443  0.00  0.00    -0.299 N 
ATOM     12  H   UNL     1      -0.644  -9.602   0.352  0.00  0.00    +0.154 HD
ENDROOT
BRANCH  11  13
ATOM     13  C   UNL     1      -0.761 -11.420  -0.607  0.00  0.00    +0.036 A 
ATOM     14  C   UNL     1      -1.232 -12.702  -0.335  0.00  0.00    +0.024 A 
ATOM     15  C   UNL     1      -1.526 -13.565  -1.366  0.00  0.00    +0.016 A 
ATOM     16  C   UNL     1      -1.353 -13.155  -2.691  0.00  0.00    +0.049 A 
ATOM     17  C   UNL     1      -0.879 -11.865  -2.964  0.00  0.00    +0.132 A 
ATOM     18  C   UNL     1      -0.590 -11.003  -1.921  0.00  0.00    +0.069 A 
BRANCH  16  19
ATOM     19  C   UNL     1      -1.667 -14.079  -3.798  0.00  0.00    +0.113 A 
ATOM     20  N   UNL     1      -1.564 -13.878  -5.095  0.00  0.00    -0.239 NA
ATOM     21  C   UNL     1      -1.890 -14.821  -6.001  0.00  0.00    +0.079 A 
ATOM     22  C   UNL     1      -1.827 -14.735  -7.413  0.00  0.00    +0.029 A 
ATOM     23  C   UNL     1      -2.196 -15.787  -8.192  0.00  0.00    +0.002 A 
ATOM     24  C   UNL     1      -2.647 -16.979  -7.642  0.00  0.00    +0.001 A 
ATOM     25  C   UNL     1      -2.724 -17.104  -6.267  0.00  0.00    +0.017 A 
ATOM     26  C   UNL     1      -2.353 -16.048  -5.471  0.00  0.00    +0.040 A 
ATOM     27  S   UNL     1      -2.277 -15.757  -3.720  0.00  0.00    -0.067 S 
ENDBRANCH  16  19
BRANCH  17  28
ATOM     28  O   UNL     1      -0.708 -11.460  -4.249  0.00  0.00    -0.494 OA
ATOM     29  C   UNL     1      -0.222 -10.132  -4.452  0.00  0.00    +0.277 C 
ENDBRANCH  17  28
ENDBRANCH  11  13
BRANCH   6  30
ATOM     30  O   UNL     1       0.915  -7.832   6.061  0.00  0.00    -0.491 OA
ATOM     31  C   UNL     1       1.496  -8.450   7.210  0.00  0.00    +0.277 C 
ENDBRANCH   6  30
BRANCH   1  32
ATOM     32  O   UNL     1      -0.196  -6.755   3.792  0.00  0.00    -0.488 OA
BRANCH  32  33
ATOM     33  C   UNL     1      -0.770  -6.254   2.583  0.00  0.00    +0.227 C 
BRANCH  33  34
ATOM     34  C   UNL     1      -1.083  -4.765   2.746  0.00  0.00    +0.022 C 
BRANCH  34  35
ATOM     35  C   UNL     1      -1.698  -4.229   1.451  0.00  0.00    -0.075 C 
BRANCH  35  40
ATOM     36  C   UNL     1      -2.054   1.367   0.895  0.00  0.00    +0.104 C 
ATOM     37  N   UNL     1      -1.783  -0.073   0.784  0.00  0.00    -0.309 NA
ATOM     38  C   UNL     1      -3.027  -0.829   0.580  0.00  0.00    +0.065 C 
ATOM     39  C   UNL     1      -2.697  -2.313   0.410  0.00  0.00    -0.063 C 
ATOM     40  N   UNL     1      -1.999  -2.800   1.607  0.00  0.00    +0.381 N 
ATOM     41  C   UNL     1      -0.747  -2.052   1.784  0.00  0.00    -0.063 C 
ATOM     42  C   UNL     1      -1.061  -0.566   1.966  0.00  0.00    +0.065 C 
ATOM     43  H   UNL     1      -2.587  -2.667   2.416  0.00  0.00    -0.082 HD
ENDBRANCH  35  40
ENDBRANCH  34  35
ENDBRANCH  33  34
ENDBRANCH  32  33
ENDBRANCH   1  32
TORSDOF 9
