REMARK  Name = CHEMBL449093
REMARK  7 active torsions:
REMARK  status: ('A' for Active; 'I' for Inactive)
REMARK    1  A    between atoms: C_3  and  O_12
REMARK    2  A    between atoms: C_6  and  C_7
REMARK    3  A    between atoms: C_8  and  N_9
REMARK    4  A    between atoms: O_12  and  S_13
REMARK    5  A    between atoms: S_13  and  C_16
REMARK    6  A    between atoms: C_19  and  C_23
REMARK    7  A    between atoms: C_20  and  O_22
REMARK                            x       y       z     vdW  Elec       q    Type
REMARK                         _______ _______ _______ _____ _____    ______ ____
ROOT
ATOM      1  S   UNL     1       4.091   2.425   1.366  0.00  0.00    +0.151 S 
ATOM      2  O   UNL     1       5.179   3.321   1.183  0.00  0.00    -0.131 OA
ATOM      3  O   UNL     1       2.971   2.742   2.181  0.00  0.00    -0.131 OA
ENDROOT
BRANCH   1   4
ATOM      4  C   UNL     1       4.772   0.931   2.005  0.00  0.00    +0.132 A 
ATOM      5  C   UNL     1       3.970   0.064   2.731  0.00  0.00    +0.031 A 
ATOM      6  C   UNL     1       4.491  -1.106   3.236  0.00  0.00    +0.021 A 
ATOM      7  C   UNL     1       5.835  -1.424   3.015  0.00  0.00    +0.105 A 
ATOM      8  C   UNL     1       6.643  -0.544   2.279  0.00  0.00    +0.133 A 
ATOM      9  C   UNL     1       6.099   0.628   1.774  0.00  0.00    +0.076 A 
BRANCH   7  10
ATOM     10  C   UNL     1       6.399  -2.673   3.552  0.00  0.00    +0.390 C 
ATOM     11  O   UNL     1       5.691  -3.437   4.194  0.00  0.00    -0.240 OA
ATOM     12  O   UNL     1       7.575  -2.947   3.356  0.00  0.00    -0.240 OA
ENDBRANCH   7  10
BRANCH   8  13
ATOM     13  O   UNL     1       7.947  -0.841   2.057  0.00  0.00    -0.506 OA
ATOM     14  H   UNL     1       8.104  -1.347   1.248  0.00  0.00    +0.292 HD
ENDBRANCH   8  13
ENDBRANCH   1   4
BRANCH   1  15
ATOM     15  O   UNL     1       3.547   2.114  -0.021  0.00  0.00    -0.342 OA
BRANCH  15  18
ATOM     16  C   UNL     1      -0.017   1.392   0.010  0.00  0.00    +0.011 A 
ATOM     17  C   UNL     1       1.169   2.095   0.002  0.00  0.00    +0.049 A 
ATOM     18  C   UNL     1       2.380   1.417  -0.013  0.00  0.00    +0.157 A 
ATOM     19  C   UNL     1       2.403   0.029  -0.021  0.00  0.00    +0.049 A 
ATOM     20  C   UNL     1       1.222  -0.682  -0.014  0.00  0.00    +0.011 A 
ATOM     21  C   UNL     1       0.002  -0.004   0.002  0.00  0.00    -0.023 A 
BRANCH  21  22
ATOM     22  C   UNL     1      -1.266  -0.762   0.011  0.00  0.00    +0.032 C 
ATOM     23  C   UNL     1      -1.246  -2.088   0.003  0.00  0.00    +0.179 C 
BRANCH  23  24
ATOM     24  N   UNL     1      -2.517  -2.847   0.012  0.00  0.00    +0.049 N 
ATOM     25  O   UNL     1      -3.573  -2.259   0.025  0.00  0.00    -0.127 OA
ATOM     26  O   UNL     1      -2.499  -4.056   0.005  0.00  0.00    -0.127 OA
ENDBRANCH  23  24
ENDBRANCH  21  22
ENDBRANCH  15  18
ENDBRANCH   1  15
TORSDOF 7
