REMARK  Name = CHEMBL212965
REMARK  7 active torsions:
REMARK  status: ('A' for Active; 'I' for Inactive)
REMARK    1  A    between atoms: C_4  and  C_7
REMARK    2  A    between atoms: C_7  and  O_8
REMARK    3  A    between atoms: O_8  and  C_9
REMARK    4  A    between atoms: C_12  and  N_16
REMARK    5  A    between atoms: C_20  and  C_27
REMARK    6  A    between atoms: C_30  and  C_32
REMARK    7  A    between atoms: C_32  and  N_33
REMARK                            x       y       z     vdW  Elec       q    Type
REMARK                         _______ _______ _______ _____ _____    ______ ____
ROOT
ATOM      1  N   UNL     1       8.932  -3.627   1.964  0.00  0.00    -0.299 N 
ATOM      2  C   UNL     1       9.455  -3.805   3.228  0.00  0.00    +0.134 A 
ATOM      3  C   UNL     1      10.732  -4.391   3.411  0.00  0.00    +0.041 A 
ATOM      4  C   UNL     1      11.515  -4.810   2.333  0.00  0.00    +0.025 A 
ATOM      5  C   UNL     1      12.759  -5.376   2.577  0.00  0.00    +0.018 A 
ATOM      6  C   UNL     1      13.227  -5.527   3.893  0.00  0.00    +0.013 A 
ATOM      7  C   UNL     1      12.474  -5.123   4.951  0.00  0.00    +0.029 A 
ATOM      8  C   UNL     1      11.213  -4.547   4.735  0.00  0.00    +0.076 A 
ATOM      9  N   UNL     1      10.442  -4.136   5.752  0.00  0.00    -0.235 NA
ATOM     10  C   UNL     1       9.266  -3.600   5.522  0.00  0.00    +0.223 A 
ATOM     11  N   UNL     1       8.778  -3.429   4.304  0.00  0.00    -0.220 NA
ATOM     12  H   UNL     1       9.403  -3.976   1.191  0.00  0.00    +0.154 HD
ENDROOT
BRANCH   1  16
ATOM     13  C   UNL     1       5.331  -1.585   1.466  0.00  0.00    +0.139 A 
ATOM     14  C   UNL     1       6.193  -1.230   2.493  0.00  0.00    +0.049 A 
ATOM     15  C   UNL     1       7.386  -1.906   2.659  0.00  0.00    +0.027 A 
ATOM     16  C   UNL     1       7.723  -2.942   1.797  0.00  0.00    +0.034 A 
ATOM     17  C   UNL     1       6.859  -3.298   0.770  0.00  0.00    +0.047 A 
ATOM     18  C   UNL     1       5.663  -2.624   0.608  0.00  0.00    +0.084 A 
ATOM     19 CL   UNL     1       4.580  -3.073  -0.672  0.00  0.00    -0.080 Cl
BRANCH  13  20
ATOM     20  O   UNL     1       4.157  -0.919   1.304  0.00  0.00    -0.486 OA
BRANCH  20  21
ATOM     21  C   UNL     1       3.879   0.140   2.223  0.00  0.00    +0.264 C 
BRANCH  21  25
ATOM     22  C   UNL     1       0.098   1.890   1.282  0.00  0.00    +0.000 A 
ATOM     23  C   UNL     1       0.167   0.829   2.165  0.00  0.00    +0.000 A 
ATOM     24  C   UNL     1       1.391   0.262   2.469  0.00  0.00    +0.007 A 
ATOM     25  C   UNL     1       2.545   0.757   1.891  0.00  0.00    -0.010 A 
ATOM     26  C   UNL     1       2.475   1.817   1.007  0.00  0.00    +0.007 A 
ATOM     27  C   UNL     1       1.252   2.385   0.704  0.00  0.00    +0.000 A 
ENDBRANCH  21  25
ENDBRANCH  20  21
ENDBRANCH  13  20
ENDBRANCH   1  16
BRANCH   5  28
ATOM     28  C   UNL     1      13.596  -5.824   1.445  0.00  0.00    +0.135 A 
ATOM     29  C   UNL     1      14.826  -6.397   1.539  0.00  0.00    +0.050 A 
ATOM     30  C   UNL     1      15.253  -6.661   0.223  0.00  0.00    +0.043 A 
ATOM     31  C   UNL     1      14.274  -6.240  -0.602  0.00  0.00    +0.089 A 
ATOM     32  O   UNL     1      13.272  -5.740   0.140  0.00  0.00    -0.462 OA
BRANCH  31  33
ATOM     33  C   UNL     1      14.296  -6.323  -2.106  0.00  0.00    -0.003 C 
BRANCH  33  34
ATOM     34  N   UNL     1      13.714  -7.602  -2.535  0.00  0.00    +0.386 N 
ATOM     35  C   UNL     1      14.546  -8.699  -2.035  0.00  0.00    -0.065 C 
ATOM     36  C   UNL     1      13.781 -10.023  -2.141  0.00  0.00    +0.085 C 
ATOM     37  S   UNL     1      13.425 -10.338  -3.898  0.00  0.00    +0.019 S 
ATOM     38  O   UNL     1      14.643 -10.569  -4.593  0.00  0.00    -0.257 OA
ATOM     39  C   UNL     1      12.703  -8.760  -4.447  0.00  0.00    +0.085 C 
ATOM     40  C   UNL     1      13.630  -7.625  -3.997  0.00  0.00    -0.065 C 
ATOM     41  H   UNL     1      12.787  -7.689  -2.149  0.00  0.00    -0.081 HD
ENDBRANCH  33  34
ENDBRANCH  31  33
ENDBRANCH   5  28
TORSDOF 7
