REMARK  Name = CHEMBL266995
REMARK  3 active torsions:
REMARK  status: ('A' for Active; 'I' for Inactive)
REMARK    1  A    between atoms: C_3  and  C_8
REMARK    2  A    between atoms: C_13  and  O_20
REMARK    3  A    between atoms: C_15  and  O_19
REMARK                            x       y       z     vdW  Elec       q    Type
REMARK                         _______ _______ _______ _____ _____    ______ ____
ROOT
ATOM      1  C   UNL     1       3.659   2.165  -0.022  0.00  0.00    +0.046 A 
ATOM      2  C   UNL     1       4.016   2.936   1.044  0.00  0.00    +0.095 A 
ATOM      3  N   UNL     1       5.178   3.631   1.065  0.00  0.00    -0.360 N 
ATOM      4  C   UNL     1       5.920   3.843  -0.077  0.00  0.00    +0.057 A 
ATOM      5  C   UNL     1       6.933   4.793  -0.106  0.00  0.00    +0.072 A 
ATOM      6  C   UNL     1       7.669   4.985  -1.263  0.00  0.00    +0.122 A 
ATOM      7  C   UNL     1       7.408   4.233  -2.405  0.00  0.00    +0.091 A 
ATOM      8  C   UNL     1       6.403   3.284  -2.399  0.00  0.00    +0.133 A 
ATOM      9  C   UNL     1       5.650   3.086  -1.234  0.00  0.00    +0.087 A 
ATOM     10  C   UNL     1       4.565   2.093  -1.179  0.00  0.00    +0.201 A 
ATOM     11  O   UNL     1       4.420   1.254  -2.052  0.00  0.00    -0.286 OA
ATOM     12  H   UNL     1       5.497   3.991   1.907  0.00  0.00    +0.165 HD
ENDROOT
BRANCH   1  15
ATOM     13  C   UNL     1      -0.017   1.379   0.010  0.00  0.00    +0.002 A 
ATOM     14  C   UNL     1       1.167   2.088   0.002  0.00  0.00    +0.009 A 
ATOM     15  C   UNL     1       2.384   1.408  -0.013  0.00  0.00    -0.011 A 
ATOM     16  C   UNL     1       2.398   0.015  -0.021  0.00  0.00    +0.028 A 
ATOM     17  C   UNL     1       1.208  -0.685  -0.013  0.00  0.00    +0.042 A 
ATOM     18  C   UNL     1       0.002  -0.004   0.002  0.00  0.00    +0.020 A 
ATOM     19 CL   UNL     1       1.222  -2.421  -0.023  0.00  0.00    -0.084 Cl
ENDBRANCH   1  15
BRANCH   8  20
ATOM     20  O   UNL     1       6.148   2.551  -3.511  0.00  0.00    -0.506 OA
ATOM     21  H   UNL     1       6.653   1.727  -3.564  0.00  0.00    +0.292 HD
ENDBRANCH   8  20
BRANCH   6  22
ATOM     22  O   UNL     1       8.656   5.916  -1.284  0.00  0.00    -0.507 OA
ATOM     23  H   UNL     1       9.523   5.577  -1.021  0.00  0.00    +0.292 HD
ENDBRANCH   6  22
TORSDOF 3
