REMARK  Name = CHEMBL246284
REMARK  7 active torsions:
REMARK  status: ('A' for Active; 'I' for Inactive)
REMARK    1  A    between atoms: C_3  and  C_8
REMARK    2  A    between atoms: C_8  and  N_9
REMARK    3  A    between atoms: C_13  and  N_18
REMARK    4  A    between atoms: C_21  and  C_28
REMARK    5  A    between atoms: C_28  and  O_29
REMARK    6  A    between atoms: O_29  and  C_30
REMARK    7  A    between atoms: C_30  and  C_31
REMARK                            x       y       z     vdW  Elec       q    Type
REMARK                         _______ _______ _______ _____ _____    ______ ____
ROOT
ATOM      1  N   UNL     1       3.262   6.401   5.100  0.00  0.00    -0.298 N 
ATOM      2  C   UNL     1       2.567   7.560   4.814  0.00  0.00    +0.151 A 
ATOM      3  C   UNL     1       2.481   8.596   5.772  0.00  0.00    +0.111 A 
ATOM      4  C   UNL     1       2.967   8.757   7.055  0.00  0.00    +0.008 A 
ATOM      5  C   UNL     1       2.544  10.012   7.494  0.00  0.00    +0.028 A 
ATOM      6  C   UNL     1       1.823  10.584   6.493  0.00  0.00    +0.113 A 
ATOM      7  N   UNL     1       1.776   9.739   5.446  0.00  0.00    -0.235 N 
ATOM      8  N   UNL     1       1.181   9.815   4.179  0.00  0.00    -0.155 NA
ATOM      9  C   UNL     1       1.299   8.822   3.341  0.00  0.00    +0.245 A 
ATOM     10  N   UNL     1       1.979   7.716   3.639  0.00  0.00    -0.217 NA
ATOM     11  H   UNL     1       3.758   6.324   5.929  0.00  0.00    +0.154 HD
ENDROOT
BRANCH   1  16
ATOM     12  N   UNL     1       2.961   2.253   1.467  0.00  0.00    -0.259 N 
ATOM     13  C   UNL     1       3.261   3.215   2.399  0.00  0.00    +0.069 A 
ATOM     14  C   UNL     1       4.411   3.531   3.118  0.00  0.00    +0.030 A 
ATOM     15  C   UNL     1       4.403   4.574   3.998  0.00  0.00    +0.025 A 
ATOM     16  C   UNL     1       3.249   5.335   4.191  0.00  0.00    +0.033 A 
ATOM     17  C   UNL     1       2.096   5.043   3.491  0.00  0.00    +0.034 A 
ATOM     18  C   UNL     1       2.092   3.976   2.585  0.00  0.00    +0.021 A 
ATOM     19  C   UNL     1       1.082   3.401   1.703  0.00  0.00    +0.143 A 
ATOM     20  N   UNL     1       1.629   2.405   1.067  0.00  0.00    -0.178 NA
BRANCH  12  21
ATOM     21  C   UNL     1       3.888   1.235   0.967  0.00  0.00    +0.179 C 
BRANCH  21  24
ATOM     22  C   UNL     1       6.481   2.936  -1.187  0.00  0.00    +0.003 A 
ATOM     23  C   UNL     1       5.811   2.446  -0.081  0.00  0.00    +0.005 A 
ATOM     24  C   UNL     1       4.617   1.768  -0.239  0.00  0.00    -0.023 A 
ATOM     25  C   UNL     1       4.091   1.579  -1.504  0.00  0.00    +0.043 A 
ATOM     26  C   UNL     1       4.761   2.069  -2.612  0.00  0.00    +0.124 A 
ATOM     27  C   UNL     1       5.957   2.748  -2.452  0.00  0.00    +0.038 A 
ATOM     28  F   UNL     1       4.249   1.884  -3.848  0.00  0.00    -0.205 F 
ENDBRANCH  21  24
ENDBRANCH  12  21
ENDBRANCH   1  16
BRANCH   4  29
ATOM     29  C   UNL     1       3.795   7.766   7.832  0.00  0.00    +0.197 C 
BRANCH  29  30
ATOM     30  O   UNL     1       4.098   8.305   9.120  0.00  0.00    -0.373 OA
BRANCH  30  31
ATOM     31  C   UNL     1       4.885   7.439   9.941  0.00  0.00    +0.189 C 
BRANCH  31  32
ATOM     32  C   UNL     1       5.147   8.115  11.289  0.00  0.00    +0.127 C 
ATOM     33  C   UNL     1       6.090   7.244  12.123  0.00  0.00    -0.048 C 
ATOM     34  N   UNL     1       6.293   7.867  13.438  0.00  0.00    +0.382 N 
ATOM     35  C   UNL     1       5.001   7.989  14.126  0.00  0.00    -0.054 C 
ATOM     36  C   UNL     1       4.061   8.860  13.288  0.00  0.00    +0.141 C 
ATOM     37  O   UNL     1       3.911   8.279  11.990  0.00  0.00    -0.378 OA
ATOM     38  H   UNL     1       6.915   7.293  13.989  0.00  0.00    -0.086 HD
ATOM     39  H   UNL     1       6.699   8.783  13.317  0.00  0.00    -0.086 HD
ENDBRANCH  31  32
ENDBRANCH  30  31
ENDBRANCH  29  30
ENDBRANCH   4  29
TORSDOF 7
