REMARK  Name = CHEMBL291514
REMARK  8 active torsions:
REMARK  status: ('A' for Active; 'I' for Inactive)
REMARK    1  A    between atoms: C_1  and  O_2
REMARK    2  A    between atoms: O_2  and  C_3
REMARK    3  A    between atoms: C_8  and  O_9
REMARK    4  A    between atoms: O_9  and  C_10
REMARK    5  A    between atoms: C_10  and  C_11
REMARK    6  A    between atoms: C_11  and  C_12
REMARK    7  A    between atoms: C_12  and  N_13
REMARK    8  A    between atoms: N_23  and  C_24
REMARK                            x       y       z     vdW  Elec       q    Type
REMARK                         _______ _______ _______ _____ _____    ______ ____
ROOT
ATOM      1  C   UNL     1       0.073  -0.628   1.437  0.00  0.00    +0.164 A 
ATOM      2  C   UNL     1       0.819   0.135   2.309  0.00  0.00    +0.078 A 
ATOM      3  C   UNL     1       1.642  -0.498   3.248  0.00  0.00    +0.080 A 
ATOM      4  C   UNL     1       1.695  -1.913   3.287  0.00  0.00    +0.044 A 
ATOM      5  C   UNL     1       0.928  -2.665   2.390  0.00  0.00    +0.062 A 
ATOM      6  C   UNL     1       0.127  -2.028   1.486  0.00  0.00    +0.163 A 
ATOM      7  C   UNL     1       2.536  -2.523   4.248  0.00  0.00    +0.134 A 
ATOM      8  N   UNL     1       3.231  -1.740   5.062  0.00  0.00    -0.220 NA
ATOM      9  C   UNL     1       3.149  -0.421   4.989  0.00  0.00    +0.223 A 
ATOM     10  N   UNL     1       2.388   0.200   4.120  0.00  0.00    -0.235 NA
ATOM     11  N   UNL     1       2.631  -3.898   4.336  0.00  0.00    -0.299 N 
ATOM     12  H   UNL     1       2.183  -4.457   3.682  0.00  0.00    +0.154 HD
ENDROOT
BRANCH  11  13
ATOM     13  C   UNL     1       3.371  -4.483   5.368  0.00  0.00    +0.034 A 
ATOM     14  C   UNL     1       3.404  -3.890   6.624  0.00  0.00    +0.026 A 
ATOM     15  C   UNL     1       4.135  -4.470   7.642  0.00  0.00    +0.041 A 
ATOM     16  C   UNL     1       4.836  -5.642   7.412  0.00  0.00    +0.142 A 
ATOM     17  C   UNL     1       4.805  -6.235   6.161  0.00  0.00    +0.078 A 
ATOM     18  C   UNL     1       4.070  -5.661   5.141  0.00  0.00    +0.046 A 
ATOM     19 CL   UNL     1       5.685  -7.705   5.876  0.00  0.00    -0.081 Cl
ATOM     20  F   UNL     1       5.551  -6.207   8.410  0.00  0.00    -0.204 F 
ENDBRANCH  11  13
BRANCH   1  22
ATOM     21  C   UNL     1      -0.737   1.412   0.525  0.00  0.00    +0.277 C 
ATOM     22  O   UNL     1      -0.726  -0.017   0.525  0.00  0.00    -0.491 OA
ENDBRANCH   1  22
BRANCH   6  23
ATOM     23  O   UNL     1      -0.623  -2.760   0.619  0.00  0.00    -0.488 OA
BRANCH  23  24
ATOM     24  C   UNL     1      -0.525  -4.182   0.717  0.00  0.00    +0.227 C 
BRANCH  24  25
ATOM     25  C   UNL     1      -1.433  -4.829  -0.331  0.00  0.00    +0.022 C 
BRANCH  25  26
ATOM     26  C   UNL     1      -1.329  -6.352  -0.225  0.00  0.00    -0.076 C 
BRANCH  26  27
ATOM     27  N   UNL     1      -2.201  -6.973  -1.231  0.00  0.00    +0.380 N 
ATOM     28  C   UNL     1      -3.600  -6.650  -0.930  0.00  0.00    -0.079 C 
ATOM     29  C   UNL     1      -4.507  -7.227  -2.020  0.00  0.00    -0.019 C 
ATOM     30  C   UNL     1      -4.332  -8.747  -2.070  0.00  0.00    -0.004 C 
ATOM     31  C   UNL     1      -2.855  -9.074  -2.310  0.00  0.00    -0.019 C 
ATOM     32  C   UNL     1      -2.010  -8.429  -1.210  0.00  0.00    -0.079 C 
ATOM     33  H   UNL     1      -1.964  -6.618  -2.145  0.00  0.00    -0.082 HD
ENDBRANCH  26  27
ENDBRANCH  25  26
ENDBRANCH  24  25
ENDBRANCH  23  24
ENDBRANCH   6  23
TORSDOF 7
