REMARK  Name = CHEMBL514566
REMARK  9 active torsions:
REMARK  status: ('A' for Active; 'I' for Inactive)
REMARK    1  A    between atoms: C_3  and  C_8
REMARK    2  A    between atoms: C_8  and  N_9
REMARK    3  A    between atoms: C_13  and  N_18
REMARK    4  A    between atoms: C_20  and  C_26
REMARK    5  A    between atoms: C_21  and  N_25
REMARK    6  A    between atoms: N_27  and  N_28
REMARK    7  A    between atoms: N_31  and  C_34
REMARK    8  A    between atoms: C_34  and  C_35
REMARK    9  A    between atoms: C_35  and  O_36
REMARK                            x       y       z     vdW  Elec       q    Type
REMARK                         _______ _______ _______ _____ _____    ______ ____
ROOT
ATOM      1  N   UNL     1       3.442   6.327   5.363  0.00  0.00    -0.299 N 
ATOM      2  C   UNL     1       2.730   7.467   5.028  0.00  0.00    +0.137 A 
ATOM      3  C   UNL     1       2.617   8.534   5.937  0.00  0.00    +0.074 A 
ATOM      4  C   UNL     1       1.883   9.665   5.539  0.00  0.00    +0.130 A 
ATOM      5  N   UNL     1       1.330   9.677   4.329  0.00  0.00    -0.220 NA
ATOM      6  C   UNL     1       1.463   8.653   3.510  0.00  0.00    +0.225 A 
ATOM      7  N   UNL     1       2.146   7.575   3.837  0.00  0.00    -0.220 NA
ATOM      8  H   UNL     1       3.801   6.226   6.258  0.00  0.00    +0.154 HD
ENDROOT
BRANCH   1  13
ATOM      9  N   UNL     1       4.237   2.545   1.419  0.00  0.00    -0.259 N 
ATOM     10  C   UNL     1       4.037   3.300   2.548  0.00  0.00    +0.069 A 
ATOM     11  C   UNL     1       3.892   2.990   3.898  0.00  0.00    +0.030 A 
ATOM     12  C   UNL     1       3.698   3.986   4.812  0.00  0.00    +0.025 A 
ATOM     13  C   UNL     1       3.642   5.322   4.410  0.00  0.00    +0.033 A 
ATOM     14  C   UNL     1       3.783   5.655   3.078  0.00  0.00    +0.034 A 
ATOM     15  C   UNL     1       3.982   4.644   2.132  0.00  0.00    +0.021 A 
ATOM     16  C   UNL     1       4.164   4.633   0.684  0.00  0.00    +0.143 A 
ATOM     17  N   UNL     1       4.314   3.394   0.310  0.00  0.00    -0.178 NA
BRANCH   9  18
ATOM     18  C   UNL     1       4.358   1.086   1.383  0.00  0.00    +0.179 C 
BRANCH  18  21
ATOM     19  C   UNL     1       7.643   0.120   2.974  0.00  0.00    +0.003 A 
ATOM     20  C   UNL     1       6.316   0.476   2.817  0.00  0.00    +0.005 A 
ATOM     21  C   UNL     1       5.804   0.697   1.552  0.00  0.00    -0.023 A 
ATOM     22  C   UNL     1       6.617   0.560   0.443  0.00  0.00    +0.043 A 
ATOM     23  C   UNL     1       7.946   0.203   0.599  0.00  0.00    +0.124 A 
ATOM     24  C   UNL     1       8.458  -0.017   1.867  0.00  0.00    +0.038 A 
ATOM     25  F   UNL     1       8.742   0.069  -0.484  0.00  0.00    -0.205 F 
ENDBRANCH  18  21
ENDBRANCH   9  18
ENDBRANCH   1  13
BRANCH   4  26
ATOM     26  N   UNL     1       1.736  10.746   6.391  0.00  0.00    -0.342 N 
ATOM     27  H   UNL     1       2.059  10.691   7.304  0.00  0.00    +0.144 HD
ATOM     28  H   UNL     1       1.311  11.558   6.076  0.00  0.00    +0.144 HD
ENDBRANCH   4  26
BRANCH   3  29
ATOM     29  C   UNL     1       3.249   8.468   7.266  0.00  0.00    +0.144 C 
ATOM     30  N   UNL     1       3.046   9.417   8.129  0.00  0.00    -0.192 NA
BRANCH  30  31
ATOM     31  N   UNL     1       3.741   9.418   9.345  0.00  0.00    -0.253 N 
ATOM     32  C   UNL     1       4.796   8.429   9.613  0.00  0.00    +0.141 C 
ATOM     33  C   UNL     1       6.051   9.172  10.084  0.00  0.00    +0.105 C 
ATOM     34  N   UNL     1       5.706  10.035  11.222  0.00  0.00    -0.297 NA
ATOM     35  C   UNL     1       4.742  11.072  10.830  0.00  0.00    +0.105 C 
ATOM     36  C   UNL     1       3.438  10.411  10.387  0.00  0.00    +0.141 C 
BRANCH  34  37
ATOM     37  C   UNL     1       6.911  10.633  11.812  0.00  0.00    +0.112 C 
BRANCH  37  38
ATOM     38  C   UNL     1       6.546  11.318  13.131  0.00  0.00    +0.171 C 
BRANCH  38  39
ATOM     39  O   UNL     1       6.111  10.336  14.073  0.00  0.00    -0.394 OA
ATOM     40  H   UNL     1       5.863  10.700  14.934  0.00  0.00    +0.209 HD
ENDBRANCH  38  39
ENDBRANCH  37  38
ENDBRANCH  34  37
ENDBRANCH  30  31
ENDBRANCH   3  29
TORSDOF 9
