REMARK  Name = CHEMBL447331
REMARK  1 active torsions:
REMARK  status: ('A' for Active; 'I' for Inactive)
REMARK    1  A    between atoms: C_3  and  N_8
REMARK                            x       y       z     vdW  Elec       q    Type
REMARK                         _______ _______ _______ _____ _____    ______ ____
ROOT
ATOM      1  N   UNL     1       3.583   2.124  -0.021  0.00  0.00    -0.299 N 
ATOM      2  C   UNL     1       4.785   1.453   0.068  0.00  0.00    +0.134 A 
ATOM      3  C   UNL     1       6.006   2.160   0.173  0.00  0.00    +0.039 A 
ATOM      4  C   UNL     1       6.054   3.560   0.192  0.00  0.00    +0.020 A 
ATOM      5  C   UNL     1       7.251   4.194   0.295  0.00  0.00    -0.009 A 
ATOM      6  C   UNL     1       8.452   3.471   0.384  0.00  0.00    +0.034 A 
ATOM      7  C   UNL     1       8.428   2.086   0.367  0.00  0.00    +0.049 A 
ATOM      8  C   UNL     1       7.207   1.414   0.262  0.00  0.00    +0.053 A 
ATOM      9  N   UNL     1       7.135   0.073   0.242  0.00  0.00    -0.345 N 
ATOM     10  C   UNL     1       5.974  -0.529   0.143  0.00  0.00    +0.199 A 
ATOM     11  N   UNL     1       4.827   0.126   0.063  0.00  0.00    -0.222 NA
ATOM     12  N   UNL     1       9.262   4.616   0.461  0.00  0.00    -0.339 N 
ATOM     13  C   UNL     1       8.064   5.463   0.373  0.00  0.00    +0.138 C 
ATOM     14  H   UNL     1       3.571   3.091  -0.094  0.00  0.00    +0.154 HD
ATOM     15  H   UNL     1      10.215   4.780   0.539  0.00  0.00    +0.146 HD
ATOM     16  H   UNL     1       7.947  -0.453   0.301  0.00  0.00    +0.167 HD
ENDROOT
BRANCH   1  19
ATOM     17  C   UNL     1       1.088  -0.466   0.744  0.00  0.00    +0.003 A 
ATOM     18  C   UNL     1       2.277   0.238   0.731  0.00  0.00    +0.023 A 
ATOM     19  C   UNL     1       2.381   1.410  -0.007  0.00  0.00    +0.033 A 
ATOM     20  C   UNL     1       1.289   1.871  -0.730  0.00  0.00    +0.038 A 
ATOM     21  C   UNL     1       0.102   1.163  -0.713  0.00  0.00    +0.020 A 
ATOM     22  C   UNL     1       0.002  -0.004   0.023  0.00  0.00    +0.015 A 
ATOM     23 BR   UNL     1      -1.386   1.790  -1.697  0.00  0.00    -0.050 Br
ENDBRANCH   1  19
TORSDOF 1
