REMARK  Name = CHEMBL69629
REMARK  8 active torsions:
REMARK  status: ('A' for Active; 'I' for Inactive)
REMARK    1  A    between atoms: C_1  and  C_2
REMARK    2  A    between atoms: C_4  and  C_28
REMARK    3  A    between atoms: C_7  and  C_8
REMARK    4  A    between atoms: C_15  and  N_16
REMARK    5  A    between atoms: N_16  and  C_17
REMARK    6  A    between atoms: N_30  and  C_31
REMARK    7  A    between atoms: C_31  and  C_32
REMARK    8  A    between atoms: C_32  and  N_33
REMARK                            x       y       z     vdW  Elec       q    Type
REMARK                         _______ _______ _______ _____ _____    ______ ____
ROOT
ATOM      1  C   UNL     1      -0.530  -0.084   2.390  0.00  0.00    +0.039 C 
ATOM      2  C   UNL     1      -0.518  -1.103   3.317  0.00  0.00    +0.053 C 
ATOM      3  C   UNL     1      -0.205  -1.008   4.756  0.00  0.00    +0.067 A 
ATOM      4  C   UNL     1      -0.326  -2.305   5.276  0.00  0.00    +0.138 A 
ATOM      5  N   UNL     1      -0.090  -2.486   6.575  0.00  0.00    -0.220 NA
ATOM      6  C   UNL     1       0.247  -1.475   7.349  0.00  0.00    +0.225 A 
ATOM      7  N   UNL     1       0.371  -0.242   6.897  0.00  0.00    -0.220 NA
ATOM      8  C   UNL     1       0.156   0.037   5.612  0.00  0.00    +0.136 A 
ATOM      9  N   UNL     1      -0.687  -3.170   4.264  0.00  0.00    -0.266 N 
ATOM     10  C   UNL     1      -0.823  -2.528   3.091  0.00  0.00    +0.250 C 
ATOM     11  O   UNL     1      -1.137  -3.034   2.029  0.00  0.00    -0.270 OA
ATOM     12  H   UNL     1      -0.829  -4.122   4.385  0.00  0.00    +0.157 HD
ENDROOT
BRANCH   1  19
ATOM     13  C   UNL     1      -2.303   1.580   0.450  0.00  0.00    +0.046 C 
ATOM     14  C   UNL     1      -1.499   0.346   0.130  0.00  0.00    -0.025 A 
ATOM     15  C   UNL     1      -1.402  -0.273  -1.112  0.00  0.00    +0.036 A 
ATOM     16  C   UNL     1      -0.570  -1.367  -0.970  0.00  0.00    +0.102 A 
ATOM     17  N   UNL     1      -0.157  -1.425   0.336  0.00  0.00    -0.351 N 
ATOM     18  H   UNL     1       0.435  -2.095   0.713  0.00  0.00    +0.166 HD
ATOM     19  C   UNL     1      -0.716  -0.377   1.018  0.00  0.00    +0.043 A 
BRANCH  16  20
ATOM     20  C   UNL     1      -0.192  -2.306  -2.036  0.00  0.00    +0.260 C 
ATOM     21  O   UNL     1      -0.623  -2.152  -3.163  0.00  0.00    -0.269 OA
ATOM     22  N   UNL     1       0.632  -3.337  -1.765  0.00  0.00    -0.312 N 
ATOM     23  H   UNL     1       0.976  -3.460  -0.866  0.00  0.00    +0.149 HD
BRANCH  22  24
ATOM     24  C   UNL     1       1.008  -4.273  -2.827  0.00  0.00    +0.086 C 
BRANCH  24  25
ATOM     25  C   UNL     1       1.944  -5.342  -2.257  0.00  0.00    -0.060 C 
BRANCH  25  26
ATOM     26  N   UNL     1       2.321  -6.280  -3.323  0.00  0.00    +0.384 N 
ATOM     27  C   UNL     1       1.130  -7.010  -3.777  0.00  0.00    -0.050 C 
ATOM     28  C   UNL     1       1.526  -7.987  -4.887  0.00  0.00    +0.141 C 
ATOM     29  O   UNL     1       2.531  -8.877  -4.395  0.00  0.00    -0.383 OA
ATOM     30  C   UNL     1       3.704  -8.211  -3.918  0.00  0.00    +0.141 C 
ATOM     31  C   UNL     1       3.312  -7.235  -2.806  0.00  0.00    -0.050 C 
ATOM     32  H   UNL     1       2.718  -5.769  -4.096  0.00  0.00    -0.082 HD
ENDBRANCH  25  26
ENDBRANCH  24  25
ENDBRANCH  22  24
ENDBRANCH  16  20
ENDBRANCH   1  19
BRANCH   8  33
ATOM     33  N   UNL     1       0.286   1.331   5.137  0.00  0.00    -0.299 N 
ATOM     34  H   UNL     1       0.055   1.535   4.217  0.00  0.00    +0.154 HD
BRANCH  33  35
ATOM     35  C   UNL     1       0.751   2.344   5.983  0.00  0.00    +0.034 A 
ATOM     36  C   UNL     1       0.397   2.344   7.326  0.00  0.00    +0.026 A 
ATOM     37  C   UNL     1       0.857   3.345   8.160  0.00  0.00    +0.041 A 
ATOM     38  C   UNL     1       1.669   4.347   7.659  0.00  0.00    +0.142 A 
ATOM     39  C   UNL     1       2.024   4.349   6.319  0.00  0.00    +0.078 A 
ATOM     40  C   UNL     1       1.571   3.346   5.482  0.00  0.00    +0.046 A 
ATOM     41 CL   UNL     1       3.043   5.607   5.693  0.00  0.00    -0.081 Cl
ATOM     42  F   UNL     1       2.117   5.325   8.476  0.00  0.00    -0.204 F 
ENDBRANCH  33  35
ENDBRANCH   8  33
TORSDOF 7
