REMARK  Name = CHEMBL38199
REMARK  4 active torsions:
REMARK  status: ('A' for Active; 'I' for Inactive)
REMARK    1  A    between atoms: C_3  and  N_8
REMARK    2  A    between atoms: N_15  and  C_22
REMARK    3  A    between atoms: C_22  and  C_23
REMARK    4  A    between atoms: C_23  and  N_24
REMARK                            x       y       z     vdW  Elec       q    Type
REMARK                         _______ _______ _______ _____ _____    ______ ____
ROOT
ATOM      1  N   UNL     1       3.583   2.124  -0.021  0.00  0.00    -0.299 N 
ATOM      2  C   UNL     1       4.784   1.454   0.068  0.00  0.00    +0.134 A 
ATOM      3  C   UNL     1       6.009   2.163   0.173  0.00  0.00    +0.041 A 
ATOM      4  C   UNL     1       6.048   3.555   0.191  0.00  0.00    +0.025 A 
ATOM      5  C   UNL     1       7.274   4.202   0.297  0.00  0.00    +0.021 A 
ATOM      6  C   UNL     1       7.667   5.610   0.344  0.00  0.00    +0.143 A 
ATOM      7  N   UNL     1       8.963   5.658   0.448  0.00  0.00    -0.179 NA
ATOM      8  N   UNL     1       9.496   4.366   0.477  0.00  0.00    -0.265 N 
ATOM      9  C   UNL     1       8.473   3.454   0.385  0.00  0.00    +0.071 A 
ATOM     10  C   UNL     1       8.437   2.071   0.368  0.00  0.00    +0.056 A 
ATOM     11  C   UNL     1       7.212   1.413   0.262  0.00  0.00    +0.078 A 
ATOM     12  N   UNL     1       7.135   0.070   0.242  0.00  0.00    -0.235 NA
ATOM     13  C   UNL     1       5.973  -0.528   0.143  0.00  0.00    +0.223 A 
ATOM     14  N   UNL     1       4.826   0.129   0.063  0.00  0.00    -0.220 NA
ATOM     15  H   UNL     1       3.571   3.091  -0.094  0.00  0.00    +0.154 HD
ENDROOT
BRANCH   1  18
ATOM     16  C   UNL     1       1.088  -0.465   0.744  0.00  0.00    +0.003 A 
ATOM     17  C   UNL     1       2.277   0.238   0.732  0.00  0.00    +0.023 A 
ATOM     18  C   UNL     1       2.381   1.410  -0.007  0.00  0.00    +0.033 A 
ATOM     19  C   UNL     1       1.289   1.871  -0.730  0.00  0.00    +0.038 A 
ATOM     20  C   UNL     1       0.102   1.163  -0.713  0.00  0.00    +0.020 A 
ATOM     21  C   UNL     1       0.002  -0.004   0.024  0.00  0.00    +0.015 A 
ATOM     22 BR   UNL     1      -1.386   1.790  -1.697  0.00  0.00    -0.050 Br
ENDBRANCH   1  18
BRANCH   8  23
ATOM     23  C   UNL     1      10.920   4.038   0.587  0.00  0.00    +0.125 C 
BRANCH  23  24
ATOM     24  C   UNL     1      11.301   3.908   2.063  0.00  0.00    -0.055 C 
BRANCH  24  25
ATOM     25  N   UNL     1      12.728   3.578   2.173  0.00  0.00    +0.384 N 
ATOM     26  C   UNL     1      12.971   2.251   1.591  0.00  0.00    -0.050 C 
ATOM     27  C   UNL     1      14.459   1.910   1.707  0.00  0.00    +0.141 C 
ATOM     28  O   UNL     1      14.848   1.960   3.083  0.00  0.00    -0.383 OA
ATOM     29  C   UNL     1      14.609   3.227   3.701  0.00  0.00    +0.141 C 
ATOM     30  C   UNL     1      13.121   3.571   3.589  0.00  0.00    -0.050 C 
ATOM     31  H   UNL     1      13.272   4.268   1.676  0.00  0.00    -0.082 HD
ENDBRANCH  24  25
ENDBRANCH  23  24
ENDBRANCH   8  23
TORSDOF 4
