REMARK  Name = CHEMBL461811
REMARK  8 active torsions:
REMARK  status: ('A' for Active; 'I' for Inactive)
REMARK    1  A    between atoms: C_1  and  C_2
REMARK    2  A    between atoms: C_4  and  O_7
REMARK    3  A    between atoms: O_7  and  C_8
REMARK    4  A    between atoms: C_11  and  N_15
REMARK    5  A    between atoms: C_20  and  C_22
REMARK    6  A    between atoms: C_23  and  C_24
REMARK    7  A    between atoms: C_27  and  O_31
REMARK    8  A    between atoms: O_31  and  C_32
REMARK                            x       y       z     vdW  Elec       q    Type
REMARK                         _______ _______ _______ _____ _____    ______ ____
ROOT
ATOM      1  N   UNL     1       0.867  -8.275  -0.412  0.00  0.00    -0.298 N 
ATOM      2  C   UNL     1       0.065  -9.386  -0.624  0.00  0.00    +0.141 A 
ATOM      3  C   UNL     1       0.623 -10.637  -0.824  0.00  0.00    +0.079 A 
ATOM      4  C   UNL     1      -0.190 -11.772  -1.040  0.00  0.00    +0.084 A 
ATOM      5  C   UNL     1       0.496 -12.979  -1.231  0.00  0.00    +0.053 A 
ATOM      6  C   UNL     1       1.859 -12.997  -1.199  0.00  0.00    +0.065 A 
ATOM      7  S   UNL     1       2.270 -11.287  -0.895  0.00  0.00    -0.075 S 
ATOM      8  N   UNL     1      -1.529 -11.543  -1.035  0.00  0.00    -0.235 NA
ATOM      9  C   UNL     1      -2.014 -10.345  -0.842  0.00  0.00    +0.224 A 
ATOM     10  N   UNL     1      -1.264  -9.277  -0.633  0.00  0.00    -0.219 NA
ATOM     11  H   UNL     1       1.825  -8.382  -0.307  0.00  0.00    +0.154 HD
ENDROOT
BRANCH   1  15
ATOM     12  C   UNL     1      -0.838  -4.475  -0.231  0.00  0.00    +0.149 A 
ATOM     13  C   UNL     1       0.419  -4.645  -0.793  0.00  0.00    +0.049 A 
ATOM     14  C   UNL     1       0.984  -5.904  -0.853  0.00  0.00    +0.027 A 
ATOM     15  C   UNL     1       0.294  -7.000  -0.351  0.00  0.00    +0.034 A 
ATOM     16  C   UNL     1      -0.964  -6.830   0.212  0.00  0.00    +0.047 A 
ATOM     17  C   UNL     1      -1.526  -5.569   0.277  0.00  0.00    +0.085 A 
ATOM     18 CL   UNL     1      -3.096  -5.354   0.986  0.00  0.00    -0.080 Cl
BRANCH  12  19
ATOM     19  O   UNL     1      -1.394  -3.235  -0.172  0.00  0.00    -0.434 OA
BRANCH  19  23
ATOM     20  C   UNL     1      -0.026   1.403  -1.253  0.00  0.00    +0.089 C 
ATOM     21  C   UNL     1      -0.015  -0.088  -1.035  0.00  0.00    +0.138 A 
ATOM     22  C   UNL     1      -1.058  -0.833  -0.626  0.00  0.00    +0.114 A 
ATOM     23  C   UNL     1      -0.632  -2.177  -0.547  0.00  0.00    +0.260 A 
ATOM     24  N   UNL     1       0.626  -2.221  -0.901  0.00  0.00    -0.039 NA
ATOM     25  O   UNL     1       1.034  -0.903  -1.220  0.00  0.00    -0.356 OA
ENDBRANCH  19  23
ENDBRANCH  12  19
ENDBRANCH   1  15
BRANCH   6  26
ATOM     26  C   UNL     1       2.741 -14.112  -1.368  0.00  0.00    -0.057 C 
ATOM     27  C   UNL     1       3.465 -15.026  -1.507  0.00  0.00    -0.078 C 
BRANCH  27  28
ATOM     28  C   UNL     1       4.372 -16.172  -1.680  0.00  0.00    +0.134 C 
ATOM     29  C   UNL     1       4.125 -16.853  -3.050  0.00  0.00    +0.077 C 
ATOM     30  C   UNL     1       2.899 -17.749  -2.737  0.00  0.00    +0.194 C 
ATOM     31  C   UNL     1       3.160 -18.202  -1.285  0.00  0.00    +0.126 C 
ATOM     32  N   UNL     1       4.078 -17.218  -0.677  0.00  0.00    -0.300 NA
ATOM     33  H   UNL     1       4.927 -17.662  -0.359  0.00  0.00    +0.123 HD
BRANCH  30  34
ATOM     34  O   UNL     1       2.856 -18.872  -3.620  0.00  0.00    -0.446 OA
BRANCH  34  35
ATOM     35  C   UNL     1       1.640 -19.369  -3.919  0.00  0.00    +0.403 C 
ATOM     36  O   UNL     1       0.643 -18.862  -3.442  0.00  0.00    -0.226 OA
ATOM     37  N   UNL     1       1.529 -20.427  -4.745  0.00  0.00    -0.263 N 
ATOM     38  C   UNL     1       2.722 -21.061  -5.329  0.00  0.00    +0.139 C 
ATOM     39  C   UNL     1       2.638 -22.571  -5.082  0.00  0.00    +0.179 C 
ATOM     40  O   UNL     1       1.373 -23.053  -5.542  0.00  0.00    -0.377 OA
ATOM     41  C   UNL     1       0.249 -22.498  -4.855  0.00  0.00    +0.179 C 
ATOM     42  C   UNL     1       0.212 -20.987  -5.086  0.00  0.00    +0.139 C 
ENDBRANCH  34  35
ENDBRANCH  30  34
ENDBRANCH  27  28
ENDBRANCH   6  26
TORSDOF 7
