REMARK  Name = CHEMBL515082
REMARK  12 active torsions:
REMARK  status: ('A' for Active; 'I' for Inactive)
REMARK    1  A    between atoms: C_1  and  S_2
REMARK    2  A    between atoms: S_2  and  C_5
REMARK    3  A    between atoms: C_5  and  C_6
REMARK    4  A    between atoms: C_6  and  N_7
REMARK    5  A    between atoms: N_7  and  C_8
REMARK    6  A    between atoms: C_8  and  C_9
REMARK    7  A    between atoms: C_11  and  C_14
REMARK    8  A    between atoms: C_20  and  N_24
REMARK    9  A    between atoms: N_24  and  C_25
REMARK   10  A    between atoms: C_28  and  O_32
REMARK   11  A    between atoms: O_32  and  C_33
REMARK   12  A    between atoms: C_33  and  C_34
REMARK                            x       y       z     vdW  Elec       q    Type
REMARK                         _______ _______ _______ _____ _____    ______ ____
ROOT
ATOM      1  C   UNL     1       5.737  -5.291  -5.961  0.00  0.00    +0.002 A 
ATOM      2  C   UNL     1       6.613  -5.266  -4.865  0.00  0.00    +0.012 A 
ATOM      3  C   UNL     1       7.959  -5.205  -5.047  0.00  0.00    +0.029 A 
ATOM      4  C   UNL     1       8.488  -5.168  -6.346  0.00  0.00    +0.076 A 
ATOM      5  C   UNL     1       7.612  -5.193  -7.459  0.00  0.00    +0.041 A 
ATOM      6  C   UNL     1       6.231  -5.260  -7.255  0.00  0.00    +0.023 A 
ATOM      7  C   UNL     1       8.178  -5.154  -8.758  0.00  0.00    +0.134 A 
ATOM      8  N   UNL     1       9.499  -5.096  -8.864  0.00  0.00    -0.220 NA
ATOM      9  C   UNL     1      10.278  -5.074  -7.794  0.00  0.00    +0.223 A 
ATOM     10  N   UNL     1       9.810  -5.108  -6.569  0.00  0.00    -0.235 NA
ENDROOT
BRANCH   1  13
ATOM     11  C   UNL     1       2.461  -5.347  -4.324  0.00  0.00    +0.062 A 
ATOM     12  N   UNL     1       3.753  -5.289  -4.516  0.00  0.00    -0.246 NA
ATOM     13  C   UNL     1       4.273  -5.356  -5.733  0.00  0.00    +0.078 A 
ATOM     14  C   UNL     1       3.388  -5.489  -6.769  0.00  0.00    +0.075 A 
ATOM     15  S   UNL     1       1.840  -5.513  -5.879  0.00  0.00    -0.082 S 
BRANCH  11  16
ATOM     16  C   UNL     1       1.708  -5.287  -3.020  0.00  0.00    -0.019 C 
BRANCH  16  17
ATOM     17  N   UNL     1       1.379  -3.889  -2.709  0.00  0.00    +0.384 N 
ATOM     18  H   UNL     1       0.806  -3.506  -3.446  0.00  0.00    -0.085 HD
ATOM     19  H   UNL     1       2.230  -3.353  -2.631  0.00  0.00    -0.085 HD
BRANCH  17  20
ATOM     20  C   UNL     1       0.645  -3.830  -1.438  0.00  0.00    -0.059 C 
BRANCH  20  21
ATOM     21  C   UNL     1       0.302  -2.375  -1.114  0.00  0.00    +0.146 C 
BRANCH  21  23
ATOM     22  C   UNL     1      -0.912  -0.526   0.659  0.00  0.00    +0.193 C 
ATOM     23  S   UNL     1      -0.605  -2.302   0.456  0.00  0.00    -0.036 S 
ATOM     24  O   UNL     1       0.264  -2.729   1.496  0.00  0.00    -0.175 OA
ATOM     25  O   UNL     1      -1.853  -2.958   0.284  0.00  0.00    -0.175 OA
ENDBRANCH  21  23
ENDBRANCH  20  21
ENDBRANCH  17  20
ENDBRANCH  16  17
ENDBRANCH  11  16
ENDBRANCH   1  13
BRANCH   7  26
ATOM     26  N   UNL     1       7.377  -5.176  -9.880  0.00  0.00    -0.299 N 
ATOM     27  H   UNL     1       6.413  -5.135  -9.789  0.00  0.00    +0.154 HD
BRANCH  26  28
ATOM     28  C   UNL     1       7.957  -5.259 -11.152  0.00  0.00    +0.034 A 
ATOM     29  C   UNL     1       7.382  -4.586 -12.223  0.00  0.00    +0.027 A 
ATOM     30  C   UNL     1       7.954  -4.668 -13.477  0.00  0.00    +0.049 A 
ATOM     31  C   UNL     1       9.103  -5.421 -13.668  0.00  0.00    +0.139 A 
ATOM     32  C   UNL     1       9.679  -6.094 -12.599  0.00  0.00    +0.084 A 
ATOM     33  C   UNL     1       9.110  -6.008 -11.342  0.00  0.00    +0.047 A 
ATOM     34 CL   UNL     1      11.116  -7.037 -12.839  0.00  0.00    -0.080 Cl
BRANCH  31  35
ATOM     35  O   UNL     1       9.665  -5.502 -14.904  0.00  0.00    -0.486 OA
BRANCH  35  36
ATOM     36  C   UNL     1       9.020  -4.785 -15.958  0.00  0.00    +0.264 C 
BRANCH  36  37
ATOM     37  C   UNL     1       9.779  -4.990 -17.243  0.00  0.00    -0.010 A 
ATOM     38  C   UNL     1      10.802  -4.126 -17.587  0.00  0.00    +0.007 A 
ATOM     39  C   UNL     1      11.499  -4.314 -18.766  0.00  0.00    +0.000 A 
ATOM     40  C   UNL     1      11.173  -5.367 -19.601  0.00  0.00    +0.000 A 
ATOM     41  C   UNL     1      10.150  -6.231 -19.257  0.00  0.00    +0.000 A 
ATOM     42  C   UNL     1       9.457  -6.045 -18.076  0.00  0.00    +0.007 A 
ENDBRANCH  36  37
ENDBRANCH  35  36
ENDBRANCH  31  35
ENDBRANCH  26  28
ENDBRANCH   7  26
TORSDOF 11
