REMARK  Name = CHEMBL250524
REMARK  11 active torsions:
REMARK  status: ('A' for Active; 'I' for Inactive)
REMARK    1  A    between atoms: C_1  and  C_2
REMARK    2  A    between atoms: C_2  and  C_3
REMARK    3  A    between atoms: C_2  and  C_4
REMARK    4  A    between atoms: C_2  and  N_20
REMARK    5  A    between atoms: C_5  and  C_6
REMARK    6  A    between atoms: C_9  and  O_18
REMARK    7  A    between atoms: C_10  and  O_16
REMARK    8  A    between atoms: O_16  and  C_17
REMARK    9  A    between atoms: O_18  and  C_19
REMARK   10  A    between atoms: N_20  and  C_21
REMARK   11  A    between atoms: N_20  and  C_22
REMARK                            x       y       z     vdW  Elec       q    Type
REMARK                         _______ _______ _______ _____ _____    ______ ____
ROOT
ATOM      1  C   UNL     1      -3.552  -1.082   1.179  0.00  0.00    +0.124 A 
ATOM      2  C   UNL     1      -4.517  -0.092   1.490  0.00  0.00    +0.038 A 
ATOM      3  C   UNL     1      -4.224   1.276   1.429  0.00  0.00    +0.062 A 
ATOM      4  C   UNL     1      -5.194   2.187   1.740  0.00  0.00    +0.162 A 
ATOM      5  C   UNL     1      -6.477   1.767   2.121  0.00  0.00    +0.164 A 
ATOM      6  C   UNL     1      -6.788   0.438   2.189  0.00  0.00    +0.077 A 
ATOM      7  C   UNL     1      -5.814  -0.519   1.874  0.00  0.00    +0.079 A 
ATOM      8  N   UNL     1      -6.070  -1.834   1.925  0.00  0.00    -0.235 NA
ATOM      9  C   UNL     1      -5.137  -2.707   1.625  0.00  0.00    +0.223 A 
ATOM     10  N   UNL     1      -3.916  -2.359   1.257  0.00  0.00    -0.227 NA
ENDROOT
BRANCH   1  12
ATOM     11  C   UNL     1      -1.136  -0.419   0.462  0.00  0.00    -0.070 C 
ATOM     12  C   UNL     1      -2.225  -0.718   0.785  0.00  0.00    -0.044 C 
BRANCH  11  14
ATOM     13  C   UNL     1       0.360   1.479   0.055  0.00  0.00    +0.045 C 
ATOM     14  C   UNL     1       0.229  -0.045   0.057  0.00  0.00    +0.091 C 
ATOM     15  C   UNL     1       1.235  -0.643   1.042  0.00  0.00    +0.045 C 
BRANCH  14  16
ATOM     16  N   UNL     1       0.497  -0.560  -1.288  0.00  0.00    -0.317 N 
ATOM     17  C   UNL     1       0.854   0.364  -2.368  0.00  0.00    +0.130 C 
BRANCH  16  18
ATOM     18  C   UNL     1       0.414  -1.931  -1.541  0.00  0.00    +0.031 A 
ATOM     19  C   UNL     1      -0.045  -2.794  -0.554  0.00  0.00    +0.023 A 
ATOM     20  C   UNL     1      -0.127  -4.149  -0.808  0.00  0.00    +0.002 A 
ATOM     21  C   UNL     1       0.248  -4.647  -2.042  0.00  0.00    +0.000 A 
ATOM     22  C   UNL     1       0.706  -3.791  -3.026  0.00  0.00    +0.002 A 
ATOM     23  C   UNL     1       0.785  -2.434  -2.781  0.00  0.00    +0.023 A 
ENDBRANCH  16  18
ENDBRANCH  14  16
ENDBRANCH  11  14
ENDBRANCH   1  12
BRANCH   5  24
ATOM     24  O   UNL     1      -7.423   2.693   2.425  0.00  0.00    -0.491 OA
ATOM     25  C   UNL     1      -8.711   2.205   2.806  0.00  0.00    +0.277 C 
ENDBRANCH   5  24
BRANCH   4  26
ATOM     26  O   UNL     1      -4.911   3.515   1.681  0.00  0.00    -0.491 OA
ATOM     27  C   UNL     1      -3.586   3.880   1.288  0.00  0.00    +0.277 C 
ENDBRANCH   4  26
TORSDOF 6
