REMARK  Name = CHEMBL7866
REMARK  8 active torsions:
REMARK  status: ('A' for Active; 'I' for Inactive)
REMARK    1  A    between atoms: C_1  and  O_2
REMARK    2  A    between atoms: O_2  and  C_3
REMARK    3  A    between atoms: C_7  and  O_9
REMARK    4  A    between atoms: C_12  and  C_20
REMARK    5  A    between atoms: N_14  and  C_15
REMARK    6  A    between atoms: C_15  and  C_16
REMARK    7  A    between atoms: C_16  and  O_18
REMARK    8  A    between atoms: O_18  and  C_19
REMARK                            x       y       z     vdW  Elec       q    Type
REMARK                         _______ _______ _______ _____ _____    ______ ____
ROOT
ATOM      1  C   UNL     1       0.605  -0.607  -1.055  0.00  0.00    +0.126 A 
ATOM      2  C   UNL     1       0.650  -1.990  -1.121  0.00  0.00    +0.072 A 
ATOM      3  C   UNL     1       1.264  -2.613  -2.199  0.00  0.00    +0.060 A 
ATOM      4  C   UNL     1       1.833  -1.826  -3.219  0.00  0.00    +0.087 A 
ATOM      5  C   UNL     1       1.786  -0.429  -3.142  0.00  0.00    +0.133 A 
ATOM      6  C   UNL     1       1.166   0.172  -2.062  0.00  0.00    +0.091 A 
ATOM      7  C   UNL     1       2.465  -2.512  -4.356  0.00  0.00    +0.201 A 
ATOM      8  O   UNL     1       3.164  -1.912  -5.155  0.00  0.00    -0.286 OA
ATOM      9  C   UNL     1       2.214  -3.956  -4.484  0.00  0.00    +0.046 A 
ATOM     10  C   UNL     1       1.650  -4.620  -3.435  0.00  0.00    +0.099 A 
ATOM     11  N   UNL     1       1.325  -3.987  -2.282  0.00  0.00    -0.335 N 
ENDROOT
BRANCH   9  12
ATOM     12  C   UNL     1       2.568  -4.677  -5.730  0.00  0.00    -0.011 A 
ATOM     13  C   UNL     1       3.553  -5.663  -5.713  0.00  0.00    +0.009 A 
ATOM     14  C   UNL     1       3.879  -6.331  -6.875  0.00  0.00    +0.002 A 
ATOM     15  C   UNL     1       3.230  -6.024  -8.058  0.00  0.00    +0.020 A 
ATOM     16  C   UNL     1       2.252  -5.045  -8.082  0.00  0.00    +0.042 A 
ATOM     17  C   UNL     1       1.914  -4.374  -6.923  0.00  0.00    +0.028 A 
ATOM     18 CL   UNL     1       1.443  -4.664  -9.571  0.00  0.00    -0.084 Cl
ENDBRANCH   9  12
BRANCH   1  20
ATOM     19  C   UNL     1      -0.017   1.425   0.010  0.00  0.00    +0.277 C 
ATOM     20  O   UNL     1       0.002  -0.004   0.002  0.00  0.00    -0.495 OA
ENDBRANCH   1  20
BRANCH   5  21
ATOM     21  O   UNL     1       2.340   0.330  -4.122  0.00  0.00    -0.506 OA
ATOM     22  H   UNL     1       1.732   0.548  -4.841  0.00  0.00    +0.292 HD
ENDBRANCH   5  21
BRANCH  11  23
ATOM     23  C   UNL     1       1.029  -4.787  -1.091  0.00  0.00    +0.242 C 
BRANCH  23  24
ATOM     24  C   UNL     1      -0.445  -5.099  -1.049  0.00  0.00    +0.327 C 
ATOM     25  O   UNL     1      -1.173  -4.696  -1.924  0.00  0.00    -0.249 OA
BRANCH  24  26
ATOM     26  O   UNL     1      -0.949  -5.826  -0.039  0.00  0.00    -0.467 OA
ATOM     27  C   UNL     1      -2.354  -6.084  -0.063  0.00  0.00    +0.280 C 
ENDBRANCH  24  26
ENDBRANCH  23  24
ENDBRANCH  11  23
TORSDOF 6
