REMARK  Name = CHEMBL378370
REMARK  7 active torsions:
REMARK  status: ('A' for Active; 'I' for Inactive)
REMARK    1  A    between atoms: C_1  and  N_2
REMARK    2  A    between atoms: N_2  and  C_3
REMARK    3  A    between atoms: N_2  and  C_25
REMARK    4  A    between atoms: C_3  and  C_4
REMARK    5  A    between atoms: C_9  and  O_10
REMARK    6  A    between atoms: O_10  and  C_11
REMARK    7  A    between atoms: N_16  and  C_17
REMARK                            x       y       z     vdW  Elec       q    Type
REMARK                         _______ _______ _______ _____ _____    ______ ____
ROOT
ATOM      1  C   UNL     1       2.229  -0.424  -1.810  0.00  0.00    -0.021 A 
ATOM      2  C   UNL     1       2.606   0.792  -2.294  0.00  0.00    +0.018 A 
ATOM      3  C   UNL     1       3.961   1.140  -2.318  0.00  0.00    +0.041 A 
ATOM      4  C   UNL     1       4.933   0.225  -1.841  0.00  0.00    +0.079 A 
ATOM      5  C   UNL     1       4.522  -1.018  -1.349  0.00  0.00    +0.074 A 
ATOM      6  C   UNL     1       3.179  -1.330  -1.331  0.00  0.00    +0.123 A 
ATOM      7  N   UNL     1       6.227   0.583  -1.875  0.00  0.00    -0.235 NA
ATOM      8  C   UNL     1       6.580   1.756  -2.342  0.00  0.00    +0.223 A 
ATOM      9  N   UNL     1       5.709   2.642  -2.798  0.00  0.00    -0.220 NA
ATOM     10  C   UNL     1       4.406   2.390  -2.810  0.00  0.00    +0.134 A 
ATOM     11  N   UNL     1       3.509   3.323  -3.289  0.00  0.00    -0.297 N 
ATOM     12  H   UNL     1       2.555   3.166  -3.205  0.00  0.00    +0.154 HD
ENDROOT
BRANCH  11  13
ATOM     13  C   UNL     1       3.975   4.494  -3.896  0.00  0.00    +0.070 A 
ATOM     14  C   UNL     1       5.278   4.561  -4.371  0.00  0.00    +0.026 A 
ATOM     15  C   UNL     1       5.735   5.719  -4.970  0.00  0.00    +0.003 A 
ATOM     16  C   UNL     1       4.898   6.812  -5.098  0.00  0.00    +0.023 A 
ATOM     17  C   UNL     1       3.598   6.751  -4.626  0.00  0.00    +0.078 A 
ATOM     18  C   UNL     1       3.132   5.592  -4.029  0.00  0.00    +0.163 A 
ATOM     19  F   UNL     1       1.862   5.530  -3.573  0.00  0.00    -0.202 F 
ATOM     20 CL   UNL     1       2.551   8.126  -4.787  0.00  0.00    -0.081 Cl
ENDBRANCH  11  13
BRANCH   6  21
ATOM     21  O   UNL     1       2.776  -2.534  -0.850  0.00  0.00    -0.495 OA
ATOM     22  C   UNL     1       3.794  -3.417  -0.375  0.00  0.00    +0.277 C 
ENDBRANCH   6  21
BRANCH   1  23
ATOM     23  C   UNL     1       0.769  -0.795  -1.785  0.00  0.00    -0.039 C 
BRANCH  23  25
ATOM     24  C   UNL     1       0.278   0.840  -0.100  0.00  0.00    -0.095 C 
ATOM     25  N   UNL     1       0.234  -0.590  -0.432  0.00  0.00    +0.388 N 
ATOM     26  H   UNL     1       0.792  -1.107   0.231  0.00  0.00    -0.081 HD
BRANCH  25  27
ATOM     27  C   UNL     1      -1.155  -1.064  -0.377  0.00  0.00    +0.021 C 
ATOM     28  C   UNL     1      -1.711  -0.946   1.061  0.00  0.00    +0.012 C 
ATOM     29  C   UNL     1      -1.426  -2.356   1.625  0.00  0.00    +0.103 C 
ATOM     30  N   UNL     1      -1.380  -3.243   0.456  0.00  0.00    -0.317 N 
ATOM     31  C   UNL     1      -1.222  -2.544  -0.681  0.00  0.00    +0.200 C 
ATOM     32  O   UNL     1      -1.146  -3.030  -1.790  0.00  0.00    -0.278 OA
ATOM     33  H   UNL     1      -1.453  -4.209   0.499  0.00  0.00    +0.149 HD
ENDBRANCH  25  27
ENDBRANCH  23  25
ENDBRANCH   1  23
TORSDOF 5
