REMARK  Name = CHEMBL378370
REMARK  7 active torsions:
REMARK  status: ('A' for Active; 'I' for Inactive)
REMARK    1  A    between atoms: C_1  and  N_2
REMARK    2  A    between atoms: N_2  and  C_3
REMARK    3  A    between atoms: N_2  and  C_25
REMARK    4  A    between atoms: C_3  and  C_4
REMARK    5  A    between atoms: C_9  and  O_10
REMARK    6  A    between atoms: O_10  and  C_11
REMARK    7  A    between atoms: N_16  and  C_17
REMARK                            x       y       z     vdW  Elec       q    Type
REMARK                         _______ _______ _______ _____ _____    ______ ____
ROOT
ATOM      1  C   UNL     1      -0.173  -0.489   2.461  0.00  0.00    +0.009 A 
ATOM      2  C   UNL     1       0.329   0.602   3.105  0.00  0.00    +0.022 A 
ATOM      3  C   UNL     1      -0.238   1.016   4.316  0.00  0.00    +0.041 A 
ATOM      4  C   UNL     1      -1.332   0.300   4.864  0.00  0.00    +0.079 A 
ATOM      5  C   UNL     1      -1.831  -0.817   4.184  0.00  0.00    +0.074 A 
ATOM      6  C   UNL     1      -1.255  -1.198   2.991  0.00  0.00    +0.127 A 
ATOM      7  N   UNL     1      -1.859   0.717   6.026  0.00  0.00    -0.235 NA
ATOM      8  C   UNL     1      -1.368   1.768   6.638  0.00  0.00    +0.223 A 
ATOM      9  N   UNL     1      -0.349   2.468   6.165  0.00  0.00    -0.220 NA
ATOM     10  C   UNL     1       0.245   2.141   5.024  0.00  0.00    +0.134 A 
ATOM     11  N   UNL     1       1.306   2.879   4.542  0.00  0.00    -0.297 N 
ATOM     12  H   UNL     1       1.674   2.685   3.666  0.00  0.00    +0.154 HD
ENDROOT
BRANCH  11  13
ATOM     13  C   UNL     1       1.852   3.908   5.318  0.00  0.00    +0.070 A 
ATOM     14  C   UNL     1       1.718   3.885   6.699  0.00  0.00    +0.026 A 
ATOM     15  C   UNL     1       2.258   4.901   7.463  0.00  0.00    +0.003 A 
ATOM     16  C   UNL     1       2.933   5.943   6.854  0.00  0.00    +0.023 A 
ATOM     17  C   UNL     1       3.071   5.971   5.477  0.00  0.00    +0.078 A 
ATOM     18  C   UNL     1       2.536   4.953   4.707  0.00  0.00    +0.163 A 
ATOM     19  F   UNL     1       2.675   4.978   3.363  0.00  0.00    -0.202 F 
ATOM     20 CL   UNL     1       3.919   7.281   4.717  0.00  0.00    -0.081 Cl
ENDBRANCH  11  13
BRANCH   6  21
ATOM     21  O   UNL     1      -1.740  -2.278   2.326  0.00  0.00    -0.495 OA
ATOM     22  C   UNL     1      -2.846  -2.961   2.918  0.00  0.00    +0.277 C 
ENDBRANCH   6  21
BRANCH   1  23
ATOM     23  C   UNL     1       0.440  -0.932   1.158  0.00  0.00    +0.123 C 
BRANCH  23  25
ATOM     24  C   UNL     1      -0.352   1.017  -0.040  0.00  0.00    +0.106 C 
ATOM     25  N   UNL     1      -0.382  -0.449   0.040  0.00  0.00    -0.290 NA
BRANCH  25  26
ATOM     26  C   UNL     1       0.046  -1.055  -1.228  0.00  0.00    +0.145 C 
ATOM     27  C   UNL     1      -0.902  -0.635  -2.375  0.00  0.00    +0.047 C 
ATOM     28  C   UNL     1      -1.910  -1.806  -2.394  0.00  0.00    +0.106 C 
ATOM     29  N   UNL     1      -1.188  -2.953  -1.833  0.00  0.00    -0.314 N 
ATOM     30  C   UNL     1      -0.088  -2.560  -1.167  0.00  0.00    +0.230 C 
ATOM     31  O   UNL     1       0.684  -3.304  -0.601  0.00  0.00    -0.274 OA
ATOM     32  H   UNL     1      -1.468  -3.877  -1.929  0.00  0.00    +0.149 HD
ENDBRANCH  25  26
ENDBRANCH  23  25
ENDBRANCH   1  23
TORSDOF 5
