REMARK  Name = CHEMBL256297
REMARK  8 active torsions:
REMARK  status: ('A' for Active; 'I' for Inactive)
REMARK    1  A    between atoms: C_1  and  O_2
REMARK    2  A    between atoms: O_2  and  N_3
REMARK    3  A    between atoms: C_4  and  C_5
REMARK    4  A    between atoms: C_10  and  N_11
REMARK    5  A    between atoms: N_11  and  C_12
REMARK    6  A    between atoms: C_15  and  O_19
REMARK    7  A    between atoms: O_19  and  C_20
REMARK    8  A    between atoms: C_20  and  C_21
REMARK                            x       y       z     vdW  Elec       q    Type
REMARK                         _______ _______ _______ _____ _____    ______ ____
ROOT
ATOM      1  C   UNL     1       1.422  -6.019  -2.056  0.00  0.00    +0.034 A 
ATOM      2  C   UNL     1       2.083  -6.437  -3.204  0.00  0.00    +0.027 A 
ATOM      3  C   UNL     1       2.388  -7.773  -3.378  0.00  0.00    +0.049 A 
ATOM      4  C   UNL     1       2.034  -8.697  -2.406  0.00  0.00    +0.139 A 
ATOM      5  C   UNL     1       1.374  -8.281  -1.258  0.00  0.00    +0.084 A 
ATOM      6  C   UNL     1       1.073  -6.944  -1.081  0.00  0.00    +0.047 A 
ATOM      7 CL   UNL     1       0.932  -9.440  -0.043  0.00  0.00    -0.080 Cl
ENDROOT
BRANCH   1   8
ATOM      8  N   UNL     1       1.113  -4.665  -1.879  0.00  0.00    -0.299 N 
ATOM      9  H   UNL     1       1.109  -4.281  -0.989  0.00  0.00    +0.154 HD
BRANCH   8  15
ATOM     10  C   UNL     1       0.609  -2.492  -2.825  0.00  0.00    +0.076 A 
ATOM     11  C   UNL     1       0.313  -1.741  -3.978  0.00  0.00    +0.130 A 
ATOM     12  N   UNL     1       0.234  -2.368  -5.148  0.00  0.00    -0.220 NA
ATOM     13  C   UNL     1       0.428  -3.668  -5.237  0.00  0.00    +0.225 A 
ATOM     14  N   UNL     1       0.708  -4.413  -4.187  0.00  0.00    -0.220 NA
ATOM     15  C   UNL     1       0.814  -3.876  -2.974  0.00  0.00    +0.137 A 
ATOM     16  N   UNL     1       0.107  -0.377  -3.895  0.00  0.00    -0.342 N 
ATOM     17  H   UNL     1       0.257   0.086  -3.056  0.00  0.00    +0.144 HD
ATOM     18  H   UNL     1      -0.188   0.117  -4.676  0.00  0.00    +0.144 HD
BRANCH  10  20
ATOM     19  N   UNL     1       0.620  -0.560  -1.404  0.00  0.00    -0.093 NA
ATOM     20  C   UNL     1       0.708  -1.849  -1.505  0.00  0.00    +0.167 C 
BRANCH  19  22
ATOM     21  C   UNL     1       0.602   1.483  -0.172  0.00  0.00    +0.313 C 
ATOM     22  O   UNL     1       0.715   0.059  -0.134  0.00  0.00    -0.397 OA
ENDBRANCH  19  22
ENDBRANCH  10  20
ENDBRANCH   8  15
ENDBRANCH   1   8
BRANCH   4  23
ATOM     23  O   UNL     1       2.335 -10.013  -2.579  0.00  0.00    -0.486 OA
BRANCH  23  24
ATOM     24  C   UNL     1       3.015 -10.370  -3.783  0.00  0.00    +0.264 C 
BRANCH  24  25
ATOM     25  C   UNL     1       3.262 -11.857  -3.799  0.00  0.00    -0.008 A 
ATOM     26  C   UNL     1       4.426 -12.370  -3.256  0.00  0.00    +0.007 A 
ATOM     27  C   UNL     1       4.653 -13.733  -3.269  0.00  0.00    +0.003 A 
ATOM     28  C   UNL     1       3.718 -14.585  -3.825  0.00  0.00    +0.038 A 
ATOM     29  C   UNL     1       2.552 -14.073  -4.369  0.00  0.00    +0.124 A 
ATOM     30  C   UNL     1       2.322 -12.707  -4.349  0.00  0.00    +0.045 A 
ATOM     31  F   UNL     1       1.637 -14.905  -4.913  0.00  0.00    -0.205 F 
ENDBRANCH  24  25
ENDBRANCH  23  24
ENDBRANCH   4  23
TORSDOF 7
