REMARK  Name = CHEMBL31656
REMARK  8 active torsions:
REMARK  status: ('A' for Active; 'I' for Inactive)
REMARK    1  A    between atoms: C_2  and  C_3
REMARK    2  A    between atoms: C_7  and  O_25
REMARK    3  A    between atoms: C_12  and  N_16
REMARK    4  A    between atoms: N_16  and  C_17
REMARK    5  A    between atoms: O_25  and  C_26
REMARK    6  A    between atoms: C_26  and  C_27
REMARK    7  A    between atoms: C_27  and  C_28
REMARK    8  A    between atoms: C_28  and  N_29
REMARK                            x       y       z     vdW  Elec       q    Type
REMARK                         _______ _______ _______ _____ _____    ______ ____
ROOT
ATOM      1  C   UNL     1       1.365  -0.716  -0.912  0.00  0.00    +0.242 C 
ATOM      2  O   UNL     1       2.394  -0.095  -0.724  0.00  0.00    -0.270 OA
ATOM      3  N   UNL     1       1.382  -2.063  -0.911  0.00  0.00    -0.264 N 
ATOM      4  C   UNL     1       2.576  -2.744  -0.694  0.00  0.00    +0.168 A 
ATOM      5  C   UNL     1       2.578  -4.152  -0.702  0.00  0.00    +0.162 A 
ATOM      6  C   UNL     1       3.747  -4.832  -0.490  0.00  0.00    +0.079 A 
ATOM      7  C   UNL     1       4.917  -4.086  -0.269  0.00  0.00    +0.098 A 
ATOM      8  C   UNL     1       4.845  -2.673  -0.275  0.00  0.00    +0.131 A 
ATOM      9  N   UNL     1       3.681  -2.059  -0.492  0.00  0.00    -0.223 NA
ATOM     10  C   UNL     1       6.040  -1.947  -0.050  0.00  0.00    +0.152 A 
ATOM     11  N   UNL     1       7.160  -2.627   0.153  0.00  0.00    -0.218 NA
ATOM     12  C   UNL     1       7.178  -3.950   0.149  0.00  0.00    +0.224 A 
ATOM     13  N   UNL     1       6.102  -4.674  -0.054  0.00  0.00    -0.234 NA
ATOM     14  H   UNL     1       0.562  -2.558  -1.062  0.00  0.00    +0.157 HD
ENDROOT
BRANCH   1  16
ATOM     15  C   UNL     1       0.087   1.334  -1.143  0.00  0.00    +0.013 C 
ATOM     16  C   UNL     1       0.103   0.004  -1.142  0.00  0.00    +0.060 C 
ENDBRANCH   1  16
BRANCH  10  17
ATOM     17  N   UNL     1       6.040  -0.566  -0.043  0.00  0.00    -0.298 N 
ATOM     18  H   UNL     1       5.202  -0.081  -0.109  0.00  0.00    +0.154 HD
BRANCH  17  19
ATOM     19  C   UNL     1       7.246   0.134   0.060  0.00  0.00    +0.034 A 
ATOM     20  C   UNL     1       7.301   1.326   0.772  0.00  0.00    +0.026 A 
ATOM     21  C   UNL     1       8.493   2.015   0.873  0.00  0.00    +0.041 A 
ATOM     22  C   UNL     1       9.634   1.520   0.265  0.00  0.00    +0.142 A 
ATOM     23  C   UNL     1       9.583   0.332  -0.446  0.00  0.00    +0.078 A 
ATOM     24  C   UNL     1       8.393  -0.364  -0.544  0.00  0.00    +0.046 A 
ATOM     25 CL   UNL     1      11.015  -0.286  -1.208  0.00  0.00    -0.081 Cl
ATOM     26  F   UNL     1      10.799   2.197   0.364  0.00  0.00    -0.204 F 
ENDBRANCH  17  19
ENDBRANCH  10  17
BRANCH   5  27
ATOM     27  O   UNL     1       1.423  -4.833  -0.919  0.00  0.00    -0.488 OA
BRANCH  27  28
ATOM     28  C   UNL     1       1.501  -6.260  -0.913  0.00  0.00    +0.230 C 
BRANCH  28  29
ATOM     29  C   UNL     1       0.112  -6.848  -1.172  0.00  0.00    +0.056 C 
BRANCH  29  30
ATOM     30  C   UNL     1       0.195  -8.375  -1.165  0.00  0.00    +0.088 C 
BRANCH  30  31
ATOM     31  N   UNL     1      -1.138  -8.939  -1.415  0.00  0.00    -0.298 NA
ATOM     32  C   UNL     1      -2.053  -8.641  -0.303  0.00  0.00    +0.112 C 
ATOM     33  C   UNL     1      -3.442  -9.194  -0.630  0.00  0.00    +0.175 C 
ATOM     34  O   UNL     1      -3.343 -10.597  -0.888  0.00  0.00    -0.377 OA
ATOM     35  C   UNL     1      -2.461 -10.924  -1.965  0.00  0.00    +0.175 C 
ATOM     36  C   UNL     1      -1.061 -10.388  -1.651  0.00  0.00    +0.112 C 
ENDBRANCH  30  31
ENDBRANCH  29  30
ENDBRANCH  28  29
ENDBRANCH  27  28
ENDBRANCH   5  27
TORSDOF 8
