REMARK  Name = CHEMBL149512
REMARK  2 active torsions:
REMARK  status: ('A' for Active; 'I' for Inactive)
REMARK    1  A    between atoms: C_10  and  N_14
REMARK    2  A    between atoms: N_14  and  C_15
REMARK                            x       y       z     vdW  Elec       q    Type
REMARK                         _______ _______ _______ _____ _____    ______ ____
ROOT
ATOM      1  C   UNL     1      -0.027   1.299  -0.851  0.00  0.00    +0.001 A 
ATOM      2  C   UNL     1       1.160   2.000  -0.995  0.00  0.00    +0.004 A 
ATOM      3  C   UNL     1       2.374   1.354  -0.895  0.00  0.00    +0.047 A 
ATOM      4  C   UNL     1       2.417  -0.013  -0.648  0.00  0.00    +0.138 A 
ATOM      5  C   UNL     1       1.214  -0.721  -0.503  0.00  0.00    +0.046 A 
ATOM      6  C   UNL     1      -0.005  -0.057  -0.606  0.00  0.00    +0.014 A 
ATOM      7  C   UNL     1       1.601  -2.120  -0.255  0.00  0.00    +0.122 A 
ATOM      8  C   UNL     1       3.001  -2.133  -0.272  0.00  0.00    +0.194 A 
ATOM      9  O   UNL     1       3.443  -0.880  -0.505  0.00  0.00    -0.450 OA
ATOM     10  C   UNL     1       3.647  -3.357  -0.060  0.00  0.00    +0.169 A 
ATOM     11  N   UNL     1       2.907  -4.442   0.147  0.00  0.00    -0.217 NA
ATOM     12  C   UNL     1       1.589  -4.382   0.155  0.00  0.00    +0.224 A 
ATOM     13  N   UNL     1       0.939  -3.253  -0.040  0.00  0.00    -0.231 NA
ENDROOT
BRANCH  10  14
ATOM     14  N   UNL     1       5.032  -3.435  -0.066  0.00  0.00    -0.296 N 
ATOM     15  H   UNL     1       5.563  -2.627  -0.134  0.00  0.00    +0.154 HD
BRANCH  14  16
ATOM     16  C   UNL     1       5.661  -4.680   0.026  0.00  0.00    +0.034 A 
ATOM     17  C   UNL     1       5.088  -5.796  -0.571  0.00  0.00    +0.023 A 
ATOM     18  C   UNL     1       5.712  -7.024  -0.478  0.00  0.00    +0.003 A 
ATOM     19  C   UNL     1       6.907  -7.145   0.208  0.00  0.00    +0.015 A 
ATOM     20  C   UNL     1       7.481  -6.035   0.804  0.00  0.00    +0.020 A 
ATOM     21  C   UNL     1       6.864  -4.802   0.710  0.00  0.00    +0.038 A 
ATOM     22 BR   UNL     1       9.114  -6.206   1.742  0.00  0.00    -0.050 Br
ENDBRANCH  14  16
ENDBRANCH  10  14
TORSDOF 2
