REMARK  Name = CHEMBL368234
REMARK  13 active torsions:
REMARK  status: ('A' for Active; 'I' for Inactive)
REMARK    1  A    between atoms: C_1  and  C_2
REMARK    2  A    between atoms: C_2  and  O_3
REMARK    3  A    between atoms: O_3  and  C_4
REMARK    4  A    between atoms: C_9  and  N_10
REMARK    5  A    between atoms: C_11  and  C_13
REMARK    6  A    between atoms: C_14  and  C_15
REMARK    7  A    between atoms: N_17  and  C_20
REMARK    8  A    between atoms: C_21  and  N_27
REMARK    9  A    between atoms: C_22  and  C_25
REMARK   10  A    between atoms: N_27  and  C_28
REMARK   11  A    between atoms: C_31  and  O_35
REMARK   12  A    between atoms: O_35  and  C_36
REMARK   13  A    between atoms: C_36  and  C_37
REMARK                            x       y       z     vdW  Elec       q    Type
REMARK                         _______ _______ _______ _____ _____    ______ ____
ROOT
ATOM      1  C   UNL     1       0.576  -3.769   2.151  0.00  0.00    +0.144 A 
ATOM      2  C   UNL     1       1.032  -4.087   0.893  0.00  0.00    +0.076 A 
ATOM      3  C   UNL     1       0.189  -4.757  -0.008  0.00  0.00    +0.076 A 
ATOM      4  C   UNL     1      -1.125  -5.096   0.395  0.00  0.00    +0.025 A 
ATOM      5  C   UNL     1      -1.572  -4.764   1.682  0.00  0.00    +0.039 A 
ATOM      6  C   UNL     1      -0.725  -4.111   2.550  0.00  0.00    +0.077 A 
ATOM      7  C   UNL     1      -1.970  -5.771  -0.517  0.00  0.00    +0.060 A 
ATOM      8  C   UNL     1      -1.455  -6.072  -1.787  0.00  0.00    +0.091 A 
ATOM      9  C   UNL     1      -0.139  -5.697  -2.101  0.00  0.00    +0.132 A 
ATOM     10  N   UNL     1       0.621  -5.074  -1.237  0.00  0.00    -0.253 NA
ENDROOT
BRANCH   6  11
ATOM     11  N   UNL     1      -1.167  -3.783   3.837  0.00  0.00    -0.279 N 
ATOM     12  C   UNL     1      -2.476  -3.556   4.063  0.00  0.00    +0.241 C 
ATOM     13  O   UNL     1      -3.288  -3.737   3.173  0.00  0.00    -0.270 OA
ATOM     14  H   UNL     1      -0.531  -3.719   4.567  0.00  0.00    +0.155 HD
BRANCH  12  15
ATOM     15  C   UNL     1      -2.909  -3.107   5.336  0.00  0.00    +0.070 C 
ATOM     16  C   UNL     1      -4.222  -2.880   5.562  0.00  0.00    +0.034 C 
BRANCH  16  17
ATOM     17  C   UNL     1      -4.670  -2.415   6.880  0.00  0.00    +0.082 A 
ATOM     18  C   UNL     1      -5.960  -2.151   7.250  0.00  0.00    +0.114 A 
ATOM     19  N   UNL     1      -5.921  -1.749   8.549  0.00  0.00    -0.339 N 
ATOM     20  C   UNL     1      -4.622  -1.772   8.948  0.00  0.00    +0.199 A 
ATOM     21  N   UNL     1      -3.879  -2.174   7.958  0.00  0.00    -0.236 NA
ATOM     22  C   UNL     1      -7.071  -1.359   9.368  0.00  0.00    +0.150 C 
ENDBRANCH  16  17
ENDBRANCH  12  15
ENDBRANCH   6  11
BRANCH   8  23
ATOM     23  C   UNL     1      -2.263  -6.755  -2.752  0.00  0.00    +0.103 C 
ATOM     24  N   UNL     1      -2.904  -7.296  -3.518  0.00  0.00    -0.191 NA
ENDBRANCH   8  23
BRANCH   7  25
ATOM     25  N   UNL     1      -3.259  -6.123  -0.169  0.00  0.00    -0.313 N 
ATOM     26  H   UNL     1      -3.966  -5.460  -0.194  0.00  0.00    +0.152 HD
BRANCH  25  27
ATOM     27  C   UNL     1      -3.544  -7.436   0.222  0.00  0.00    +0.033 A 
ATOM     28  C   UNL     1      -2.517  -8.281   0.621  0.00  0.00    +0.027 A 
ATOM     29  C   UNL     1      -2.799  -9.577   1.005  0.00  0.00    +0.049 A 
ATOM     30  C   UNL     1      -4.108 -10.036   0.993  0.00  0.00    +0.139 A 
ATOM     31  C   UNL     1      -5.136  -9.192   0.595  0.00  0.00    +0.084 A 
ATOM     32  C   UNL     1      -4.856  -7.893   0.215  0.00  0.00    +0.047 A 
ATOM     33 CL   UNL     1      -6.774  -9.766   0.580  0.00  0.00    -0.080 Cl
BRANCH  30  34
ATOM     34  O   UNL     1      -4.385 -11.312   1.371  0.00  0.00    -0.486 OA
BRANCH  34  35
ATOM     35  C   UNL     1      -3.279 -12.126   1.768  0.00  0.00    +0.264 C 
BRANCH  35  36
ATOM     36  C   UNL     1      -3.775 -13.496   2.150  0.00  0.00    -0.010 A 
ATOM     37  C   UNL     1      -4.146 -13.758   3.456  0.00  0.00    +0.007 A 
ATOM     38  C   UNL     1      -4.601 -15.016   3.806  0.00  0.00    +0.000 A 
ATOM     39  C   UNL     1      -4.686 -16.011   2.850  0.00  0.00    +0.000 A 
ATOM     40  C   UNL     1      -4.316 -15.749   1.544  0.00  0.00    +0.000 A 
ATOM     41  C   UNL     1      -3.865 -14.490   1.193  0.00  0.00    +0.007 A 
ENDBRANCH  35  36
ENDBRANCH  34  35
ENDBRANCH  30  34
ENDBRANCH  25  27
ENDBRANCH   7  25
BRANCH   1  42
ATOM     42  O   UNL     1       1.396  -3.120   3.019  0.00  0.00    -0.490 OA
BRANCH  42  44
ATOM     43  C   UNL     1       3.479  -2.077   3.661  0.00  0.00    +0.048 C 
ATOM     44  C   UNL     1       2.708  -2.799   2.554  0.00  0.00    +0.226 C 
ENDBRANCH  42  44
ENDBRANCH   1  42
TORSDOF 11
