REMARK  Name = CHEMBL69960
REMARK  5 active torsions:
REMARK  status: ('A' for Active; 'I' for Inactive)
REMARK    1  A    between atoms: C_1  and  C_2
REMARK    2  A    between atoms: C_4  and  C_28
REMARK    3  A    between atoms: C_7  and  C_8
REMARK    4  A    between atoms: C_15  and  N_16
REMARK    5  A    between atoms: N_16  and  C_17
REMARK                            x       y       z     vdW  Elec       q    Type
REMARK                         _______ _______ _______ _____ _____    ______ ____
ROOT
ATOM      1  C   UNL     1       1.882  -0.068   1.984  0.00  0.00    +0.039 C 
ATOM      2  C   UNL     1       2.034  -1.249   2.677  0.00  0.00    +0.053 C 
ATOM      3  C   UNL     1       1.983  -1.448   4.138  0.00  0.00    +0.067 A 
ATOM      4  C   UNL     1       2.193  -2.817   4.361  0.00  0.00    +0.138 A 
ATOM      5  N   UNL     1       2.193  -3.257   5.619  0.00  0.00    -0.220 NA
ATOM      6  C   UNL     1       2.000  -2.429   6.625  0.00  0.00    +0.225 A 
ATOM      7  N   UNL     1       1.799  -1.137   6.456  0.00  0.00    -0.220 NA
ATOM      8  C   UNL     1       1.783  -0.604   5.235  0.00  0.00    +0.136 A 
ATOM      9  N   UNL     1       2.367  -3.455   3.150  0.00  0.00    -0.266 N 
ATOM     10  C   UNL     1       2.279  -2.593   2.121  0.00  0.00    +0.250 C 
ATOM     11  O   UNL     1       2.385  -2.872   0.941  0.00  0.00    -0.270 OA
ATOM     12  H   UNL     1       2.528  -4.406   3.052  0.00  0.00    +0.157 HD
ENDROOT
BRANCH   1  19
ATOM     13  C   UNL     1       2.941   2.243   0.192  0.00  0.00    +0.046 C 
ATOM     14  C   UNL     1       2.332   0.940  -0.256  0.00  0.00    -0.025 A 
ATOM     15  C   UNL     1       2.138   0.531  -1.571  0.00  0.00    +0.036 A 
ATOM     16  C   UNL     1       1.554  -0.721  -1.538  0.00  0.00    +0.103 A 
ATOM     17  N   UNL     1       1.387  -1.083  -0.226  0.00  0.00    -0.351 N 
ATOM     18  H   UNL     1       1.000  -1.915   0.087  0.00  0.00    +0.166 HD
ATOM     19  C   UNL     1       1.867  -0.074   0.569  0.00  0.00    +0.043 A 
BRANCH  16  20
ATOM     20  C   UNL     1       1.174  -1.525  -2.708  0.00  0.00    +0.263 C 
ATOM     21  O   UNL     1       1.788  -1.408  -3.752  0.00  0.00    -0.268 OA
ATOM     22  N   UNL     1       0.146  -2.393  -2.625  0.00  0.00    -0.292 N 
ATOM     23  C   UNL     1      -0.682  -2.472  -1.411  0.00  0.00    +0.136 C 
ATOM     24  C   UNL     1      -2.155  -2.384  -1.825  0.00  0.00    +0.179 C 
ATOM     25  O   UNL     1      -2.419  -3.357  -2.838  0.00  0.00    -0.377 OA
ATOM     26  C   UNL     1      -1.679  -3.161  -4.045  0.00  0.00    +0.179 C 
ATOM     27  C   UNL     1      -0.184  -3.285  -3.747  0.00  0.00    +0.136 C 
ENDBRANCH  16  20
ENDBRANCH   1  19
BRANCH   8  28
ATOM     28  N   UNL     1       1.573   0.753   5.057  0.00  0.00    -0.299 N 
ATOM     29  H   UNL     1       1.533   1.124   4.162  0.00  0.00    +0.154 HD
BRANCH  28  30
ATOM     30  C   UNL     1       1.417   1.588   6.168  0.00  0.00    +0.034 A 
ATOM     31  C   UNL     1       2.093   1.308   7.349  0.00  0.00    +0.026 A 
ATOM     32  C   UNL     1       1.939   2.134   8.445  0.00  0.00    +0.041 A 
ATOM     33  C   UNL     1       1.111   3.241   8.368  0.00  0.00    +0.142 A 
ATOM     34  C   UNL     1       0.436   3.523   7.192  0.00  0.00    +0.078 A 
ATOM     35  C   UNL     1       0.592   2.702   6.091  0.00  0.00    +0.046 A 
ATOM     36 CL   UNL     1      -0.602   4.912   7.098  0.00  0.00    -0.081 Cl
ATOM     37  F   UNL     1       0.961   4.047   9.442  0.00  0.00    -0.204 F 
ENDBRANCH  28  30
ENDBRANCH   8  28
TORSDOF 4
