REMARK  Name = CHEMBL175840
REMARK  16 active torsions:
REMARK  status: ('A' for Active; 'I' for Inactive)
REMARK    1  A    between atoms: C_1  and  C_2
REMARK    2  A    between atoms: C_2  and  O_3
REMARK    3  A    between atoms: O_3  and  C_4
REMARK    4  A    between atoms: C_9  and  N_10
REMARK    5  A    between atoms: C_11  and  C_13
REMARK    6  A    between atoms: C_14  and  C_15
REMARK    7  A    between atoms: C_15  and  N_16
REMARK    8  A    between atoms: N_16  and  C_17
REMARK    9  A    between atoms: N_16  and  C_18
REMARK   10  A    between atoms: C_19  and  N_25
REMARK   11  A    between atoms: C_20  and  C_23
REMARK   12  A    between atoms: N_25  and  C_26
REMARK   13  A    between atoms: C_29  and  O_33
REMARK   14  A    between atoms: O_33  and  C_34
REMARK   15  A    between atoms: C_34  and  C_35
REMARK   16  A    between atoms: N_39  and  C_40
REMARK                            x       y       z     vdW  Elec       q    Type
REMARK                         _______ _______ _______ _____ _____    ______ ____
ROOT
ATOM      1  C   UNL     1       0.574  -3.770   2.153  0.00  0.00    +0.144 A 
ATOM      2  C   UNL     1       1.030  -4.089   0.895  0.00  0.00    +0.076 A 
ATOM      3  C   UNL     1       0.188  -4.758  -0.007  0.00  0.00    +0.076 A 
ATOM      4  C   UNL     1      -1.127  -5.096   0.395  0.00  0.00    +0.025 A 
ATOM      5  C   UNL     1      -1.574  -4.763   1.682  0.00  0.00    +0.039 A 
ATOM      6  C   UNL     1      -0.728  -4.112   2.551  0.00  0.00    +0.077 A 
ATOM      7  C   UNL     1      -1.972  -5.771  -0.517  0.00  0.00    +0.060 A 
ATOM      8  C   UNL     1      -1.456  -6.072  -1.787  0.00  0.00    +0.091 A 
ATOM      9  C   UNL     1      -0.139  -5.698  -2.100  0.00  0.00    +0.132 A 
ATOM     10  N   UNL     1       0.621  -5.075  -1.236  0.00  0.00    -0.253 NA
ENDROOT
BRANCH   6  11
ATOM     11  N   UNL     1      -1.170  -3.783   3.838  0.00  0.00    -0.279 N 
ATOM     12  C   UNL     1      -2.479  -3.556   4.063  0.00  0.00    +0.241 C 
ATOM     13  O   UNL     1      -3.289  -3.736   3.174  0.00  0.00    -0.271 OA
ATOM     14  H   UNL     1      -0.534  -3.719   4.568  0.00  0.00    +0.155 HD
BRANCH  12  15
ATOM     15  C   UNL     1      -2.929  -3.090   5.383  0.00  0.00    +0.064 C 
ATOM     16  C   UNL     1      -4.221  -2.866   5.605  0.00  0.00    -0.007 C 
BRANCH  16  17
ATOM     17  C   UNL     1      -4.681  -2.389   6.958  0.00  0.00    +0.111 C 
BRANCH  17  18
ATOM     18  N   UNL     1      -5.453  -1.148   6.804  0.00  0.00    -0.305 NA
ATOM     19  C   UNL     1      -6.705  -1.395   6.076  0.00  0.00    +0.104 C 
ATOM     20  C   UNL     1      -5.716  -0.526   8.108  0.00  0.00    +0.104 C 
ENDBRANCH  17  18
ENDBRANCH  16  17
ENDBRANCH  12  15
ENDBRANCH   6  11
BRANCH   8  21
ATOM     21  C   UNL     1      -2.264  -6.754  -2.753  0.00  0.00    +0.103 C 
ATOM     22  N   UNL     1      -2.905  -7.295  -3.519  0.00  0.00    -0.191 NA
ENDBRANCH   8  21
BRANCH   7  23
ATOM     23  N   UNL     1      -3.261  -6.121  -0.170  0.00  0.00    -0.313 N 
ATOM     24  H   UNL     1      -3.968  -5.458  -0.196  0.00  0.00    +0.152 HD
BRANCH  23  25
ATOM     25  C   UNL     1      -3.547  -7.434   0.221  0.00  0.00    +0.033 A 
ATOM     26  C   UNL     1      -2.521  -8.280   0.620  0.00  0.00    +0.027 A 
ATOM     27  C   UNL     1      -2.804  -9.576   1.006  0.00  0.00    +0.049 A 
ATOM     28  C   UNL     1      -4.114 -10.033   0.994  0.00  0.00    +0.139 A 
ATOM     29  C   UNL     1      -5.141  -9.188   0.594  0.00  0.00    +0.084 A 
ATOM     30  C   UNL     1      -4.859  -7.890   0.214  0.00  0.00    +0.047 A 
ATOM     31 CL   UNL     1      -6.779  -9.761   0.579  0.00  0.00    -0.080 Cl
BRANCH  28  32
ATOM     32  O   UNL     1      -4.392 -11.309   1.373  0.00  0.00    -0.483 OA
BRANCH  32  33
ATOM     33  C   UNL     1      -3.287 -12.122   1.772  0.00  0.00    +0.303 C 
BRANCH  33  34
ATOM     34  C   UNL     1      -3.784 -13.492   2.155  0.00  0.00    +0.147 A 
ATOM     35  N   UNL     1      -4.163 -13.857   3.349  0.00  0.00    -0.237 NA
ATOM     36  C   UNL     1      -4.543 -15.144   3.319  0.00  0.00    +0.130 A 
ATOM     37  C   UNL     1      -4.393 -15.592   2.058  0.00  0.00    +0.107 A 
ATOM     38  N   UNL     1      -3.917 -14.544   1.318  0.00  0.00    -0.335 N 
ATOM     39  C   UNL     1      -3.607 -14.560  -0.114  0.00  0.00    +0.150 C 
ENDBRANCH  33  34
ENDBRANCH  32  33
ENDBRANCH  28  32
ENDBRANCH  23  25
ENDBRANCH   7  23
BRANCH   1  40
ATOM     40  O   UNL     1       1.394  -3.122   3.021  0.00  0.00    -0.490 OA
BRANCH  40  42
ATOM     41  C   UNL     1       3.478  -2.080   3.664  0.00  0.00    +0.048 C 
ATOM     42  C   UNL     1       2.707  -2.802   2.557  0.00  0.00    +0.226 C 
ENDBRANCH  40  42
ENDBRANCH   1  40
TORSDOF 12
