REMARK  Name = CHEMBL404405
REMARK  9 active torsions:
REMARK  status: ('A' for Active; 'I' for Inactive)
REMARK    1  A    between atoms: C_5  and  C_7
REMARK    2  A    between atoms: C_7  and  O_8
REMARK    3  A    between atoms: O_8  and  C_9
REMARK    4  A    between atoms: C_12  and  N_16
REMARK    5  A    between atoms: C_23  and  O_24
REMARK    6  A    between atoms: O_24  and  C_25
REMARK    7  A    between atoms: C_25  and  C_26
REMARK    8  A    between atoms: C_26  and  N_27
REMARK    9  A    between atoms: C_30  and  O_33
REMARK                            x       y       z     vdW  Elec       q    Type
REMARK                         _______ _______ _______ _____ _____    ______ ____
ROOT
ATOM      1  N   UNL     1      -0.295  -7.901   0.130  0.00  0.00    -0.299 N 
ATOM      2  C   UNL     1      -1.604  -8.342   0.162  0.00  0.00    +0.141 A 
ATOM      3  C   UNL     1      -1.902  -9.716   0.171  0.00  0.00    +0.121 A 
ATOM      4  C   UNL     1      -3.254 -10.110   0.203  0.00  0.00    +0.164 A 
ATOM      5  N   UNL     1      -3.266 -11.472   0.205  0.00  0.00    -0.257 N 
ATOM      6  H   UNL     1      -4.062 -12.026   0.224  0.00  0.00    +0.191 HD
ATOM      7  N   UNL     1      -1.950 -11.947   0.174  0.00  0.00    -0.134 NA
ATOM      8  C   UNL     1      -1.114 -10.943   0.153  0.00  0.00    +0.246 A 
ATOM      9  N   UNL     1      -4.195  -9.166   0.225  0.00  0.00    -0.216 NA
ATOM     10  C   UNL     1      -3.868  -7.893   0.215  0.00  0.00    +0.225 A 
ATOM     11  N   UNL     1      -2.614  -7.477   0.190  0.00  0.00    -0.220 NA
ATOM     12  H   UNL     1       0.429  -8.539   0.033  0.00  0.00    +0.154 HD
ENDROOT
BRANCH   1  16
ATOM     13  C   UNL     1       0.542  -3.829   0.452  0.00  0.00    +0.139 A 
ATOM     14  C   UNL     1      -0.552  -4.367   1.114  0.00  0.00    +0.049 A 
ATOM     15  C   UNL     1      -0.830  -5.715   1.008  0.00  0.00    +0.027 A 
ATOM     16  C   UNL     1      -0.014  -6.534   0.237  0.00  0.00    +0.034 A 
ATOM     17  C   UNL     1       1.081  -5.995  -0.426  0.00  0.00    +0.047 A 
ATOM     18  C   UNL     1       1.355  -4.645  -0.323  0.00  0.00    +0.084 A 
ATOM     19 CL   UNL     1       2.720  -3.970  -1.157  0.00  0.00    -0.080 Cl
BRANCH  13  20
ATOM     20  O   UNL     1       0.815  -2.501   0.557  0.00  0.00    -0.484 OA
BRANCH  20  21
ATOM     21  C   UNL     1      -0.064  -1.720   1.370  0.00  0.00    +0.284 C 
BRANCH  21  26
ATOM     22  C   UNL     1       1.923   1.400   0.644  0.00  0.00    +0.003 A 
ATOM     23  C   UNL     1       1.190   2.316   1.384  0.00  0.00    +0.020 A 
ATOM     24  C   UNL     1       0.082   1.883   2.086  0.00  0.00    +0.111 A 
ATOM     25  N   UNL     1      -0.281   0.615   2.059  0.00  0.00    -0.256 NA
ATOM     26  C   UNL     1       0.392  -0.284   1.367  0.00  0.00    +0.078 A 
ATOM     27  C   UNL     1       1.511   0.076   0.640  0.00  0.00    +0.027 A 
ENDBRANCH  21  26
ENDBRANCH  20  21
ENDBRANCH  13  20
ENDBRANCH   1  16
BRANCH   8  28
ATOM     28  O   UNL     1       0.242 -11.027   0.120  0.00  0.00    -0.477 OA
BRANCH  28  29
ATOM     29  C   UNL     1       0.811 -12.338   0.108  0.00  0.00    +0.212 C 
BRANCH  29  30
ATOM     30  C   UNL     1       2.336 -12.232   0.070  0.00  0.00    -0.037 C 
BRANCH  30  31
ATOM     31  N   UNL     1       2.813 -11.597   1.306  0.00  0.00    +0.382 N 
ATOM     32  C   UNL     1       4.258 -11.355   1.204  0.00  0.00    -0.076 C 
ATOM     33  C   UNL     1       4.745 -10.621   2.456  0.00  0.00    +0.013 C 
ATOM     34  C   UNL     1       4.456 -11.481   3.690  0.00  0.00    +0.111 C 
ATOM     35  C   UNL     1       2.957 -11.789   3.745  0.00  0.00    +0.013 C 
ATOM     36  C   UNL     1       2.536 -12.480   2.446  0.00  0.00    -0.076 C 
ATOM     37  H   UNL     1       2.336 -10.719   1.438  0.00  0.00    -0.082 HD
BRANCH  34  38
ATOM     38  O   UNL     1       4.841 -10.770   4.868  0.00  0.00    -0.392 OA
ATOM     39  H   UNL     1       4.686 -11.256   5.689  0.00  0.00    +0.210 HD
ENDBRANCH  34  38
ENDBRANCH  30  31
ENDBRANCH  29  30
ENDBRANCH  28  29
ENDBRANCH   8  28
TORSDOF 9
