REMARK  Name = CHEMBL372112
REMARK  7 active torsions:
REMARK  status: ('A' for Active; 'I' for Inactive)
REMARK    1  A    between atoms: C_1  and  C_2
REMARK    2  A    between atoms: C_2  and  C_3
REMARK    3  A    between atoms: C_4  and  C_23
REMARK    4  A    between atoms: N_12  and  C_13
REMARK    5  A    between atoms: C_23  and  O_25
REMARK    6  A    between atoms: O_25  and  C_26
REMARK    7  A    between atoms: C_26  and  C_27
REMARK                            x       y       z     vdW  Elec       q    Type
REMARK                         _______ _______ _______ _____ _____    ______ ____
ROOT
ATOM      1  C   UNL     1       0.766  -0.618  -1.268  0.00  0.00    -0.003 A 
ATOM      2  C   UNL     1       0.144  -1.267  -2.354  0.00  0.00    +0.082 A 
ATOM      3  C   UNL     1       1.042  -2.204  -2.841  0.00  0.00    +0.128 A 
ATOM      4  N   UNL     1       2.161  -2.150  -2.106  0.00  0.00    -0.234 N 
ATOM      5  C   UNL     1       2.017  -1.175  -1.135  0.00  0.00    +0.109 A 
ATOM      6  C   UNL     1       3.095  -0.944  -0.245  0.00  0.00    +0.151 A 
ATOM      7  N   UNL     1       4.200  -1.660  -0.370  0.00  0.00    -0.217 NA
ATOM      8  C   UNL     1       4.325  -2.592  -1.313  0.00  0.00    +0.245 A 
ATOM      9  N   UNL     1       3.369  -2.862  -2.159  0.00  0.00    -0.155 NA
ATOM     10  N   UNL     1       2.994   0.016   0.741  0.00  0.00    -0.298 N 
ATOM     11  H   UNL     1       2.154   0.481   0.880  0.00  0.00    +0.154 HD
ENDROOT
BRANCH  10  12
ATOM     12  C   UNL     1       4.102   0.318   1.540  0.00  0.00    +0.033 A 
ATOM     13  C   UNL     1       5.387   0.253   0.983  0.00  0.00    +0.025 A 
ATOM     14  C   UNL     1       6.495   0.535   1.709  0.00  0.00    +0.032 A 
ATOM     15  C   UNL     1       6.367   0.906   3.066  0.00  0.00    +0.093 A 
ATOM     16  C   UNL     1       5.020   0.975   3.654  0.00  0.00    +0.021 A 
ATOM     17  C   UNL     1       3.906   0.674   2.841  0.00  0.00    +0.034 A 
ATOM     18  C   UNL     1       5.188   1.357   4.972  0.00  0.00    +0.113 A 
ATOM     19  N   UNL     1       6.502   1.512   5.192  0.00  0.00    -0.284 N 
ATOM     20  N   UNL     1       7.218   1.234   4.021  0.00  0.00    -0.174 NA
ATOM     21  H   UNL     1       6.898   1.776   6.037  0.00  0.00    +0.188 HD
ENDBRANCH  10  12
BRANCH   1  23
ATOM     22  C   UNL     1       0.630   1.839  -0.958  0.00  0.00    +0.009 C 
ATOM     23  C   UNL     1       0.177   0.480  -0.420  0.00  0.00    +0.035 C 
ENDBRANCH   1  23
BRANCH   2  24
ATOM     24  C   UNL     1      -1.208  -0.999  -2.875  0.00  0.00    +0.341 C 
ATOM     25  O   UNL     1      -1.901  -0.146  -2.356  0.00  0.00    -0.245 OA
BRANCH  24  26
ATOM     26  O   UNL     1      -1.677  -1.701  -3.926  0.00  0.00    -0.461 OA
BRANCH  26  27
ATOM     27  C   UNL     1      -2.996  -1.389  -4.378  0.00  0.00    +0.229 C 
ATOM     28  C   UNL     1      -3.352  -2.281  -5.569  0.00  0.00    +0.048 C 
ENDBRANCH  26  27
ENDBRANCH  24  26
ENDBRANCH   2  24
TORSDOF 5
