REMARK  Name = CHEMBL281872
REMARK  7 active torsions:
REMARK  status: ('A' for Active; 'I' for Inactive)
REMARK    1  A    between atoms: C_1  and  O_2
REMARK    2  A    between atoms: O_2  and  C_3
REMARK    3  A    between atoms: C_8  and  O_9
REMARK    4  A    between atoms: O_9  and  C_10
REMARK    5  A    between atoms: C_10  and  C_11
REMARK    6  A    between atoms: C_11  and  N_12
REMARK    7  A    between atoms: N_21  and  C_22
REMARK                            x       y       z     vdW  Elec       q    Type
REMARK                         _______ _______ _______ _____ _____    ______ ____
ROOT
ATOM      1  C   UNL     1      -0.034  -0.508  -1.436  0.00  0.00    +0.162 A 
ATOM      2  C   UNL     1       0.734   0.223  -2.296  0.00  0.00    +0.062 A 
ATOM      3  C   UNL     1       1.284  -0.391  -3.428  0.00  0.00    +0.044 A 
ATOM      4  C   UNL     1       1.042  -1.765  -3.674  0.00  0.00    +0.080 A 
ATOM      5  C   UNL     1       0.251  -2.496  -2.778  0.00  0.00    +0.078 A 
ATOM      6  C   UNL     1      -0.274  -1.869  -1.670  0.00  0.00    +0.164 A 
ATOM      7  N   UNL     1       1.581  -2.330  -4.766  0.00  0.00    -0.235 NA
ATOM      8  C   UNL     1       2.318  -1.619  -5.586  0.00  0.00    +0.223 A 
ATOM      9  N   UNL     1       2.571  -0.334  -5.397  0.00  0.00    -0.220 NA
ATOM     10  C   UNL     1       2.087   0.321  -4.350  0.00  0.00    +0.134 A 
ATOM     11  N   UNL     1       2.359   1.662  -4.166  0.00  0.00    -0.297 N 
ATOM     12  H   UNL     1       2.079   2.106  -3.350  0.00  0.00    +0.154 HD
ENDROOT
BRANCH  11  13
ATOM     13  C   UNL     1       3.039   2.380  -5.156  0.00  0.00    +0.068 A 
ATOM     14  C   UNL     1       3.100   1.890  -6.454  0.00  0.00    +0.027 A 
ATOM     15  C   UNL     1       3.771   2.602  -7.429  0.00  0.00    +0.017 A 
ATOM     16  C   UNL     1       4.383   3.802  -7.115  0.00  0.00    +0.021 A 
ATOM     17  C   UNL     1       4.325   4.295  -5.823  0.00  0.00    +0.055 A 
ATOM     18  C   UNL     1       3.650   3.590  -4.843  0.00  0.00    +0.145 A 
ATOM     19  F   UNL     1       3.588   4.073  -3.583  0.00  0.00    -0.204 F 
ATOM     20 BR   UNL     1       5.301   4.772  -8.454  0.00  0.00    -0.050 Br
ENDBRANCH  11  13
BRANCH   1  22
ATOM     21  C   UNL     1      -0.287   1.478  -0.153  0.00  0.00    +0.277 C 
ATOM     22  O   UNL     1      -0.568   0.089  -0.337  0.00  0.00    -0.491 OA
ENDBRANCH   1  22
BRANCH   6  23
ATOM     23  O   UNL     1      -1.037  -2.577  -0.796  0.00  0.00    -0.486 OA
BRANCH  23  24
ATOM     24  C   UNL     1      -1.245  -3.960  -1.090  0.00  0.00    +0.252 C 
BRANCH  24  25
ATOM     25  C   UNL     1      -2.121  -4.586  -0.003  0.00  0.00    +0.186 C 
BRANCH  25  26
ATOM     26  N   UNL     1      -2.334  -6.004  -0.304  0.00  0.00    -0.248 N 
ATOM     27  C   UNL     1      -2.070  -7.039   0.526  0.00  0.00    +0.130 A 
ATOM     28  C   UNL     1      -2.413  -8.161  -0.148  0.00  0.00    +0.156 A 
ATOM     29  N   UNL     1      -2.865  -7.763  -1.343  0.00  0.00    -0.138 NA
ATOM     30  N   UNL     1      -2.811  -6.479  -1.401  0.00  0.00    -0.066 NA
ENDBRANCH  25  26
ENDBRANCH  24  25
ENDBRANCH  23  24
ENDBRANCH   6  23
TORSDOF 6
