REMARK  Name = CHEMBL95774
REMARK  10 active torsions:
REMARK  status: ('A' for Active; 'I' for Inactive)
REMARK    1  A    between atoms: C_2  and  C_3
REMARK    2  A    between atoms: N_5  and  C_6
REMARK    3  A    between atoms: C_11  and  O_12
REMARK    4  A    between atoms: O_12  and  C_13
REMARK    5  A    between atoms: C_13  and  C_14
REMARK    6  A    between atoms: C_14  and  C_15
REMARK    7  A    between atoms: C_15  and  N_16
REMARK    8  A    between atoms: C_24  and  C_35
REMARK    9  A    between atoms: C_25  and  N_26
REMARK   10  A    between atoms: N_26  and  C_27
REMARK                            x       y       z     vdW  Elec       q    Type
REMARK                         _______ _______ _______ _____ _____    ______ ____
ROOT
ATOM      1  C   UNL     1      -4.842  -4.256   1.896  0.00  0.00    +0.077 A 
ATOM      2  C   UNL     1      -5.249  -3.066   1.337  0.00  0.00    +0.039 A 
ATOM      3  C   UNL     1      -5.832  -3.060   0.062  0.00  0.00    +0.025 A 
ATOM      4  C   UNL     1      -6.000  -4.276  -0.644  0.00  0.00    +0.076 A 
ATOM      5  C   UNL     1      -5.577  -5.477  -0.054  0.00  0.00    +0.076 A 
ATOM      6  C   UNL     1      -5.002  -5.462   1.196  0.00  0.00    +0.144 A 
ATOM      7  N   UNL     1      -6.556  -4.276  -1.865  0.00  0.00    -0.253 NA
ATOM      8  C   UNL     1      -6.960  -3.174  -2.443  0.00  0.00    +0.132 A 
ATOM      9  C   UNL     1      -6.833  -1.924  -1.817  0.00  0.00    +0.091 A 
ATOM     10  C   UNL     1      -6.260  -1.853  -0.538  0.00  0.00    +0.060 A 
ENDROOT
BRANCH   1  13
ATOM     11  C   UNL     1      -3.644  -3.159   3.635  0.00  0.00    +0.241 C 
ATOM     12  O   UNL     1      -3.501  -2.192   2.911  0.00  0.00    -0.271 OA
ATOM     13  N   UNL     1      -4.259  -4.264   3.169  0.00  0.00    -0.279 N 
ATOM     14  H   UNL     1      -4.298  -5.064   3.715  0.00  0.00    +0.155 HD
BRANCH  11  16
ATOM     15  C   UNL     1      -2.538  -2.032   5.478  0.00  0.00    +0.013 C 
ATOM     16  C   UNL     1      -3.145  -3.123   5.018  0.00  0.00    +0.060 C 
ENDBRANCH  11  16
ENDBRANCH   1  13
BRANCH  10  17
ATOM     17  N   UNL     1      -6.117  -0.644   0.113  0.00  0.00    -0.313 N 
ATOM     18  H   UNL     1      -5.231  -0.286   0.282  0.00  0.00    +0.152 HD
BRANCH  17  19
ATOM     19  C   UNL     1      -7.248   0.065   0.528  0.00  0.00    +0.033 A 
ATOM     20  C   UNL     1      -8.384  -0.619   0.943  0.00  0.00    +0.026 A 
ATOM     21  C   UNL     1      -9.501   0.083   1.353  0.00  0.00    +0.041 A 
ATOM     22  C   UNL     1      -9.489   1.468   1.350  0.00  0.00    +0.142 A 
ATOM     23  C   UNL     1      -8.358   2.152   0.936  0.00  0.00    +0.078 A 
ATOM     24  C   UNL     1      -7.237   1.454   0.530  0.00  0.00    +0.046 A 
ATOM     25 CL   UNL     1      -8.348   3.888   0.932  0.00  0.00    -0.081 Cl
ATOM     26  F   UNL     1     -10.583   2.152   1.752  0.00  0.00    -0.204 F 
ENDBRANCH  17  19
ENDBRANCH  10  17
BRANCH   9  27
ATOM     27  C   UNL     1      -7.285  -0.735  -2.475  0.00  0.00    +0.103 C 
ATOM     28  N   UNL     1      -7.643   0.208  -2.997  0.00  0.00    -0.191 NA
ENDBRANCH   9  27
BRANCH   6  29
ATOM     29  O   UNL     1      -4.590  -6.627   1.759  0.00  0.00    -0.490 OA
BRANCH  29  30
ATOM     30  C   UNL     1      -4.780  -7.820   0.997  0.00  0.00    +0.227 C 
BRANCH  30  31
ATOM     31  C   UNL     1      -4.258  -9.021   1.789  0.00  0.00    +0.022 C 
BRANCH  31  32
ATOM     32  C   UNL     1      -4.462 -10.298   0.972  0.00  0.00    -0.075 C 
BRANCH  32  33
ATOM     33  N   UNL     1      -3.962 -11.451   1.732  0.00  0.00    +0.383 N 
ATOM     34  C   UNL     1      -2.507 -11.329   1.905  0.00  0.00    -0.050 C 
ATOM     35  C   UNL     1      -1.988 -12.531   2.698  0.00  0.00    +0.141 C 
ATOM     36  O   UNL     1      -2.336 -13.736   2.010  0.00  0.00    -0.383 OA
ATOM     37  C   UNL     1      -3.742 -13.889   1.796  0.00  0.00    +0.141 C 
ATOM     38  C   UNL     1      -4.265 -12.689   1.002  0.00  0.00    -0.050 C 
ATOM     39  H   UNL     1      -4.407 -11.476   2.637  0.00  0.00    -0.082 HD
ENDBRANCH  32  33
ENDBRANCH  31  32
ENDBRANCH  30  31
ENDBRANCH  29  30
ENDBRANCH   6  29
TORSDOF 10
