REMARK  Name = CHEMBL279334
REMARK  13 active torsions:
REMARK  status: ('A' for Active; 'I' for Inactive)
REMARK    1  A    between atoms: C_1  and  S_2
REMARK    2  A    between atoms: S_2  and  C_5
REMARK    3  A    between atoms: C_5  and  N_6
REMARK    4  A    between atoms: N_6  and  C_7
REMARK    5  A    between atoms: C_7  and  C_8
REMARK    6  A    between atoms: C_8  and  C_9
REMARK    7  A    between atoms: C_9  and  C_10
REMARK    8  A    between atoms: C_10  and  O_11
REMARK    9  A    between atoms: O_11  and  C_12
REMARK   10  A    between atoms: C_18  and  N_22
REMARK   11  A    between atoms: N_22  and  C_23
REMARK   12  A    between atoms: C_26  and  S_29
REMARK   13  A    between atoms: S_29  and  C_32
REMARK                            x       y       z     vdW  Elec       q    Type
REMARK                         _______ _______ _______ _____ _____    ______ ____
ROOT
ATOM      1  C   UNL     1       8.830  -0.044  -4.884  0.00  0.00    +0.121 A 
ATOM      2  C   UNL     1       9.430   0.602  -3.801  0.00  0.00    +0.048 A 
ATOM      3  C   UNL     1      10.657   1.181  -3.922  0.00  0.00    +0.032 A 
ATOM      4  C   UNL     1      11.333   1.131  -5.149  0.00  0.00    +0.076 A 
ATOM      5  C   UNL     1      10.729   0.476  -6.251  0.00  0.00    +0.044 A 
ATOM      6  C   UNL     1       9.471  -0.116  -6.102  0.00  0.00    +0.059 A 
ATOM      7  C   UNL     1      11.437   0.441  -7.477  0.00  0.00    +0.134 A 
ATOM      8  N   UNL     1      12.627   1.023  -7.531  0.00  0.00    -0.220 NA
ATOM      9  C   UNL     1      13.151   1.623  -6.475  0.00  0.00    +0.223 A 
ATOM     10  N   UNL     1      12.543   1.687  -5.314  0.00  0.00    -0.235 NA
ENDROOT
BRANCH   7  11
ATOM     11  N   UNL     1      10.901  -0.182  -8.586  0.00  0.00    -0.299 N 
ATOM     12  H   UNL     1       9.996  -0.530  -8.558  0.00  0.00    +0.154 HD
BRANCH  11  13
ATOM     13  C   UNL     1      11.663  -0.312  -9.751  0.00  0.00    +0.032 A 
ATOM     14  C   UNL     1      13.035  -0.514  -9.666  0.00  0.00    +0.025 A 
ATOM     15  C   UNL     1      13.785  -0.642 -10.819  0.00  0.00    +0.029 A 
ATOM     16  C   UNL     1      13.172  -0.570 -12.056  0.00  0.00    +0.094 A 
ATOM     17  C   UNL     1      11.807  -0.368 -12.144  0.00  0.00    +0.029 A 
ATOM     18  C   UNL     1      11.050  -0.245 -10.995  0.00  0.00    +0.025 A 
BRANCH  16  19
ATOM     19  S   UNL     1      14.133  -0.733 -13.524  0.00  0.00    +0.025 S 
ATOM     20  O   UNL     1      13.407  -0.084 -14.559  0.00  0.00    -0.164 OA
ATOM     21  O   UNL     1      15.463  -0.368 -13.182  0.00  0.00    -0.164 OA
BRANCH  19  22
ATOM     22  C   UNL     1      14.170  -2.447 -13.934  0.00  0.00    +0.094 A 
ATOM     23  C   UNL     1      15.170  -3.257 -13.428  0.00  0.00    +0.027 A 
ATOM     24  C   UNL     1      15.199  -4.601 -13.749  0.00  0.00    +0.002 A 
ATOM     25  C   UNL     1      14.229  -5.135 -14.576  0.00  0.00    +0.000 A 
ATOM     26  C   UNL     1      13.229  -4.325 -15.081  0.00  0.00    +0.002 A 
ATOM     27  C   UNL     1      13.197  -2.982 -14.757  0.00  0.00    +0.027 A 
ENDBRANCH  19  22
ENDBRANCH  16  19
ENDBRANCH  11  13
ENDBRANCH   7  11
BRANCH   1  28
ATOM     28  O   UNL     1       7.605  -0.614  -4.734  0.00  0.00    -0.492 OA
BRANCH  28  29
ATOM     29  C   UNL     1       6.993  -0.505  -3.447  0.00  0.00    +0.229 C 
BRANCH  29  30
ATOM     30  C   UNL     1       5.630  -1.200  -3.470  0.00  0.00    +0.039 C 
BRANCH  30  31
ATOM     31  C   UNL     1       4.974  -1.084  -2.093  0.00  0.00    -0.016 C 
BRANCH  31  32
ATOM     32  C   UNL     1       3.612  -1.779  -2.116  0.00  0.00    -0.080 C 
BRANCH  32  33
ATOM     33  N   UNL     1       2.982  -1.668  -0.793  0.00  0.00    +0.392 N 
ATOM     34  H   UNL     1       2.859  -0.694  -0.560  0.00  0.00    -0.084 HD
ATOM     35  H   UNL     1       3.572  -2.107  -0.102  0.00  0.00    -0.084 HD
BRANCH  33  36
ATOM     36  C   UNL     1       1.674  -2.335  -0.816  0.00  0.00    +0.087 C 
BRANCH  36  38
ATOM     37  C   UNL     1       0.625  -0.412   0.983  0.00  0.00    +0.191 C 
ATOM     38  S   UNL     1       0.897  -2.198   0.818  0.00  0.00    -0.049 S 
ATOM     39  O   UNL     1       1.841  -2.601   1.800  0.00  0.00    -0.176 OA
ATOM     40  O   UNL     1      -0.368  -2.843   0.769  0.00  0.00    -0.176 OA
ENDBRANCH  36  38
ENDBRANCH  33  36
ENDBRANCH  32  33
ENDBRANCH  31  32
ENDBRANCH  30  31
ENDBRANCH  29  30
ENDBRANCH  28  29
ENDBRANCH   1  28
TORSDOF 12
