REMARK  Name = CHEMBL271705
REMARK  8 active torsions:
REMARK  status: ('A' for Active; 'I' for Inactive)
REMARK    1  A    between atoms: C_5  and  C_7
REMARK    2  A    between atoms: C_7  and  O_8
REMARK    3  A    between atoms: O_8  and  C_9
REMARK    4  A    between atoms: C_12  and  N_16
REMARK    5  A    between atoms: C_23  and  O_24
REMARK    6  A    between atoms: O_24  and  C_25
REMARK    7  A    between atoms: C_25  and  C_26
REMARK    8  A    between atoms: C_26  and  N_27
REMARK                            x       y       z     vdW  Elec       q    Type
REMARK                         _______ _______ _______ _____ _____    ______ ____
ROOT
ATOM      1  N   UNL     1      -0.301  -7.904   0.089  0.00  0.00    -0.299 N 
ATOM      2  C   UNL     1      -1.610  -8.347   0.124  0.00  0.00    +0.141 A 
ATOM      3  C   UNL     1      -1.906  -9.721   0.146  0.00  0.00    +0.121 A 
ATOM      4  C   UNL     1      -3.257 -10.117   0.183  0.00  0.00    +0.164 A 
ATOM      5  N   UNL     1      -3.267 -11.479   0.197  0.00  0.00    -0.257 N 
ATOM      6  H   UNL     1      -4.062 -12.034   0.222  0.00  0.00    +0.191 HD
ATOM      7  N   UNL     1      -1.951 -11.952   0.171  0.00  0.00    -0.134 NA
ATOM      8  C   UNL     1      -1.116 -10.947   0.141  0.00  0.00    +0.246 A 
ATOM      9  N   UNL     1      -4.199  -9.174   0.195  0.00  0.00    -0.216 NA
ATOM     10  C   UNL     1      -3.874  -7.901   0.174  0.00  0.00    +0.225 A 
ATOM     11  N   UNL     1      -2.621  -7.484   0.145  0.00  0.00    -0.220 NA
ATOM     12  H   UNL     1       0.424  -8.542   0.000  0.00  0.00    +0.154 HD
ENDROOT
BRANCH   1  16
ATOM     13  C   UNL     1       0.529  -3.828   0.363  0.00  0.00    +0.139 A 
ATOM     14  C   UNL     1      -0.564  -4.359   1.031  0.00  0.00    +0.049 A 
ATOM     15  C   UNL     1      -0.839  -5.709   0.941  0.00  0.00    +0.027 A 
ATOM     16  C   UNL     1      -0.022  -6.535   0.180  0.00  0.00    +0.034 A 
ATOM     17  C   UNL     1       1.072  -6.003  -0.489  0.00  0.00    +0.047 A 
ATOM     18  C   UNL     1       1.344  -4.651  -0.402  0.00  0.00    +0.084 A 
ATOM     19 CL   UNL     1       2.707  -3.984  -1.244  0.00  0.00    -0.080 Cl
BRANCH  13  20
ATOM     20  O   UNL     1       0.800  -2.498   0.452  0.00  0.00    -0.484 OA
BRANCH  20  21
ATOM     21  C   UNL     1      -0.080  -1.709   1.256  0.00  0.00    +0.284 C 
BRANCH  21  26
ATOM     22  C   UNL     1       1.902   1.405   0.494  0.00  0.00    +0.003 A 
ATOM     23  C   UNL     1       1.167   2.329   1.223  0.00  0.00    +0.020 A 
ATOM     24  C   UNL     1       0.060   1.902   1.930  0.00  0.00    +0.111 A 
ATOM     25  N   UNL     1      -0.300   0.633   1.918  0.00  0.00    -0.256 NA
ATOM     26  C   UNL     1       0.374  -0.272   1.237  0.00  0.00    +0.078 A 
ATOM     27  C   UNL     1       1.492   0.081   0.505  0.00  0.00    +0.027 A 
ENDBRANCH  21  26
ENDBRANCH  20  21
ENDBRANCH  13  20
ENDBRANCH   1  16
BRANCH   8  28
ATOM     28  O   UNL     1       0.240 -11.029   0.108  0.00  0.00    -0.477 OA
BRANCH  28  29
ATOM     29  C   UNL     1       0.811 -12.340   0.109  0.00  0.00    +0.212 C 
BRANCH  29  30
ATOM     30  C   UNL     1       2.336 -12.232   0.070  0.00  0.00    -0.037 C 
BRANCH  30  31
ATOM     31  N   UNL     1       2.813 -11.597   1.306  0.00  0.00    +0.385 N 
ATOM     32  C   UNL     1       4.261 -11.363   1.210  0.00  0.00    -0.050 C 
ATOM     33  C   UNL     1       4.756 -10.702   2.499  0.00  0.00    +0.141 C 
ATOM     34  O   UNL     1       4.432 -11.539   3.612  0.00  0.00    -0.383 OA
ATOM     35  C   UNL     1       3.034 -11.816   3.735  0.00  0.00    +0.141 C 
ATOM     36  C   UNL     1       2.536 -12.479   2.448  0.00  0.00    -0.050 C 
ATOM     37  H   UNL     1       2.338 -10.717   1.438  0.00  0.00    -0.081 HD
ENDBRANCH  30  31
ENDBRANCH  29  30
ENDBRANCH  28  29
ENDBRANCH   8  28
TORSDOF 8
