REMARK  Name = CHEMBL51741
REMARK  3 active torsions:
REMARK  status: ('A' for Active; 'I' for Inactive)
REMARK    1  A    between atoms: C_2  and  C_3
REMARK    2  A    between atoms: N_5  and  C_6
REMARK    3  A    between atoms: C_12  and  N_16
REMARK                            x       y       z     vdW  Elec       q    Type
REMARK                         _______ _______ _______ _____ _____    ______ ____
ROOT
ATOM      1  C   UNL     1      -2.412  -2.865   0.103  0.00  0.00    +0.034 A 
ATOM      2  C   UNL     1      -3.657  -2.227   0.106  0.00  0.00    +0.025 A 
ATOM      3  C   UNL     1      -4.811  -2.943   0.199  0.00  0.00    +0.030 A 
ATOM      4  C   UNL     1      -4.759  -4.341   0.292  0.00  0.00    +0.076 A 
ATOM      5  C   UNL     1      -3.502  -4.994   0.289  0.00  0.00    +0.042 A 
ATOM      6  C   UNL     1      -2.328  -4.240   0.189  0.00  0.00    +0.036 A 
ATOM      7  C   UNL     1      -3.482  -6.407   0.385  0.00  0.00    +0.137 A 
ATOM      8  N   UNL     1      -4.641  -7.046   0.472  0.00  0.00    -0.220 NA
ATOM      9  C   UNL     1      -5.792  -6.392   0.471  0.00  0.00    +0.223 A 
ATOM     10  N   UNL     1      -5.871  -5.086   0.385  0.00  0.00    -0.235 NA
ENDROOT
BRANCH   7  11
ATOM     11  N   UNL     1      -2.288  -7.100   0.387  0.00  0.00    -0.284 N 
ATOM     12  C   UNL     1      -1.572  -7.536   1.589  0.00  0.00    +0.117 C 
ATOM     13  C   UNL     1      -0.317  -8.257   1.071  0.00  0.00    +0.056 C 
ATOM     14  C   UNL     1      -0.424  -8.172  -0.435  0.00  0.00    -0.024 A 
ATOM     15  C   UNL     1      -1.590  -7.495  -0.757  0.00  0.00    +0.039 A 
ATOM     16  C   UNL     1      -1.909  -7.295  -2.101  0.00  0.00    +0.039 A 
ATOM     17  C   UNL     1      -1.075  -7.770  -3.092  0.00  0.00    +0.020 A 
ATOM     18  C   UNL     1       0.085  -8.448  -2.760  0.00  0.00    +0.015 A 
ATOM     19  C   UNL     1       0.411  -8.642  -1.430  0.00  0.00    +0.006 A 
ATOM     20 BR   UNL     1      -1.517  -7.493  -4.910  0.00  0.00    -0.050 Br
ENDBRANCH   7  11
BRANCH   1  23
ATOM     21  C   UNL     1      -1.175  -0.896   0.600  0.00  0.00    +0.241 C 
ATOM     22  O   UNL     1      -2.156  -0.431   1.148  0.00  0.00    -0.271 OA
ATOM     23  N   UNL     1      -1.243  -2.104   0.007  0.00  0.00    -0.282 N 
ATOM     24  H   UNL     1      -0.481  -2.446  -0.487  0.00  0.00    +0.155 HD
BRANCH  21  26
ATOM     25  C   UNL     1       0.154   1.053   1.170  0.00  0.00    +0.013 C 
ATOM     26  C   UNL     1       0.086  -0.139   0.585  0.00  0.00    +0.060 C 
ENDBRANCH  21  26
ENDBRANCH   1  23
TORSDOF 3
