REMARK  Name = CHEMBL168533
REMARK  12 active torsions:
REMARK  status: ('A' for Active; 'I' for Inactive)
REMARK    1  A    between atoms: C_4  and  C_7
REMARK    2  A    between atoms: C_7  and  C_8
REMARK    3  A    between atoms: C_8  and  C_9
REMARK    4  A    between atoms: C_9  and  O_10
REMARK    5  A    between atoms: O_10  and  C_11
REMARK    6  A    between atoms: C_11  and  C_13
REMARK    7  A    between atoms: C_15  and  N_20
REMARK    8  A    between atoms: C_18  and  O_19
REMARK    9  A    between atoms: N_20  and  C_21
REMARK   10  A    between atoms: C_21  and  C_22
REMARK   11  A    between atoms: C_24  and  O_29
REMARK   12  A    between atoms: C_27  and  O_28
REMARK                            x       y       z     vdW  Elec       q    Type
REMARK                         _______ _______ _______ _____ _____    ______ ____
ROOT
ATOM      1  C   UNL     1       7.610  -2.884   4.239  0.00  0.00    +0.102 A 
ATOM      2  C   UNL     1       6.879  -2.481   5.360  0.00  0.00    +0.041 A 
ATOM      3  C   UNL     1       7.360  -2.749   6.629  0.00  0.00    +0.028 A 
ATOM      4  C   UNL     1       8.569  -3.418   6.791  0.00  0.00    +0.026 A 
ATOM      5  C   UNL     1       9.297  -3.819   5.689  0.00  0.00    +0.048 A 
ATOM      6  C   UNL     1       8.824  -3.563   4.411  0.00  0.00    +0.131 A 
ENDROOT
BRANCH   1   7
ATOM      7  C   UNL     1       7.104  -2.602   2.884  0.00  0.00    +0.343 C 
ATOM      8  O   UNL     1       7.740  -2.959   1.912  0.00  0.00    -0.245 OA
BRANCH   7   9
ATOM      9  O   UNL     1       5.936  -1.949   2.723  0.00  0.00    -0.461 OA
BRANCH   9  10
ATOM     10  C   UNL     1       5.507  -1.710   1.381  0.00  0.00    +0.233 C 
BRANCH  10  11
ATOM     11  C   UNL     1       4.171  -0.963   1.399  0.00  0.00    +0.046 C 
BRANCH  11  12
ATOM     12  C   UNL     1       3.711  -0.707  -0.038  0.00  0.00    +0.038 C 
BRANCH  12  16
ATOM     13  C   UNL     1      -0.017   1.378   0.010  0.00  0.00    +0.000 A 
ATOM     14  C   UNL     1       1.171   2.086   0.002  0.00  0.00    +0.000 A 
ATOM     15  C   UNL     1       2.377   1.411  -0.013  0.00  0.00    +0.003 A 
ATOM     16  C   UNL     1       2.396   0.029  -0.020  0.00  0.00    -0.047 A 
ATOM     17  C   UNL     1       1.208  -0.679  -0.012  0.00  0.00    +0.003 A 
ATOM     18  C   UNL     1       0.002  -0.004   0.002  0.00  0.00    +0.000 A 
ENDBRANCH  12  16
ENDBRANCH  11  12
ENDBRANCH  10  11
ENDBRANCH   9  10
ENDBRANCH   7   9
ENDBRANCH   1   7
BRANCH   6  19
ATOM     19  O   UNL     1       9.538  -3.964   3.328  0.00  0.00    -0.506 OA
ATOM     20  H   UNL     1      10.176  -3.309   3.014  0.00  0.00    +0.292 HD
ENDBRANCH   6  19
BRANCH   3  21
ATOM     21  N   UNL     1       6.629  -2.346   7.753  0.00  0.00    -0.340 N 
ATOM     22  H   UNL     1       5.786  -1.879   7.641  0.00  0.00    +0.146 HD
BRANCH  21  23
ATOM     23  C   UNL     1       7.138  -2.629   9.098  0.00  0.00    +0.140 C 
BRANCH  23  24
ATOM     24  C   UNL     1       6.171  -2.095  10.123  0.00  0.00    +0.014 A 
ATOM     25  C   UNL     1       6.419  -0.885  10.742  0.00  0.00    +0.054 A 
ATOM     26  C   UNL     1       5.529  -0.394  11.685  0.00  0.00    +0.117 A 
ATOM     27  C   UNL     1       4.389  -1.117  12.007  0.00  0.00    +0.049 A 
ATOM     28  C   UNL     1       4.141  -2.326  11.387  0.00  0.00    +0.049 A 
ATOM     29  C   UNL     1       5.029  -2.815  10.440  0.00  0.00    +0.122 A 
BRANCH  29  30
ATOM     30  O   UNL     1       4.782  -4.003   9.827  0.00  0.00    -0.506 OA
ATOM     31  H   UNL     1       5.154  -4.768  10.287  0.00  0.00    +0.292 HD
ENDBRANCH  29  30
BRANCH  26  32
ATOM     32  O   UNL     1       5.773   0.797  12.295  0.00  0.00    -0.507 OA
ATOM     33  H   UNL     1       5.399   1.560  11.833  0.00  0.00    +0.292 HD
ENDBRANCH  26  32
ENDBRANCH  23  24
ENDBRANCH  21  23
ENDBRANCH   3  21
TORSDOF 12
