REMARK  Name = CHEMBL173498
REMARK  1 active torsions:
REMARK  status: ('A' for Active; 'I' for Inactive)
REMARK    1  A    between atoms: C_3  and  N_8
REMARK                            x       y       z     vdW  Elec       q    Type
REMARK                         _______ _______ _______ _____ _____    ______ ____
ROOT
ATOM      1  N   UNL     1       3.583   2.124  -0.021  0.00  0.00    -0.299 N 
ATOM      2  C   UNL     1       4.783   1.454   0.068  0.00  0.00    +0.134 A 
ATOM      3  C   UNL     1       6.053   2.178   0.177  0.00  0.00    +0.043 A 
ATOM      4  C   UNL     1       6.114   3.562   0.197  0.00  0.00    +0.043 A 
ATOM      5  C   UNL     1       7.357   4.192   0.304  0.00  0.00    +0.090 A 
ATOM      6  C   UNL     1       8.582   3.393   0.393  0.00  0.00    +0.091 A 
ATOM      7  C   UNL     1       8.514   1.998   0.372  0.00  0.00    +0.058 A 
ATOM      8  C   UNL     1       7.278   1.374   0.266  0.00  0.00    +0.078 A 
ATOM      9  N   UNL     1       7.155   0.034   0.242  0.00  0.00    -0.235 NA
ATOM     10  C   UNL     1       5.979  -0.530   0.142  0.00  0.00    +0.223 A 
ATOM     11  N   UNL     1       4.835   0.128   0.063  0.00  0.00    -0.220 NA
ATOM     12  N   UNL     1       9.763   4.023   0.496  0.00  0.00    -0.252 NA
ATOM     13  C   UNL     1       9.798   5.334   0.514  0.00  0.00    +0.131 A 
ATOM     14  C   UNL     1       8.629   6.096   0.429  0.00  0.00    +0.131 A 
ATOM     15  N   UNL     1       7.450   5.530   0.327  0.00  0.00    -0.252 NA
ATOM     16  H   UNL     1       3.558   3.089   0.073  0.00  0.00    +0.154 HD
ENDROOT
BRANCH   1  19
ATOM     17  C   UNL     1       0.042   1.142   0.096  0.00  0.00    +0.003 A 
ATOM     18  C   UNL     1       1.209   1.846   0.320  0.00  0.00    +0.023 A 
ATOM     19  C   UNL     1       2.401   1.413  -0.247  0.00  0.00    +0.033 A 
ATOM     20  C   UNL     1       2.415   0.272  -1.039  0.00  0.00    +0.038 A 
ATOM     21  C   UNL     1       1.245  -0.428  -1.260  0.00  0.00    +0.020 A 
ATOM     22  C   UNL     1       0.059   0.006  -0.693  0.00  0.00    +0.015 A 
ATOM     23 BR   UNL     1       1.262  -1.982  -2.337  0.00  0.00    -0.050 Br
ENDBRANCH   1  19
TORSDOF 1
