REMARK  Name = CHEMBL514566
REMARK  9 active torsions:
REMARK  status: ('A' for Active; 'I' for Inactive)
REMARK    1  A    between atoms: C_3  and  C_8
REMARK    2  A    between atoms: C_8  and  N_9
REMARK    3  A    between atoms: C_13  and  N_18
REMARK    4  A    between atoms: C_20  and  C_26
REMARK    5  A    between atoms: C_21  and  N_25
REMARK    6  A    between atoms: N_27  and  N_28
REMARK    7  A    between atoms: N_31  and  C_34
REMARK    8  A    between atoms: C_34  and  C_35
REMARK    9  A    between atoms: C_35  and  O_36
REMARK                            x       y       z     vdW  Elec       q    Type
REMARK                         _______ _______ _______ _____ _____    ______ ____
ROOT
ATOM      1  N   UNL     1       3.445   6.318   5.362  0.00  0.00    -0.299 N 
ATOM      2  C   UNL     1       2.734   7.459   5.031  0.00  0.00    +0.137 A 
ATOM      3  C   UNL     1       2.623   8.523   5.944  0.00  0.00    +0.074 A 
ATOM      4  C   UNL     1       1.888   9.656   5.550  0.00  0.00    +0.130 A 
ATOM      5  N   UNL     1       1.333   9.672   4.341  0.00  0.00    -0.220 NA
ATOM      6  C   UNL     1       1.464   8.650   3.519  0.00  0.00    +0.225 A 
ATOM      7  N   UNL     1       2.147   7.570   3.842  0.00  0.00    -0.220 NA
ATOM      8  H   UNL     1       3.806   6.214   6.256  0.00  0.00    +0.154 HD
ENDROOT
BRANCH   1  13
ATOM      9  N   UNL     1       4.231   2.547   1.405  0.00  0.00    -0.259 N 
ATOM     10  C   UNL     1       4.033   3.298   2.537  0.00  0.00    +0.069 A 
ATOM     11  C   UNL     1       3.891   2.985   3.886  0.00  0.00    +0.030 A 
ATOM     12  C   UNL     1       3.699   3.978   4.803  0.00  0.00    +0.025 A 
ATOM     13  C   UNL     1       3.643   5.315   4.405  0.00  0.00    +0.033 A 
ATOM     14  C   UNL     1       3.782   5.653   3.074  0.00  0.00    +0.034 A 
ATOM     15  C   UNL     1       3.979   4.643   2.124  0.00  0.00    +0.021 A 
ATOM     16  C   UNL     1       4.158   4.637   0.676  0.00  0.00    +0.143 A 
ATOM     17  N   UNL     1       4.306   3.399   0.299  0.00  0.00    -0.178 NA
BRANCH   9  18
ATOM     18  C   UNL     1       4.351   1.087   1.364  0.00  0.00    +0.179 C 
BRANCH  18  21
ATOM     19  C   UNL     1       7.639   0.115   2.947  0.00  0.00    +0.003 A 
ATOM     20  C   UNL     1       6.312   0.473   2.793  0.00  0.00    +0.005 A 
ATOM     21  C   UNL     1       5.797   0.698   1.530  0.00  0.00    -0.023 A 
ATOM     22  C   UNL     1       6.608   0.564   0.419  0.00  0.00    +0.043 A 
ATOM     23  C   UNL     1       7.937   0.205   0.571  0.00  0.00    +0.124 A 
ATOM     24  C   UNL     1       8.451  -0.019   1.837  0.00  0.00    +0.038 A 
ATOM     25  F   UNL     1       8.730   0.074  -0.514  0.00  0.00    -0.205 F 
ENDBRANCH  18  21
ENDBRANCH   9  18
ENDBRANCH   1  13
BRANCH   4  26
ATOM     26  N   UNL     1       1.744  10.734   6.406  0.00  0.00    -0.342 N 
ATOM     27  H   UNL     1       2.068  10.676   7.318  0.00  0.00    +0.144 HD
ATOM     28  H   UNL     1       1.318  11.548   6.093  0.00  0.00    +0.144 HD
ENDBRANCH   4  26
BRANCH   3  29
ATOM     29  C   UNL     1       3.257   8.454   7.271  0.00  0.00    +0.144 C 
ATOM     30  N   UNL     1       3.057   9.400   8.137  0.00  0.00    -0.192 NA
BRANCH  30  31
ATOM     31  N   UNL     1       3.753   9.396   9.352  0.00  0.00    -0.259 N 
ATOM     32  C   UNL     1       4.808   8.406   9.617  0.00  0.00    +0.107 C 
ATOM     33  C   UNL     1       6.057   9.146  10.107  0.00  0.00    -0.058 C 
ATOM     34  N   UNL     1       5.707   9.983  11.262  0.00  0.00    +0.383 N 
ATOM     35  C   UNL     1       4.762  11.030  10.854  0.00  0.00    -0.058 C 
ATOM     36  C   UNL     1       3.453  10.386  10.399  0.00  0.00    +0.107 C 
ATOM     37  H   UNL     1       5.284   9.409  11.975  0.00  0.00    -0.082 HD
BRANCH  34  38
ATOM     38  C   UNL     1       6.924  10.606  11.799  0.00  0.00    -0.051 C 
BRANCH  38  39
ATOM     39  C   UNL     1       6.582  11.377  13.075  0.00  0.00    +0.137 C 
BRANCH  39  40
ATOM     40  O   UNL     1       6.150  10.462  14.083  0.00  0.00    -0.397 OA
ATOM     41  H   UNL     1       5.916  10.882  14.922  0.00  0.00    +0.209 HD
ENDBRANCH  39  40
ENDBRANCH  38  39
ENDBRANCH  34  38
ENDBRANCH  30  31
ENDBRANCH   3  29
TORSDOF 9
