REMARK  Name = CHEMBL286343
REMARK  8 active torsions:
REMARK  status: ('A' for Active; 'I' for Inactive)
REMARK    1  A    between atoms: C_2  and  C_3
REMARK    2  A    between atoms: N_5  and  C_6
REMARK    3  A    between atoms: C_11  and  O_12
REMARK    4  A    between atoms: O_12  and  C_13
REMARK    5  A    between atoms: C_13  and  C_14
REMARK    6  A    between atoms: C_14  and  C_15
REMARK    7  A    between atoms: C_15  and  N_16
REMARK    8  A    between atoms: N_25  and  C_26
REMARK                            x       y       z     vdW  Elec       q    Type
REMARK                         _______ _______ _______ _____ _____    ______ ____
ROOT
ATOM      1  C   UNL     1       2.552  -2.713  -0.216  0.00  0.00    +0.077 A 
ATOM      2  C   UNL     1       3.705  -1.959  -0.183  0.00  0.00    +0.040 A 
ATOM      3  C   UNL     1       4.949  -2.600  -0.213  0.00  0.00    +0.042 A 
ATOM      4  C   UNL     1       5.015  -4.014  -0.277  0.00  0.00    +0.080 A 
ATOM      5  C   UNL     1       3.831  -4.760  -0.309  0.00  0.00    +0.076 A 
ATOM      6  C   UNL     1       2.616  -4.114  -0.274  0.00  0.00    +0.144 A 
ATOM      7  N   UNL     1       6.222  -4.601  -0.304  0.00  0.00    -0.235 NA
ATOM      8  C   UNL     1       7.315  -3.878  -0.272  0.00  0.00    +0.223 A 
ATOM      9  N   UNL     1       7.302  -2.556  -0.212  0.00  0.00    -0.220 NA
ATOM     10  C   UNL     1       6.164  -1.875  -0.180  0.00  0.00    +0.134 A 
ATOM     11  N   UNL     1       6.165  -0.496  -0.118  0.00  0.00    -0.299 N 
ATOM     12  H   UNL     1       5.331  -0.015  -0.001  0.00  0.00    +0.154 HD
ENDROOT
BRANCH  11  13
ATOM     13  C   UNL     1       7.368   0.208  -0.222  0.00  0.00    +0.033 A 
ATOM     14  C   UNL     1       7.501   1.453   0.380  0.00  0.00    +0.023 A 
ATOM     15  C   UNL     1       8.691   2.146   0.275  0.00  0.00    +0.003 A 
ATOM     16  C   UNL     1       9.750   1.602  -0.428  0.00  0.00    +0.015 A 
ATOM     17  C   UNL     1       9.621   0.363  -1.030  0.00  0.00    +0.020 A 
ATOM     18  C   UNL     1       8.435  -0.339  -0.923  0.00  0.00    +0.038 A 
ATOM     19 BR   UNL     1      11.073  -0.376  -1.991  0.00  0.00    -0.050 Br
ENDBRANCH  11  13
BRANCH   1  22
ATOM     20  C   UNL     1       1.189  -0.847   0.355  0.00  0.00    +0.241 C 
ATOM     21  O   UNL     1       2.144  -0.333   0.907  0.00  0.00    -0.271 OA
ATOM     22  N   UNL     1       1.305  -2.076  -0.186  0.00  0.00    -0.279 N 
ATOM     23  H   UNL     1       0.525  -2.519  -0.555  0.00  0.00    +0.155 HD
BRANCH  20  25
ATOM     24  C   UNL     1      -0.206   1.085   0.814  0.00  0.00    +0.013 C 
ATOM     25  C   UNL     1      -0.091  -0.128   0.279  0.00  0.00    +0.060 C 
ENDBRANCH  20  25
ENDBRANCH   1  22
BRANCH   6  26
ATOM     26  O   UNL     1       1.468  -4.839  -0.299  0.00  0.00    -0.490 OA
BRANCH  26  27
ATOM     27  C   UNL     1       1.600  -6.260  -0.358  0.00  0.00    +0.231 C 
BRANCH  27  28
ATOM     28  C   UNL     1       0.210  -6.901  -0.380  0.00  0.00    +0.062 C 
BRANCH  28  29
ATOM     29  C   UNL     1       0.351  -8.423  -0.443  0.00  0.00    +0.126 C 
BRANCH  29  30
ATOM     30  N   UNL     1      -0.979  -9.036  -0.463  0.00  0.00    -0.337 N 
ATOM     31  C   UNL     1      -1.715  -9.416   0.626  0.00  0.00    +0.106 A 
ATOM     32  C   UNL     1      -2.868  -9.930   0.158  0.00  0.00    +0.130 A 
ATOM     33  N   UNL     1      -2.837  -9.866  -1.182  0.00  0.00    -0.244 NA
ATOM     34  C   UNL     1      -1.710  -9.327  -1.560  0.00  0.00    +0.199 A 
ENDBRANCH  29  30
ENDBRANCH  28  29
ENDBRANCH  27  28
ENDBRANCH  26  27
ENDBRANCH   6  26
TORSDOF 8
