REMARK  Name = CHEMBL178199
REMARK  16 active torsions:
REMARK  status: ('A' for Active; 'I' for Inactive)
REMARK    1  A    between atoms: C_1  and  C_2
REMARK    2  A    between atoms: C_2  and  O_3
REMARK    3  A    between atoms: O_3  and  C_4
REMARK    4  A    between atoms: C_9  and  N_10
REMARK    5  A    between atoms: C_11  and  C_13
REMARK    6  A    between atoms: C_14  and  C_15
REMARK    7  A    between atoms: C_15  and  N_16
REMARK    8  A    between atoms: N_16  and  C_17
REMARK    9  A    between atoms: N_16  and  C_18
REMARK   10  A    between atoms: C_19  and  N_25
REMARK   11  A    between atoms: C_20  and  C_23
REMARK   12  A    between atoms: N_25  and  C_26
REMARK   13  A    between atoms: C_29  and  O_33
REMARK   14  A    between atoms: O_33  and  C_34
REMARK   15  A    between atoms: C_34  and  C_35
REMARK   16  A    between atoms: C_35  and  C_36
REMARK                            x       y       z     vdW  Elec       q    Type
REMARK                         _______ _______ _______ _____ _____    ______ ____
ROOT
ATOM      1  C   UNL     1      -2.088  -3.791  -0.653  0.00  0.00    +0.144 A 
ATOM      2  C   UNL     1      -1.221  -4.116   0.364  0.00  0.00    +0.076 A 
ATOM      3  C   UNL     1      -0.009  -4.761   0.072  0.00  0.00    +0.076 A 
ATOM      4  C   UNL     1       0.305  -5.068  -1.274  0.00  0.00    +0.025 A 
ATOM      5  C   UNL     1      -0.591  -4.728  -2.297  0.00  0.00    +0.039 A 
ATOM      6  C   UNL     1      -1.777  -4.101  -1.986  0.00  0.00    +0.077 A 
ATOM      7  C   UNL     1       1.528  -5.718  -1.563  0.00  0.00    +0.060 A 
ATOM      8  C   UNL     1       2.375  -6.027  -0.487  0.00  0.00    +0.091 A 
ATOM      9  C   UNL     1       1.982  -5.685   0.817  0.00  0.00    +0.132 A 
ATOM     10  N   UNL     1       0.844  -5.084   1.055  0.00  0.00    -0.253 NA
ENDROOT
BRANCH   6  11
ATOM     11  N   UNL     1      -2.675  -3.766  -3.006  0.00  0.00    -0.279 N 
ATOM     12  C   UNL     1      -2.219  -3.507  -4.248  0.00  0.00    +0.241 C 
ATOM     13  O   UNL     1      -1.042  -3.664  -4.508  0.00  0.00    -0.271 OA
ATOM     14  H   UNL     1      -3.626  -3.720  -2.819  0.00  0.00    +0.155 HD
BRANCH  12  15
ATOM     15  C   UNL     1      -3.146  -3.034  -5.287  0.00  0.00    +0.064 C 
ATOM     16  C   UNL     1      -2.696  -2.779  -6.513  0.00  0.00    -0.007 C 
BRANCH  16  17
ATOM     17  C   UNL     1      -3.645  -2.295  -7.578  0.00  0.00    +0.111 C 
BRANCH  17  18
ATOM     18  N   UNL     1      -3.145  -1.035  -8.144  0.00  0.00    -0.305 NA
ATOM     19  C   UNL     1      -1.885  -1.247  -8.869  0.00  0.00    +0.104 C 
ATOM     20  C   UNL     1      -4.152  -0.410  -9.012  0.00  0.00    +0.104 C 
ENDBRANCH  17  18
ENDBRANCH  16  17
ENDBRANCH  12  15
ENDBRANCH   6  11
BRANCH   8  21
ATOM     21  C   UNL     1       3.626  -6.685  -0.717  0.00  0.00    +0.103 C 
ATOM     22  N   UNL     1       4.618  -7.207  -0.900  0.00  0.00    -0.191 NA
ENDBRANCH   8  21
BRANCH   7  23
ATOM     23  N   UNL     1       1.877  -6.037  -2.859  0.00  0.00    -0.313 N 
ATOM     24  H   UNL     1       2.242  -5.356  -3.445  0.00  0.00    +0.152 HD
BRANCH  23  25
ATOM     25  C   UNL     1       1.702  -7.343  -3.329  0.00  0.00    +0.033 A 
ATOM     26  C   UNL     1       0.856  -8.216  -2.657  0.00  0.00    +0.027 A 
ATOM     27  C   UNL     1       0.684  -9.506  -3.121  0.00  0.00    +0.049 A 
ATOM     28  C   UNL     1       1.356  -9.930  -4.258  0.00  0.00    +0.139 A 
ATOM     29  C   UNL     1       2.202  -9.058  -4.931  0.00  0.00    +0.084 A 
ATOM     30  C   UNL     1       2.370  -7.766  -4.471  0.00  0.00    +0.047 A 
ATOM     31 CL   UNL     1       3.043  -9.590  -6.353  0.00  0.00    -0.080 Cl
BRANCH  28  32
ATOM     32  O   UNL     1       1.186 -11.200  -4.714  0.00  0.00    -0.490 OA
BRANCH  32  33
ATOM     33  C   UNL     1       0.301 -12.042  -3.973  0.00  0.00    +0.234 C 
BRANCH  33  34
ATOM     34  C   UNL     1       0.239 -13.421  -4.632  0.00  0.00    +0.076 C 
BRANCH  34  35
ATOM     35  C   UNL     1      -0.694 -14.310  -3.851  0.00  0.00    -0.044 A 
ATOM     36  C   UNL     1      -0.207 -15.079  -2.811  0.00  0.00    +0.004 A 
ATOM     37  C   UNL     1      -1.063 -15.894  -2.094  0.00  0.00    +0.000 A 
ATOM     38  C   UNL     1      -2.406 -15.940  -2.416  0.00  0.00    +0.000 A 
ATOM     39  C   UNL     1      -2.894 -15.170  -3.456  0.00  0.00    +0.000 A 
ATOM     40  C   UNL     1      -2.039 -14.351  -4.170  0.00  0.00    +0.004 A 
ENDBRANCH  34  35
ENDBRANCH  33  34
ENDBRANCH  32  33
ENDBRANCH  28  32
ENDBRANCH  23  25
ENDBRANCH   7  23
BRANCH   1  41
ATOM     41  O   UNL     1      -3.259  -3.167  -0.364  0.00  0.00    -0.490 OA
BRANCH  41  43
ATOM     42  C   UNL     1      -4.874  -2.180   1.139  0.00  0.00    +0.048 C 
ATOM     43  C   UNL     1      -3.518  -2.878   1.011  0.00  0.00    +0.226 C 
ENDBRANCH  41  43
ENDBRANCH   1  41
TORSDOF 13
