REMARK  Name = CHEMBL179633
REMARK  14 active torsions:
REMARK  status: ('A' for Active; 'I' for Inactive)
REMARK    1  A    between atoms: C_1  and  N_2
REMARK    2  A    between atoms: N_2  and  C_3
REMARK    3  A    between atoms: N_2  and  C_4
REMARK    4  A    between atoms: C_4  and  C_5
REMARK    5  A    between atoms: C_6  and  C_7
REMARK    6  A    between atoms: N_9  and  C_10
REMARK    7  A    between atoms: C_15  and  O_16
REMARK    8  A    between atoms: O_16  and  C_17
REMARK    9  A    between atoms: C_20  and  C_38
REMARK   10  A    between atoms: C_21  and  N_22
REMARK   11  A    between atoms: N_22  and  C_23
REMARK   12  A    between atoms: C_26  and  N_30
REMARK   13  A    between atoms: N_30  and  C_31
REMARK   14  A    between atoms: C_31  and  C_32
REMARK                            x       y       z     vdW  Elec       q    Type
REMARK                         _______ _______ _______ _____ _____    ______ ____
ROOT
ATOM      1  C   UNL     1      -4.099  -9.113   0.192  0.00  0.00    +0.077 A 
ATOM      2  C   UNL     1      -2.961  -8.775  -0.505  0.00  0.00    +0.039 A 
ATOM      3  C   UNL     1      -1.720  -9.289  -0.102  0.00  0.00    +0.025 A 
ATOM      4  C   UNL     1      -1.643 -10.152   1.018  0.00  0.00    +0.076 A 
ATOM      5  C   UNL     1      -2.816 -10.483   1.712  0.00  0.00    +0.076 A 
ATOM      6  C   UNL     1      -4.024  -9.964   1.306  0.00  0.00    +0.143 A 
ATOM      7  N   UNL     1      -0.458 -10.647   1.408  0.00  0.00    -0.253 NA
ATOM      8  C   UNL     1       0.654 -10.358   0.783  0.00  0.00    +0.132 A 
ATOM      9  C   UNL     1       0.671  -9.511  -0.336  0.00  0.00    +0.091 A 
ATOM     10  C   UNL     1      -0.534  -8.960  -0.798  0.00  0.00    +0.060 A 
ENDROOT
BRANCH   1  13
ATOM     11  C   UNL     1      -5.398  -7.444  -0.899  0.00  0.00    +0.241 C 
ATOM     12  O   UNL     1      -4.387  -6.792  -1.082  0.00  0.00    -0.271 OA
ATOM     13  N   UNL     1      -5.338  -8.600  -0.209  0.00  0.00    -0.279 N 
ATOM     14  H   UNL     1      -6.154  -9.076   0.011  0.00  0.00    +0.155 HD
BRANCH  11  16
ATOM     15  C   UNL     1      -6.743  -5.830  -2.113  0.00  0.00    -0.040 C 
ATOM     16  C   UNL     1      -6.684  -6.971  -1.432  0.00  0.00    +0.061 C 
BRANCH  15  17
ATOM     17  C   UNL     1      -8.061  -5.345  -2.659  0.00  0.00    -0.052 C 
BRANCH  17  19
ATOM     18  C   UNL     1      -9.544  -3.465  -2.802  0.00  0.00    -0.096 C 
ATOM     19  N   UNL     1      -8.320  -3.982  -2.176  0.00  0.00    +0.378 N 
ATOM     20  C   UNL     1      -8.488  -4.004  -0.717  0.00  0.00    -0.096 C 
ATOM     21  H   UNL     1      -7.541  -3.387  -2.417  0.00  0.00    -0.082 HD
ENDBRANCH  17  19
ENDBRANCH  15  17
ENDBRANCH  11  16
ENDBRANCH   1  13
BRANCH   6  22
ATOM     22  O   UNL     1      -5.156 -10.283   1.986  0.00  0.00    -0.493 OA
ATOM     23  C   UNL     1      -5.014 -11.153   3.110  0.00  0.00    +0.277 C 
ENDBRANCH   6  22
BRANCH  10  24
ATOM     24  N   UNL     1      -0.561  -8.123  -1.895  0.00  0.00    -0.313 N 
ATOM     25  H   UNL     1      -0.798  -7.189  -1.787  0.00  0.00    +0.152 HD
BRANCH  24  26
ATOM     26  C   UNL     1      -0.246  -8.622  -3.164  0.00  0.00    +0.033 A 
ATOM     27  C   UNL     1      -0.576  -9.930  -3.498  0.00  0.00    +0.025 A 
ATOM     28  C   UNL     1      -0.265 -10.423  -4.749  0.00  0.00    +0.026 A 
ATOM     29  C   UNL     1       0.378  -9.613  -5.675  0.00  0.00    +0.046 A 
ATOM     30  C   UNL     1       0.708  -8.304  -5.343  0.00  0.00    +0.064 A 
ATOM     31  C   UNL     1       0.391  -7.809  -4.093  0.00  0.00    +0.045 A 
ATOM     32 CL   UNL     1       1.511  -7.290  -6.500  0.00  0.00    -0.082 Cl
BRANCH  29  33
ATOM     33  N   UNL     1       0.694 -10.113  -6.944  0.00  0.00    -0.339 N 
ATOM     34  H   UNL     1       1.143  -9.547  -7.591  0.00  0.00    +0.146 HD
BRANCH  33  35
ATOM     35  C   UNL     1       0.347 -11.493  -7.294  0.00  0.00    +0.138 C 
BRANCH  35  36
ATOM     36  C   UNL     1       0.792 -11.780  -8.705  0.00  0.00    -0.012 A 
ATOM     37  C   UNL     1      -0.058 -11.538  -9.773  0.00  0.00    +0.008 A 
ATOM     38  C   UNL     1       0.394 -11.817 -11.053  0.00  0.00    +0.020 A 
ATOM     39  C   UNL     1       1.669 -12.325 -11.221  0.00  0.00    +0.111 A 
ATOM     40  N   UNL     1       2.450 -12.543 -10.182  0.00  0.00    -0.263 NA
ATOM     41  C   UNL     1       2.055 -12.284  -8.951  0.00  0.00    +0.115 A 
ENDBRANCH  35  36
ENDBRANCH  33  35
ENDBRANCH  29  33
ENDBRANCH  24  26
ENDBRANCH  10  24
BRANCH   9  42
ATOM     42  C   UNL     1       1.905  -9.212  -0.999  0.00  0.00    +0.103 C 
ATOM     43  N   UNL     1       2.883  -8.975  -1.526  0.00  0.00    -0.191 NA
ENDBRANCH   9  42
TORSDOF 11
