REMARK  Name = CHEMBL128987
REMARK  5 active torsions:
REMARK  status: ('A' for Active; 'I' for Inactive)
REMARK    1  A    between atoms: C_3  and  N_8
REMARK    2  A    between atoms: C_13  and  N_19
REMARK    3  A    between atoms: N_19  and  C_20
REMARK    4  A    between atoms: C_20  and  C_21
REMARK    5  A    between atoms: C_21  and  N_22
REMARK                            x       y       z     vdW  Elec       q    Type
REMARK                         _______ _______ _______ _____ _____    ______ ____
ROOT
ATOM      1  N   UNL     1       3.583   2.124  -0.021  0.00  0.00    -0.299 N 
ATOM      2  C   UNL     1       4.784   1.454   0.068  0.00  0.00    +0.135 A 
ATOM      3  C   UNL     1       6.005   2.159   0.173  0.00  0.00    +0.059 A 
ATOM      4  C   UNL     1       6.072   3.555   0.193  0.00  0.00    +0.126 A 
ATOM      5  N   UNL     1       7.237   4.156   0.293  0.00  0.00    -0.240 NA
ATOM      6  C   UNL     1       8.384   3.486   0.378  0.00  0.00    +0.121 A 
ATOM      7  C   UNL     1       8.417   2.104   0.366  0.00  0.00    +0.072 A 
ATOM      8  C   UNL     1       7.207   1.408   0.262  0.00  0.00    +0.081 A 
ATOM      9  N   UNL     1       7.137   0.071   0.242  0.00  0.00    -0.235 NA
ATOM     10  C   UNL     1       5.974  -0.530   0.143  0.00  0.00    +0.223 A 
ATOM     11  N   UNL     1       4.828   0.126   0.063  0.00  0.00    -0.220 NA
ATOM     12  H   UNL     1       3.571   3.091  -0.094  0.00  0.00    +0.154 HD
ENDROOT
BRANCH   1  15
ATOM     13  C   UNL     1       1.088  -0.466   0.744  0.00  0.00    +0.003 A 
ATOM     14  C   UNL     1       2.277   0.238   0.731  0.00  0.00    +0.023 A 
ATOM     15  C   UNL     1       2.381   1.410  -0.007  0.00  0.00    +0.033 A 
ATOM     16  C   UNL     1       1.289   1.872  -0.730  0.00  0.00    +0.038 A 
ATOM     17  C   UNL     1       0.102   1.163  -0.713  0.00  0.00    +0.020 A 
ATOM     18  C   UNL     1       0.002  -0.004   0.023  0.00  0.00    +0.015 A 
ATOM     19 BR   UNL     1      -1.386   1.790  -1.696  0.00  0.00    -0.050 Br
ENDBRANCH   1  15
BRANCH   6  20
ATOM     20  N   UNL     1       9.575   4.192   0.480  0.00  0.00    -0.331 N 
ATOM     21  H   UNL     1       9.565   5.162   0.489  0.00  0.00    +0.147 HD
BRANCH  20  22
ATOM     22  C   UNL     1      10.848   3.472   0.574  0.00  0.00    +0.084 C 
BRANCH  22  23
ATOM     23  C   UNL     1      11.996   4.477   0.676  0.00  0.00    -0.060 C 
BRANCH  23  24
ATOM     24  N   UNL     1      13.272   3.755   0.771  0.00  0.00    +0.384 N 
ATOM     25  C   UNL     1      13.312   2.993   2.026  0.00  0.00    -0.050 C 
ATOM     26  C   UNL     1      14.642   2.241   2.123  0.00  0.00    +0.141 C 
ATOM     27  O   UNL     1      15.720   3.178   2.043  0.00  0.00    -0.383 OA
ATOM     28  C   UNL     1      15.711   3.962   0.847  0.00  0.00    +0.141 C 
ATOM     29  C   UNL     1      14.383   4.717   0.748  0.00  0.00    -0.050 C 
ATOM     30  H   UNL     1      13.359   3.122  -0.010  0.00  0.00    -0.082 HD
ENDBRANCH  23  24
ENDBRANCH  22  23
ENDBRANCH  20  22
ENDBRANCH   6  20
TORSDOF 5
