REMARK  Name = CHEMBL216048
REMARK  6 active torsions:
REMARK  status: ('A' for Active; 'I' for Inactive)
REMARK    1  A    between atoms: C_1  and  O_2
REMARK    2  A    between atoms: O_2  and  C_3
REMARK    3  A    between atoms: C_8  and  O_9
REMARK    4  A    between atoms: O_9  and  C_10
REMARK    5  A    between atoms: C_14  and  O_18
REMARK    6  A    between atoms: O_18  and  C_19
REMARK                            x       y       z     vdW  Elec       q    Type
REMARK                         _______ _______ _______ _____ _____    ______ ____
ROOT
ATOM      1  C   UNL     1       0.648  -0.509   1.022  0.00  0.00    +0.162 A 
ATOM      2  C   UNL     1       1.239   0.216   2.035  0.00  0.00    +0.058 A 
ATOM      3  C   UNL     1       1.860  -0.416   3.114  0.00  0.00    +0.016 A 
ATOM      4  C   UNL     1       1.885  -1.790   3.163  0.00  0.00    +0.139 A 
ATOM      5  C   UNL     1       1.282  -2.528   2.137  0.00  0.00    +0.096 A 
ATOM      6  C   UNL     1       0.663  -1.900   1.077  0.00  0.00    +0.165 A 
ATOM      7  O   UNL     1       2.463  -2.528   4.135  0.00  0.00    -0.436 OA
ATOM      8  C   UNL     1       2.282  -2.296   5.448  0.00  0.00    +0.248 A 
ATOM      9  C   UNL     1       2.784  -1.115   5.970  0.00  0.00    +0.153 A 
ATOM     10  C   UNL     1       2.682  -0.892   7.340  0.00  0.00    +0.248 A 
ATOM     11  N   UNL     1       2.066  -1.809   8.084  0.00  0.00    -0.199 NA
ATOM     12  C   UNL     1       1.563  -2.900   7.541  0.00  0.00    +0.229 A 
ATOM     13  N   UNL     1       1.663  -3.153   6.248  0.00  0.00    -0.199 NA
ATOM     14  N   UNL     1       3.307  -0.152   5.106  0.00  0.00    -0.331 N 
ATOM     15  C   UNL     1       2.451   0.516   4.142  0.00  0.00    +0.141 C 
ATOM     16  H   UNL     1       4.249   0.073   5.151  0.00  0.00    +0.147 HD
ENDROOT
BRANCH   1  18
ATOM     17  C   UNL     1       0.076   1.558  -0.006  0.00  0.00    +0.277 C 
ATOM     18  O   UNL     1       0.051   0.129  -0.020  0.00  0.00    -0.491 OA
ENDBRANCH   1  18
BRANCH   6  19
ATOM     19  O   UNL     1       0.077  -2.632   0.091  0.00  0.00    -0.491 OA
ATOM     20  C   UNL     1       0.134  -4.054   0.219  0.00  0.00    +0.277 C 
ENDBRANCH   6  19
BRANCH  10  21
ATOM     21  O   UNL     1       3.196   0.230   7.903  0.00  0.00    -0.436 OA
BRANCH  21  22
ATOM     22  C   UNL     1       2.976   0.438   9.228  0.00  0.00    +0.131 A 
ATOM     23  C   UNL     1       3.710  -0.266  10.173  0.00  0.00    +0.046 A 
ATOM     24  C   UNL     1       3.485  -0.053  11.519  0.00  0.00    +0.005 A 
ATOM     25  C   UNL     1       2.528   0.859  11.926  0.00  0.00    +0.015 A 
ATOM     26  C   UNL     1       1.795   1.561  10.987  0.00  0.00    +0.021 A 
ATOM     27  C   UNL     1       2.021   1.356   9.638  0.00  0.00    +0.061 A 
ATOM     28 BR   UNL     1       0.487   2.807  11.547  0.00  0.00    -0.050 Br
ENDBRANCH  21  22
ENDBRANCH  10  21
TORSDOF 4
