REMARK  Name = CHEMBL126996
REMARK  8 active torsions:
REMARK  status: ('A' for Active; 'I' for Inactive)
REMARK    1  A    between atoms: C_1  and  C_2
REMARK    2  A    between atoms: C_2  and  O_3
REMARK    3  A    between atoms: O_3  and  C_4
REMARK    4  A    between atoms: C_9  and  O_10
REMARK    5  A    between atoms: O_10  and  C_11
REMARK    6  A    between atoms: C_11  and  C_12
REMARK    7  A    between atoms: N_17  and  C_18
REMARK    8  A    between atoms: C_22  and  C_24
REMARK                            x       y       z     vdW  Elec       q    Type
REMARK                         _______ _______ _______ _____ _____    ______ ____
ROOT
ATOM      1  C   UNL     1       1.351  -1.867  -0.987  0.00  0.00    +0.163 A 
ATOM      2  C   UNL     1       0.640  -2.687  -0.157  0.00  0.00    +0.062 A 
ATOM      3  C   UNL     1       0.542  -4.053  -0.449  0.00  0.00    +0.044 A 
ATOM      4  C   UNL     1       1.179  -4.576  -1.601  0.00  0.00    +0.080 A 
ATOM      5  C   UNL     1       1.903  -3.718  -2.438  0.00  0.00    +0.078 A 
ATOM      6  C   UNL     1       1.979  -2.377  -2.131  0.00  0.00    +0.164 A 
ATOM      7  N   UNL     1       1.069  -5.889  -1.859  0.00  0.00    -0.235 NA
ATOM      8  C   UNL     1       0.384  -6.669  -1.056  0.00  0.00    +0.223 A 
ATOM      9  N   UNL     1      -0.227  -6.224   0.030  0.00  0.00    -0.220 NA
ATOM     10  C   UNL     1      -0.182  -4.945   0.377  0.00  0.00    +0.134 A 
ATOM     11  N   UNL     1      -0.825  -4.495   1.513  0.00  0.00    -0.299 N 
ATOM     12  H   UNL     1      -0.854  -3.546   1.710  0.00  0.00    +0.154 HD
ENDROOT
BRANCH  11  13
ATOM     13  C   UNL     1      -1.433  -5.408   2.380  0.00  0.00    +0.033 A 
ATOM     14  C   UNL     1      -2.615  -5.070   3.028  0.00  0.00    +0.023 A 
ATOM     15  C   UNL     1      -3.219  -5.970   3.886  0.00  0.00    +0.002 A 
ATOM     16  C   UNL     1      -2.651  -7.210   4.103  0.00  0.00    +0.010 A 
ATOM     17  C   UNL     1      -1.466  -7.558   3.458  0.00  0.00    +0.005 A 
ATOM     18  C   UNL     1      -0.860  -6.654   2.588  0.00  0.00    +0.033 A 
BRANCH  17  19
ATOM     19  C   UNL     1      -0.854  -8.889   3.691  0.00  0.00    +0.109 A 
ATOM     20  C   UNL     1      -1.385  -9.899   4.422  0.00  0.00    +0.225 A 
ATOM     21  O   UNL     1      -0.509 -10.921   4.374  0.00  0.00    -0.450 OA
ATOM     22  C   UNL     1       0.534 -10.537   3.627  0.00  0.00    +0.308 A 
ATOM     23  N   UNL     1       0.333  -9.321   3.210  0.00  0.00    -0.216 NA
ENDBRANCH  17  19
ENDBRANCH  11  13
BRANCH   1  24
ATOM     24  O   UNL     1       1.446  -0.541  -0.702  0.00  0.00    -0.489 OA
BRANCH  24  26
ATOM     25  C   UNL     1       1.001   1.425   0.631  0.00  0.00    +0.048 C 
ATOM     26  C   UNL     1       0.784  -0.082   0.478  0.00  0.00    +0.226 C 
ENDBRANCH  24  26
ENDBRANCH   1  24
BRANCH   6  27
ATOM     27  O   UNL     1       2.676  -1.541  -2.944  0.00  0.00    -0.489 OA
BRANCH  27  28
ATOM     28  C   UNL     1       3.293  -2.120  -4.095  0.00  0.00    +0.226 C 
ATOM     29  C   UNL     1       4.027  -1.032  -4.883  0.00  0.00    +0.048 C 
ENDBRANCH  27  28
ENDBRANCH   6  27
TORSDOF 6
