REMARK  Name = CHEMBL472545
REMARK  9 active torsions:
REMARK  status: ('A' for Active; 'I' for Inactive)
REMARK    1  A    between atoms: C_4  and  C_7
REMARK    2  A    between atoms: C_7  and  O_8
REMARK    3  A    between atoms: O_8  and  C_9
REMARK    4  A    between atoms: C_12  and  N_16
REMARK    5  A    between atoms: C_18  and  C_24
REMARK    6  A    between atoms: C_19  and  N_23
REMARK    7  A    between atoms: C_27  and  C_29
REMARK    8  A    between atoms: C_29  and  C_30
REMARK    9  A    between atoms: C_30  and  N_31
REMARK                            x       y       z     vdW  Elec       q    Type
REMARK                         _______ _______ _______ _____ _____    ______ ____
ROOT
ATOM      1  N   UNL     1       8.933  -3.625   1.964  0.00  0.00    -0.299 N 
ATOM      2  C   UNL     1       9.457  -3.804   3.232  0.00  0.00    +0.140 A 
ATOM      3  C   UNL     1      10.726  -4.385   3.406  0.00  0.00    +0.118 A 
ATOM      4  C   UNL     1      11.206  -4.540   4.718  0.00  0.00    +0.134 A 
ATOM      5  N   UNL     1      10.444  -4.134   5.732  0.00  0.00    -0.220 NA
ATOM      6  C   UNL     1       9.261  -3.595   5.519  0.00  0.00    +0.225 A 
ATOM      7  N   UNL     1       8.773  -3.424   4.307  0.00  0.00    -0.220 NA
ATOM      8  H   UNL     1       9.403  -3.975   1.191  0.00  0.00    +0.154 HD
ENDROOT
BRANCH   1  12
ATOM      9  C   UNL     1       5.333  -1.582   1.467  0.00  0.00    +0.139 A 
ATOM     10  C   UNL     1       6.196  -1.226   2.491  0.00  0.00    +0.049 A 
ATOM     11  C   UNL     1       7.389  -1.902   2.657  0.00  0.00    +0.027 A 
ATOM     12  C   UNL     1       7.724  -2.940   1.797  0.00  0.00    +0.034 A 
ATOM     13  C   UNL     1       6.859  -3.297   0.771  0.00  0.00    +0.047 A 
ATOM     14  C   UNL     1       5.664  -2.623   0.610  0.00  0.00    +0.084 A 
ATOM     15 CL   UNL     1       4.579  -3.073  -0.668  0.00  0.00    -0.080 Cl
BRANCH   9  16
ATOM     16  O   UNL     1       4.158  -0.916   1.305  0.00  0.00    -0.486 OA
BRANCH  16  17
ATOM     17  C   UNL     1       3.882   0.144   2.223  0.00  0.00    +0.264 C 
BRANCH  17  21
ATOM     18  C   UNL     1       0.100   1.894   1.283  0.00  0.00    +0.000 A 
ATOM     19  C   UNL     1       0.170   0.834   2.168  0.00  0.00    +0.000 A 
ATOM     20  C   UNL     1       1.394   0.268   2.471  0.00  0.00    +0.007 A 
ATOM     21  C   UNL     1       2.547   0.761   1.891  0.00  0.00    -0.010 A 
ATOM     22  C   UNL     1       2.477   1.820   1.005  0.00  0.00    +0.007 A 
ATOM     23  C   UNL     1       1.253   2.388   0.703  0.00  0.00    +0.000 A 
ENDBRANCH  17  21
ENDBRANCH  16  17
ENDBRANCH   9  16
ENDBRANCH   1  12
BRANCH   3  24
ATOM     24  C   UNL     1      11.529  -4.818   2.247  0.00  0.00    +0.255 A 
ATOM     25  N   UNL     1      11.189  -4.719   0.982  0.00  0.00    -0.107 NA
ATOM     26  N   UNL     1      12.133  -5.197   0.251  0.00  0.00    -0.112 NA
ATOM     27  C   UNL     1      13.105  -5.617   1.011  0.00  0.00    +0.219 A 
ATOM     28  O   UNL     1      12.752  -5.385   2.288  0.00  0.00    -0.420 OA
BRANCH  27  29
ATOM     29  C   UNL     1      14.393  -6.244   0.543  0.00  0.00    +0.113 C 
BRANCH  29  30
ATOM     30  C   UNL     1      15.441  -5.153   0.323  0.00  0.00    +0.094 C 
BRANCH  30  31
ATOM     31  N   UNL     1      16.697  -5.764  -0.133  0.00  0.00    -0.298 NA
ATOM     32  C   UNL     1      17.289  -6.601   0.922  0.00  0.00    +0.112 C 
ATOM     33  C   UNL     1      18.560  -7.264   0.386  0.00  0.00    +0.175 C 
ATOM     34  O   UNL     1      19.462  -6.254  -0.074  0.00  0.00    -0.377 OA
ATOM     35  C   UNL     1      18.918  -5.422  -1.102  0.00  0.00    +0.175 C 
ATOM     36  C   UNL     1      17.650  -4.739  -0.582  0.00  0.00    +0.112 C 
ENDBRANCH  30  31
ENDBRANCH  29  30
ENDBRANCH  27  29
ENDBRANCH   3  24
BRANCH   4  37
ATOM     37  N   UNL     1      12.446  -5.105   4.952  0.00  0.00    -0.342 N 
ATOM     38  H   UNL     1      12.993  -5.398   4.207  0.00  0.00    +0.144 HD
ATOM     39  H   UNL     1      12.768  -5.208   5.861  0.00  0.00    +0.144 HD
ENDBRANCH   4  37
TORSDOF 9
