REMARK  Name = CHEMBL517127
REMARK  9 active torsions:
REMARK  status: ('A' for Active; 'I' for Inactive)
REMARK    1  A    between atoms: C_2  and  C_3
REMARK    2  A    between atoms: C_3  and  C_5
REMARK    3  A    between atoms: C_5  and  C_6
REMARK    4  A    between atoms: C_5  and  C_15
REMARK    5  A    between atoms: C_6  and  C_7
REMARK    6  A    between atoms: C_7  and  C_8
REMARK    7  A    between atoms: C_8  and  N_9
REMARK    8  A    between atoms: C_21  and  N_25
REMARK    9  A    between atoms: N_25  and  C_26
REMARK                            x       y       z     vdW  Elec       q    Type
REMARK                         _______ _______ _______ _____ _____    ______ ____
ROOT
ATOM      1  C   UNL     1      -2.504  -3.363   0.267  0.00  0.00    -0.036 A 
ATOM      2  C   UNL     1      -3.727  -3.025  -0.306  0.00  0.00    +0.006 A 
ATOM      3  C   UNL     1      -4.900  -3.284   0.337  0.00  0.00    +0.029 A 
ATOM      4  C   UNL     1      -4.877  -3.901   1.596  0.00  0.00    +0.076 A 
ATOM      5  C   UNL     1      -3.632  -4.245   2.177  0.00  0.00    +0.041 A 
ATOM      6  C   UNL     1      -2.446  -3.969   1.488  0.00  0.00    +0.017 A 
ATOM      7  C   UNL     1      -3.637  -4.867   3.449  0.00  0.00    +0.134 A 
ATOM      8  N   UNL     1      -4.807  -5.097   4.029  0.00  0.00    -0.220 NA
ATOM      9  C   UNL     1      -5.946  -4.758   3.447  0.00  0.00    +0.223 A 
ATOM     10  N   UNL     1      -6.002  -4.179   2.271  0.00  0.00    -0.235 NA
ENDROOT
BRANCH   7  11
ATOM     11  N   UNL     1      -2.456  -5.226   4.066  0.00  0.00    -0.299 N 
ATOM     12  H   UNL     1      -1.607  -4.978   3.670  0.00  0.00    +0.154 HD
BRANCH  11  13
ATOM     13  C   UNL     1      -2.485  -5.946   5.264  0.00  0.00    +0.033 A 
ATOM     14  C   UNL     1      -1.527  -5.710   6.242  0.00  0.00    +0.023 A 
ATOM     15  C   UNL     1      -1.558  -6.423   7.424  0.00  0.00    +0.003 A 
ATOM     16  C   UNL     1      -2.541  -7.372   7.635  0.00  0.00    +0.015 A 
ATOM     17  C   UNL     1      -3.497  -7.611   6.663  0.00  0.00    +0.020 A 
ATOM     18  C   UNL     1      -3.475  -6.896   5.481  0.00  0.00    +0.038 A 
ATOM     19 BR   UNL     1      -4.838  -8.911   6.957  0.00  0.00    -0.050 Br
ENDBRANCH  11  13
ENDBRANCH   7  11
BRANCH   1  20
ATOM     20  C   UNL     1      -1.227  -3.060  -0.474  0.00  0.00    +0.089 C 
BRANCH  20  21
ATOM     21  C   UNL     1      -1.123  -1.575  -0.709  0.00  0.00    +0.163 C 
ATOM     22  O   UNL     1      -2.126  -0.894  -0.746  0.00  0.00    -0.292 OA
BRANCH  21  24
ATOM     23  C   UNL     1       0.281   0.361  -1.100  0.00  0.00    +0.012 C 
ATOM     24  C   UNL     1       0.189  -0.954  -0.892  0.00  0.00    +0.039 C 
ENDBRANCH  21  24
ENDBRANCH  20  21
BRANCH  20  25
ATOM     25  C   UNL     1      -1.232  -3.790  -1.818  0.00  0.00    +0.017 C 
BRANCH  25  26
ATOM     26  C   UNL     1       0.114  -3.584  -2.515  0.00  0.00    +0.016 C 
BRANCH  26  27
ATOM     27  C   UNL     1       0.109  -4.314  -3.860  0.00  0.00    +0.084 C 
BRANCH  27  28
ATOM     28  N   UNL     1       1.402  -4.116  -4.529  0.00  0.00    -0.298 NA
ATOM     29  C   UNL     1       1.591  -2.708  -4.904  0.00  0.00    +0.112 C 
ATOM     30  C   UNL     1       2.972  -2.536  -5.543  0.00  0.00    +0.175 C 
ATOM     31  O   UNL     1       3.085  -3.415  -6.666  0.00  0.00    -0.377 OA
ATOM     32  C   UNL     1       2.907  -4.795  -6.336  0.00  0.00    +0.175 C 
ATOM     33  C   UNL     1       1.525  -4.990  -5.705  0.00  0.00    +0.112 C 
ENDBRANCH  27  28
ENDBRANCH  26  27
ENDBRANCH  25  26
ENDBRANCH  20  25
ENDBRANCH   1  20
TORSDOF 9
