REMARK  Name = CHEMBL474343
REMARK  5 active torsions:
REMARK  status: ('A' for Active; 'I' for Inactive)
REMARK    1  A    between atoms: C_2  and  C_3
REMARK    2  A    between atoms: N_5  and  C_6
REMARK    3  A    between atoms: N_15  and  C_16
REMARK    4  A    between atoms: C_19  and  O_22
REMARK    5  A    between atoms: O_22  and  C_23
REMARK                            x       y       z     vdW  Elec       q    Type
REMARK                         _______ _______ _______ _____ _____    ______ ____
ROOT
ATOM      1  C   UNL     1       1.296  -3.178   0.785  0.00  0.00    +0.027 C 
ATOM      2  C   UNL     1       2.182  -2.165   0.870  0.00  0.00    +0.022 C 
ATOM      3  C   UNL     1       3.484  -2.593   0.518  0.00  0.00    +0.026 C 
ATOM      4  C   UNL     1       3.461  -3.834   0.035  0.00  0.00    +0.059 C 
ATOM      5  C   UNL     1       2.082  -4.394   0.391  0.00  0.00    +0.145 C 
ATOM      6  C   UNL     1       1.589  -5.059  -0.867  0.00  0.00    +0.116 C 
ATOM      7  N   UNL     1       2.494  -5.563  -1.680  0.00  0.00    -0.224 NA
ATOM      8  C   UNL     1       3.811  -5.474  -1.472  0.00  0.00    +0.223 C 
ATOM      9  N   UNL     1       4.339  -4.604  -0.631  0.00  0.00    -0.239 NA
ATOM     10  N   UNL     1       0.259  -5.138  -1.153  0.00  0.00    -0.302 N 
ATOM     11  H   UNL     1      -0.397  -4.883  -0.484  0.00  0.00    +0.153 HD
ENDROOT
BRANCH  10  12
ATOM     12  C   UNL     1      -0.162  -5.585  -2.410  0.00  0.00    +0.032 A 
ATOM     13  C   UNL     1      -1.381  -5.163  -2.926  0.00  0.00    +0.027 A 
ATOM     14  C   UNL     1      -1.795  -5.605  -4.166  0.00  0.00    +0.048 A 
ATOM     15  C   UNL     1      -0.995  -6.470  -4.898  0.00  0.00    +0.129 A 
ATOM     16  C   UNL     1       0.223  -6.892  -4.383  0.00  0.00    +0.048 A 
ATOM     17  C   UNL     1       0.641  -6.447  -3.146  0.00  0.00    +0.027 A 
BRANCH  15  18
ATOM     18  O   UNL     1      -1.404  -6.905  -6.119  0.00  0.00    -0.456 OA
BRANCH  18  19
ATOM     19  C   UNL     1      -2.513  -6.337  -6.660  0.00  0.00    +0.128 A 
ATOM     20  C   UNL     1      -2.442  -5.071  -7.223  0.00  0.00    +0.046 A 
ATOM     21  C   UNL     1      -3.571  -4.496  -7.773  0.00  0.00    +0.004 A 
ATOM     22  C   UNL     1      -4.772  -5.180  -7.762  0.00  0.00    +0.000 A 
ATOM     23  C   UNL     1      -4.846  -6.442  -7.201  0.00  0.00    +0.004 A 
ATOM     24  C   UNL     1      -3.719  -7.024  -6.655  0.00  0.00    +0.046 A 
ENDBRANCH  18  19
ENDBRANCH  15  18
ENDBRANCH  10  12
BRANCH   1  27
ATOM     25  C   UNL     1      -0.634  -1.938   1.368  0.00  0.00    +0.240 C 
ATOM     26  O   UNL     1       0.052  -0.939   1.476  0.00  0.00    -0.271 OA
ATOM     27  N   UNL     1      -0.068  -3.110   1.019  0.00  0.00    -0.285 N 
ATOM     28  H   UNL     1      -0.615  -3.906   0.933  0.00  0.00    +0.155 HD
BRANCH  25  30
ATOM     29  C   UNL     1      -2.640  -0.708   1.961  0.00  0.00    +0.013 C 
ATOM     30  C   UNL     1      -2.081  -1.866   1.617  0.00  0.00    +0.060 C 
ENDBRANCH  25  30
ENDBRANCH   1  27
TORSDOF 5
