REMARK  Name = CHEMBL398154
REMARK  13 active torsions:
REMARK  status: ('A' for Active; 'I' for Inactive)
REMARK    1  A    between atoms: C_1  and  C_2
REMARK    2  A    between atoms: C_2  and  O_3
REMARK    3  A    between atoms: O_3  and  C_4
REMARK    4  A    between atoms: C_9  and  N_10
REMARK    5  A    between atoms: C_11  and  C_13
REMARK    6  A    between atoms: C_14  and  C_15
REMARK    7  A    between atoms: C_15  and  N_16
REMARK    8  A    between atoms: N_16  and  C_17
REMARK    9  A    between atoms: N_16  and  C_18
REMARK   10  A    between atoms: C_19  and  N_23
REMARK   11  A    between atoms: C_28  and  O_32
REMARK   12  A    between atoms: O_32  and  C_33
REMARK   13  A    between atoms: C_33  and  C_34
REMARK                            x       y       z     vdW  Elec       q    Type
REMARK                         _______ _______ _______ _____ _____    ______ ____
ROOT
ATOM      1  C   UNL     1       0.799  -1.786  -1.343  0.00  0.00    +0.144 A 
ATOM      2  C   UNL     1       0.280  -2.626  -0.399  0.00  0.00    +0.076 A 
ATOM      3  C   UNL     1       0.395  -4.013  -0.563  0.00  0.00    +0.080 A 
ATOM      4  C   UNL     1       1.052  -4.531  -1.711  0.00  0.00    +0.047 A 
ATOM      5  C   UNL     1       1.576  -3.656  -2.666  0.00  0.00    +0.040 A 
ATOM      6  C   UNL     1       1.444  -2.295  -2.483  0.00  0.00    +0.077 A 
ATOM      7  C   UNL     1       1.151  -5.940  -1.847  0.00  0.00    +0.164 A 
ATOM      8  N   UNL     1       0.623  -6.700  -0.890  0.00  0.00    -0.216 NA
ATOM      9  C   UNL     1       0.022  -6.169   0.159  0.00  0.00    +0.224 A 
ATOM     10  N   UNL     1      -0.099  -4.873   0.336  0.00  0.00    -0.235 NA
ENDROOT
BRANCH   7  11
ATOM     11  N   UNL     1       1.767  -6.497  -2.924  0.00  0.00    -0.228 NA
ATOM     12  C   UNL     1       3.022  -6.838  -2.853  0.00  0.00    +0.098 C 
ATOM     13  C   UNL     1       3.730  -7.559  -3.989  0.00  0.00    +0.142 C 
ATOM     14  C   UNL     1       5.019  -6.810  -4.252  0.00  0.00    +0.203 C 
ATOM     15  O   UNL     1       5.399  -6.630  -5.384  0.00  0.00    -0.288 OA
ATOM     16  C   UNL     1       5.807  -6.302  -3.112  0.00  0.00    +0.167 C 
ATOM     17  C   UNL     1       5.256  -6.163  -1.881  0.00  0.00    +0.102 C 
ATOM     18  C   UNL     1       3.856  -6.540  -1.655  0.00  0.00    +0.204 C 
ATOM     19  O   UNL     1       3.396  -6.609  -0.530  0.00  0.00    -0.286 OA
BRANCH  16  20
ATOM     20  O   UNL     1       7.104  -5.968  -3.300  0.00  0.00    -0.482 OA
BRANCH  20  21
ATOM     21  C   UNL     1       7.820  -5.481  -2.163  0.00  0.00    +0.284 C 
BRANCH  21  22
ATOM     22  C   UNL     1       9.239  -5.164  -2.560  0.00  0.00    +0.078 A 
ATOM     23  C   UNL     1       9.642  -5.359  -3.868  0.00  0.00    +0.027 A 
ATOM     24  C   UNL     1      10.949  -5.063  -4.223  0.00  0.00    +0.003 A 
ATOM     25  C   UNL     1      11.805  -4.580  -3.245  0.00  0.00    +0.020 A 
ATOM     26  C   UNL     1      11.331  -4.411  -1.958  0.00  0.00    +0.111 A 
ATOM     27  N   UNL     1      10.079  -4.698  -1.657  0.00  0.00    -0.256 NA
ENDBRANCH  21  22
ENDBRANCH  20  21
ENDBRANCH  16  20
ENDBRANCH   7  11
BRANCH   6  28
ATOM     28  N   UNL     1       1.962  -1.415  -3.437  0.00  0.00    -0.279 N 
ATOM     29  C   UNL     1       2.122  -1.821  -4.712  0.00  0.00    +0.241 C 
ATOM     30  O   UNL     1       1.725  -2.918  -5.055  0.00  0.00    -0.271 OA
ATOM     31  H   UNL     1       2.205  -0.511  -3.181  0.00  0.00    +0.155 HD
BRANCH  29  32
ATOM     32  C   UNL     1       2.778  -0.938  -5.688  0.00  0.00    +0.064 C 
ATOM     33  C   UNL     1       2.937  -1.339  -6.946  0.00  0.00    -0.007 C 
BRANCH  33  34
ATOM     34  C   UNL     1       3.608  -0.434  -7.946  0.00  0.00    +0.111 C 
BRANCH  34  35
ATOM     35  N   UNL     1       4.738  -1.141  -8.565  0.00  0.00    -0.305 NA
ATOM     36  C   UNL     1       4.270  -2.272  -9.377  0.00  0.00    +0.104 C 
ATOM     37  C   UNL     1       5.559  -0.222  -9.365  0.00  0.00    +0.104 C 
ENDBRANCH  34  35
ENDBRANCH  33  34
ENDBRANCH  29  32
ENDBRANCH   6  28
BRANCH   1  38
ATOM     38  O   UNL     1       0.685  -0.443  -1.180  0.00  0.00    -0.490 OA
BRANCH  38  40
ATOM     39  C   UNL     1      -0.012   1.544   0.006  0.00  0.00    +0.048 C 
ATOM     40  C   UNL     1       0.019   0.014  -0.002  0.00  0.00    +0.226 C 
ENDBRANCH  38  40
ENDBRANCH   1  38
TORSDOF 10
