REMARK  Name = CHEMBL137364
REMARK  6 active torsions:
REMARK  status: ('A' for Active; 'I' for Inactive)
REMARK    1  A    between atoms: C_3  and  N_8
REMARK    2  A    between atoms: C_12  and  N_19
REMARK    3  A    between atoms: N_19  and  N_20
REMARK    4  A    between atoms: N_21  and  C_22
REMARK    5  A    between atoms: C_22  and  C_23
REMARK    6  A    between atoms: C_23  and  N_24
REMARK                            x       y       z     vdW  Elec       q    Type
REMARK                         _______ _______ _______ _____ _____    ______ ____
ROOT
ATOM      1  N   UNL     1       3.583   2.124  -0.021  0.00  0.00    -0.299 N 
ATOM      2  C   UNL     1       4.785   1.453   0.068  0.00  0.00    +0.134 A 
ATOM      3  C   UNL     1       6.008   2.161   0.173  0.00  0.00    +0.042 A 
ATOM      4  C   UNL     1       6.056   3.559   0.192  0.00  0.00    +0.038 A 
ATOM      5  C   UNL     1       7.278   4.192   0.297  0.00  0.00    +0.051 A 
ATOM      6  C   UNL     1       8.460   3.449   0.384  0.00  0.00    +0.027 A 
ATOM      7  C   UNL     1       8.434   2.088   0.367  0.00  0.00    +0.030 A 
ATOM      8  C   UNL     1       7.208   1.415   0.262  0.00  0.00    +0.076 A 
ATOM      9  N   UNL     1       7.136   0.075   0.242  0.00  0.00    -0.235 NA
ATOM     10  C   UNL     1       5.975  -0.528   0.143  0.00  0.00    +0.223 A 
ATOM     11  N   UNL     1       4.828   0.127   0.063  0.00  0.00    -0.220 NA
ATOM     12  H   UNL     1       3.571   3.091  -0.094  0.00  0.00    +0.154 HD
ENDROOT
BRANCH   1  15
ATOM     13  C   UNL     1       1.088  -0.466   0.744  0.00  0.00    +0.003 A 
ATOM     14  C   UNL     1       2.277   0.238   0.731  0.00  0.00    +0.023 A 
ATOM     15  C   UNL     1       2.381   1.410  -0.007  0.00  0.00    +0.033 A 
ATOM     16  C   UNL     1       1.289   1.872  -0.730  0.00  0.00    +0.038 A 
ATOM     17  C   UNL     1       0.102   1.163  -0.713  0.00  0.00    +0.020 A 
ATOM     18  C   UNL     1       0.002  -0.004   0.023  0.00  0.00    +0.015 A 
ATOM     19 BR   UNL     1      -1.386   1.791  -1.696  0.00  0.00    -0.050 Br
ENDBRANCH   1  15
BRANCH   5  20
ATOM     20  N   UNL     1       7.335   5.589   0.316  0.00  0.00    -0.220 N 
ATOM     21  H   UNL     1       6.518   6.109   0.255  0.00  0.00    +0.176 HD
BRANCH  20  22
ATOM     22  N   UNL     1       8.572   6.238   0.422  0.00  0.00    -0.082 NA
ATOM     23  N   UNL     1       8.623   7.477   0.439  0.00  0.00    -0.173 NA
BRANCH  23  24
ATOM     24  C   UNL     1       9.916   8.156   0.550  0.00  0.00    +0.149 C 
BRANCH  24  25
ATOM     25  C   UNL     1      10.133   9.044  -0.677  0.00  0.00    -0.053 C 
BRANCH  25  26
ATOM     26  N   UNL     1      11.430   9.725  -0.566  0.00  0.00    +0.384 N 
ATOM     27  C   UNL     1      11.404  10.645   0.580  0.00  0.00    -0.050 C 
ATOM     28  C   UNL     1      12.756  11.353   0.694  0.00  0.00    +0.141 C 
ATOM     29  O   UNL     1      13.032  12.043  -0.528  0.00  0.00    -0.383 OA
ATOM     30  C   UNL     1      13.044  11.191  -1.678  0.00  0.00    +0.141 C 
ATOM     31  C   UNL     1      11.693  10.483  -1.796  0.00  0.00    -0.050 C 
ATOM     32  H   UNL     1      12.159   9.040  -0.430  0.00  0.00    -0.082 HD
ENDBRANCH  25  26
ENDBRANCH  24  25
ENDBRANCH  23  24
ENDBRANCH  20  22
ENDBRANCH   5  20
TORSDOF 6
