REMARK  Name = CHEMBL53426
REMARK  4 active torsions:
REMARK  status: ('A' for Active; 'I' for Inactive)
REMARK    1  A    between atoms: C_3  and  N_8
REMARK    2  A    between atoms: N_16  and  C_17
REMARK    3  A    between atoms: C_17  and  C_18
REMARK    4  A    between atoms: C_18  and  C_19
REMARK                            x       y       z     vdW  Elec       q    Type
REMARK                         _______ _______ _______ _____ _____    ______ ____
ROOT
ATOM      1  N   UNL     1       3.583   2.124  -0.021  0.00  0.00    -0.298 N 
ATOM      2  C   UNL     1       4.786   1.452   0.068  0.00  0.00    +0.152 A 
ATOM      3  C   UNL     1       6.051   2.175   0.177  0.00  0.00    +0.134 A 
ATOM      4  C   UNL     1       7.240   1.410   0.264  0.00  0.00    +0.112 A 
ATOM      5  C   UNL     1       8.464   2.094   0.369  0.00  0.00    +0.144 A 
ATOM      6  N   UNL     1       8.446   3.411   0.381  0.00  0.00    -0.221 NA
ATOM      7  C   UNL     1       7.307   4.094   0.297  0.00  0.00    +0.216 A 
ATOM      8  N   UNL     1       6.130   3.503   0.197  0.00  0.00    -0.209 NA
ATOM      9  N   UNL     1       7.358   5.478   0.317  0.00  0.00    -0.313 N 
ATOM     10  N   UNL     1       7.151   0.076   0.242  0.00  0.00    -0.232 NA
ATOM     11  C   UNL     1       5.988  -0.520   0.142  0.00  0.00    +0.224 A 
ATOM     12  N   UNL     1       4.837   0.126   0.063  0.00  0.00    -0.218 NA
ATOM     13  H   UNL     1       3.571   3.091  -0.094  0.00  0.00    +0.154 HD
ATOM     14  H   UNL     1       6.538   5.994   0.257  0.00  0.00    +0.149 HD
ENDROOT
BRANCH   1  17
ATOM     15  C   UNL     1       1.090  -0.468   0.739  0.00  0.00    +0.003 A 
ATOM     16  C   UNL     1       2.278   0.235   0.727  0.00  0.00    +0.023 A 
ATOM     17  C   UNL     1       2.381   1.410  -0.007  0.00  0.00    +0.033 A 
ATOM     18  C   UNL     1       1.287   1.874  -0.727  0.00  0.00    +0.038 A 
ATOM     19  C   UNL     1       0.101   1.166  -0.710  0.00  0.00    +0.020 A 
ATOM     20  C   UNL     1       0.002  -0.004   0.022  0.00  0.00    +0.015 A 
ATOM     21 BR   UNL     1      -1.389   1.796  -1.689  0.00  0.00    -0.050 Br
ENDBRANCH   1  17
BRANCH   9  22
ATOM     22  C   UNL     1       8.648   6.162   0.428  0.00  0.00    +0.110 C 
BRANCH  22  23
ATOM     23  C   UNL     1       8.425   7.676   0.426  0.00  0.00    +0.075 C 
BRANCH  23  24
ATOM     24  C   UNL     1       9.752   8.379   0.540  0.00  0.00    +0.060 A 
ATOM     25  C   UNL     1      10.227   9.315  -0.303  0.00  0.00    +0.107 A 
ATOM     26  N   UNL     1      11.458   9.686   0.168  0.00  0.00    -0.351 N 
ATOM     27  H   UNL     1      12.050  10.345  -0.227  0.00  0.00    +0.166 HD
ATOM     28  C   UNL     1      11.692   8.963   1.284  0.00  0.00    +0.196 A 
ATOM     29  N   UNL     1      10.666   8.188   1.504  0.00  0.00    -0.241 NA
ENDBRANCH  23  24
ENDBRANCH  22  23
ENDBRANCH   9  22
TORSDOF 4
