REMARK  Name = CHEMBL503418
REMARK  9 active torsions:
REMARK  status: ('A' for Active; 'I' for Inactive)
REMARK    1  A    between atoms: C_1  and  N_2
REMARK    2  A    between atoms: N_5  and  C_8
REMARK    3  A    between atoms: C_8  and  C_9
REMARK    4  A    between atoms: C_12  and  N_15
REMARK    5  A    between atoms: C_21  and  N_25
REMARK    6  A    between atoms: N_25  and  C_26
REMARK    7  A    between atoms: C_29  and  O_33
REMARK    8  A    between atoms: O_33  and  C_34
REMARK    9  A    between atoms: C_34  and  C_35
REMARK                            x       y       z     vdW  Elec       q    Type
REMARK                         _______ _______ _______ _____ _____    ______ ____
ROOT
ATOM      1  N   UNL     1       1.354  -5.672   6.196  0.00  0.00    -0.294 N 
ATOM      2  C   UNL     1       0.530  -5.741   7.300  0.00  0.00    +0.165 A 
ATOM      3  N   UNL     1      -0.746  -5.428   7.402  0.00  0.00    -0.205 NA
ATOM      4  C   UNL     1      -1.427  -5.547   8.547  0.00  0.00    +0.174 A 
ATOM      5  C   UNL     1      -0.694  -6.032   9.654  0.00  0.00    +0.099 A 
ATOM      6  S   UNL     1       0.918  -6.286   8.959  0.00  0.00    -0.047 S 
ATOM      7  C   UNL     1      -1.282  -6.200  10.889  0.00  0.00    +0.142 A 
ATOM      8  N   UNL     1      -2.576  -5.891  11.020  0.00  0.00    -0.219 NA
ATOM      9  C   UNL     1      -3.252  -5.438   9.981  0.00  0.00    +0.225 A 
ATOM     10  N   UNL     1      -2.729  -5.265   8.794  0.00  0.00    -0.215 NA
ATOM     11  H   UNL     1       2.259  -6.017   6.244  0.00  0.00    +0.154 HD
ENDROOT
BRANCH   1  15
ATOM     12  C   UNL     1      -0.046  -3.981   2.657  0.00  0.00    -0.033 A 
ATOM     13  C   UNL     1      -0.606  -3.613   3.866  0.00  0.00    +0.007 A 
ATOM     14  C   UNL     1      -0.145  -4.171   5.041  0.00  0.00    +0.023 A 
ATOM     15  C   UNL     1       0.884  -5.104   5.008  0.00  0.00    +0.033 A 
ATOM     16  C   UNL     1       1.445  -5.472   3.792  0.00  0.00    +0.023 A 
ATOM     17  C   UNL     1       0.975  -4.913   2.619  0.00  0.00    +0.007 A 
BRANCH  12  18
ATOM     18  C   UNL     1      -0.552  -3.369   1.376  0.00  0.00    +0.119 C 
BRANCH  18  23
ATOM     19  C   UNL     1      -5.351  -5.465  -0.703  0.00  0.00    -0.096 C 
ATOM     20  N   UNL     1      -4.286  -4.602  -0.174  0.00  0.00    +0.379 N 
ATOM     21  C   UNL     1      -3.114  -4.675  -1.057  0.00  0.00    -0.064 C 
ATOM     22  C   UNL     1      -2.011  -3.762  -0.517  0.00  0.00    +0.066 C 
ATOM     23  N   UNL     1      -1.650  -4.187   0.843  0.00  0.00    -0.302 NA
ATOM     24  C   UNL     1      -2.819  -4.143   1.732  0.00  0.00    +0.066 C 
ATOM     25  C   UNL     1      -3.916  -5.053   1.174  0.00  0.00    -0.064 C 
ATOM     26  H   UNL     1      -4.616  -3.649  -0.132  0.00  0.00    -0.082 HD
ENDBRANCH  18  23
ENDBRANCH  12  18
ENDBRANCH   1  15
BRANCH   7  27
ATOM     27  N   UNL     1      -0.552  -6.677  11.966  0.00  0.00    -0.298 N 
ATOM     28  H   UNL     1       0.403  -6.826  11.877  0.00  0.00    +0.154 HD
BRANCH  27  29
ATOM     29  C   UNL     1      -1.192  -6.945  13.182  0.00  0.00    +0.034 A 
ATOM     30  C   UNL     1      -2.506  -7.394  13.192  0.00  0.00    +0.027 A 
ATOM     31  C   UNL     1      -3.137  -7.657  14.391  0.00  0.00    +0.049 A 
ATOM     32  C   UNL     1      -2.459  -7.476  15.587  0.00  0.00    +0.139 A 
ATOM     33  C   UNL     1      -1.145  -7.028  15.579  0.00  0.00    +0.084 A 
ATOM     34  C   UNL     1      -0.510  -6.768  14.379  0.00  0.00    +0.047 A 
ATOM     35 CL   UNL     1      -0.296  -6.800  17.077  0.00  0.00    -0.080 Cl
BRANCH  32  36
ATOM     36  O   UNL     1      -3.081  -7.735  16.768  0.00  0.00    -0.486 OA
BRANCH  36  37
ATOM     37  C   UNL     1      -4.433  -8.193  16.702  0.00  0.00    +0.264 C 
BRANCH  37  38
ATOM     38  C   UNL     1      -4.954  -8.426  18.097  0.00  0.00    -0.008 A 
ATOM     39  C   UNL     1      -4.802  -9.665  18.693  0.00  0.00    +0.007 A 
ATOM     40  C   UNL     1      -5.278  -9.881  19.972  0.00  0.00    +0.003 A 
ATOM     41  C   UNL     1      -5.908  -8.859  20.657  0.00  0.00    +0.038 A 
ATOM     42  C   UNL     1      -6.060  -7.618  20.062  0.00  0.00    +0.124 A 
ATOM     43  C   UNL     1      -5.577  -7.401  18.782  0.00  0.00    +0.045 A 
ATOM     44  F   UNL     1      -6.676  -6.619  20.731  0.00  0.00    -0.205 F 
ENDBRANCH  37  38
ENDBRANCH  36  37
ENDBRANCH  32  36
ENDBRANCH  27  29
ENDBRANCH   7  27
TORSDOF 8
