REMARK  Name = CHEMBL394462
REMARK  4 active torsions:
REMARK  status: ('A' for Active; 'I' for Inactive)
REMARK    1  A    between atoms: C_1  and  C_2
REMARK    2  A    between atoms: N_11  and  C_12
REMARK    3  A    between atoms: N_20  and  C_21
REMARK    4  A    between atoms: C_21  and  C_22
REMARK                            x       y       z     vdW  Elec       q    Type
REMARK                         _______ _______ _______ _____ _____    ______ ____
ROOT
ATOM      1  C   UNL     1       0.517   0.907   4.349  0.00  0.00    +0.033 A 
ATOM      2  C   UNL     1       0.829  -0.168   5.182  0.00  0.00    +0.025 A 
ATOM      3  C   UNL     1       1.062   0.026   6.513  0.00  0.00    +0.030 A 
ATOM      4  C   UNL     1       0.989   1.307   7.056  0.00  0.00    +0.069 A 
ATOM      5  C   UNL     1       0.675   2.398   6.224  0.00  0.00    +0.021 A 
ATOM      6  C   UNL     1       0.444   2.188   4.860  0.00  0.00    +0.034 A 
ATOM      7  C   UNL     1       0.676   3.581   7.080  0.00  0.00    +0.143 A 
ATOM      8  N   UNL     1       0.966   3.196   8.290  0.00  0.00    -0.178 NA
ATOM      9  N   UNL     1       1.164   1.812   8.319  0.00  0.00    -0.258 N 
ENDROOT
BRANCH   1  20
ATOM     10  C   UNL     1       0.578   1.247  -0.049  0.00  0.00    +0.046 C 
ATOM     11  C   UNL     1      -0.099  -0.097   0.036  0.00  0.00    -0.020 A 
ATOM     12  C   UNL     1      -0.491  -0.900  -1.036  0.00  0.00    +0.025 A 
ATOM     13  C   UNL     1      -1.062  -2.025  -0.528  0.00  0.00    +0.113 A 
ATOM     14  N   UNL     1      -1.044  -1.960   0.816  0.00  0.00    -0.235 N 
ATOM     15  C   UNL     1      -0.444  -0.773   1.190  0.00  0.00    +0.108 A 
ATOM     16  C   UNL     1      -0.309  -0.490   2.569  0.00  0.00    +0.151 A 
ATOM     17  N   UNL     1      -0.754  -1.366   3.454  0.00  0.00    -0.217 NA
ATOM     18  C   UNL     1      -1.327  -2.508   3.078  0.00  0.00    +0.245 A 
ATOM     19  N   UNL     1      -1.491  -2.826   1.824  0.00  0.00    -0.155 NA
ATOM     20  N   UNL     1       0.282   0.686   2.986  0.00  0.00    -0.298 N 
ATOM     21  H   UNL     1       0.534   1.360   2.335  0.00  0.00    +0.154 HD
ENDBRANCH   1  20
BRANCH   9  22
ATOM     22  C   UNL     1       1.505   1.027   9.509  0.00  0.00    +0.199 C 
BRANCH  22  23
ATOM     23  C   UNL     1       3.004   0.951   9.648  0.00  0.00    +0.063 A 
ATOM     24  C   UNL     1       3.602   1.352  10.827  0.00  0.00    +0.025 A 
ATOM     25  C   UNL     1       4.981   1.278  10.945  0.00  0.00    +0.003 A 
ATOM     26  C   UNL     1       5.711   0.800   9.866  0.00  0.00    +0.020 A 
ATOM     27  C   UNL     1       5.043   0.417   8.719  0.00  0.00    +0.111 A 
ATOM     28  N   UNL     1       3.729   0.497   8.644  0.00  0.00    -0.258 NA
ENDBRANCH  22  23
ENDBRANCH   9  22
TORSDOF 3
