REMARK  Name = CHEMBL521601
REMARK  8 active torsions:
REMARK  status: ('A' for Active; 'I' for Inactive)
REMARK    1  A    between atoms: C_2  and  C_3
REMARK    2  A    between atoms: C_7  and  C_25
REMARK    3  A    between atoms: C_12  and  C_16
REMARK    4  A    between atoms: C_16  and  C_17
REMARK    5  A    between atoms: C_25  and  C_26
REMARK    6  A    between atoms: C_26  and  C_27
REMARK    7  A    between atoms: C_27  and  C_28
REMARK    8  A    between atoms: C_28  and  N_29
REMARK                            x       y       z     vdW  Elec       q    Type
REMARK                         _______ _______ _______ _____ _____    ______ ____
ROOT
ATOM      1  C   UNL     1      -1.261  -0.757   0.010  0.00  0.00    +0.242 C 
ATOM      2  O   UNL     1      -2.322  -0.163   0.023  0.00  0.00    -0.270 OA
ATOM      3  N   UNL     1      -1.243  -2.104   0.003  0.00  0.00    -0.267 N 
ATOM      4  C   UNL     1      -2.438  -2.816   0.010  0.00  0.00    +0.129 A 
ATOM      5  C   UNL     1      -2.400  -4.218   0.008  0.00  0.00    -0.005 A 
ATOM      6  C   UNL     1      -3.561  -4.931   0.015  0.00  0.00    +0.037 A 
ATOM      7  C   UNL     1      -4.777  -4.219   0.025  0.00  0.00    +0.093 A 
ATOM      8  C   UNL     1      -4.746  -2.803   0.027  0.00  0.00    +0.113 A 
ATOM      9  N   UNL     1      -3.578  -2.158   0.025  0.00  0.00    -0.228 NA
ATOM     10  C   UNL     1      -5.975  -2.115   0.037  0.00  0.00    +0.075 A 
ATOM     11  N   UNL     1      -7.088  -2.819   0.044  0.00  0.00    -0.238 NA
ATOM     12  C   UNL     1      -7.073  -4.144   0.043  0.00  0.00    +0.222 A 
ATOM     13  N   UNL     1      -5.961  -4.840   0.033  0.00  0.00    -0.234 NA
ATOM     14  H   UNL     1      -0.397  -2.578  -0.008  0.00  0.00    +0.157 HD
ENDROOT
BRANCH   1  16
ATOM     15  C   UNL     1      -0.016   1.326   0.009  0.00  0.00    +0.013 C 
ATOM     16  C   UNL     1       0.002  -0.004   0.002  0.00  0.00    +0.060 C 
ENDBRANCH   1  16
BRANCH  10  17
ATOM     17  C   UNL     1      -6.016  -0.608   0.040  0.00  0.00    +0.093 C 
BRANCH  17  18
ATOM     18  C   UNL     1      -6.040  -0.104  -1.380  0.00  0.00    -0.040 A 
ATOM     19  C   UNL     1      -4.853   0.154  -2.042  0.00  0.00    +0.007 A 
ATOM     20  C   UNL     1      -4.873   0.617  -3.344  0.00  0.00    +0.040 A 
ATOM     21  C   UNL     1      -6.082   0.821  -3.987  0.00  0.00    +0.142 A 
ATOM     22  C   UNL     1      -7.271   0.563  -3.323  0.00  0.00    +0.076 A 
ATOM     23  C   UNL     1      -7.247   0.095  -2.022  0.00  0.00    +0.027 A 
ATOM     24 CL   UNL     1      -8.788   0.819  -4.128  0.00  0.00    -0.081 Cl
ATOM     25  F   UNL     1      -6.103   1.274  -5.260  0.00  0.00    -0.204 F 
ENDBRANCH  17  18
ENDBRANCH  10  17
BRANCH   5  26
ATOM     26  C   UNL     1      -1.075  -4.937  -0.003  0.00  0.00    +0.039 C 
BRANCH  26  27
ATOM     27  C   UNL     1      -0.556  -5.071   1.430  0.00  0.00    +0.006 C 
BRANCH  27  28
ATOM     28  C   UNL     1       0.789  -5.801   1.419  0.00  0.00    +0.016 C 
BRANCH  28  29
ATOM     29  C   UNL     1       1.308  -5.935   2.852  0.00  0.00    +0.084 C 
BRANCH  29  30
ATOM     30  N   UNL     1       2.599  -6.636   2.841  0.00  0.00    -0.298 NA
ATOM     31  C   UNL     1       2.439  -8.030   2.402  0.00  0.00    +0.112 C 
ATOM     32  C   UNL     1       3.813  -8.703   2.348  0.00  0.00    +0.175 C 
ATOM     33  O   UNL     1       4.435  -8.608   3.632  0.00  0.00    -0.377 OA
ATOM     34  C   UNL     1       4.608  -7.264   4.091  0.00  0.00    +0.175 C 
ATOM     35  C   UNL     1       3.242  -6.576   4.162  0.00  0.00    +0.112 C 
ENDBRANCH  29  30
ENDBRANCH  28  29
ENDBRANCH  27  28
ENDBRANCH  26  27
ENDBRANCH   5  26
TORSDOF 8
