REMARK  Name = CHEMBL298679
REMARK  9 active torsions:
REMARK  status: ('A' for Active; 'I' for Inactive)
REMARK    1  A    between atoms: C_1  and  N_2
REMARK    2  A    between atoms: N_5  and  C_8
REMARK    3  A    between atoms: C_8  and  C_9
REMARK    4  A    between atoms: C_9  and  C_10
REMARK    5  A    between atoms: C_10  and  N_11
REMARK    6  A    between atoms: C_17  and  C_34
REMARK    7  A    between atoms: N_25  and  C_26
REMARK    8  A    between atoms: C_29  and  O_32
REMARK    9  A    between atoms: O_32  and  C_33
REMARK                            x       y       z     vdW  Elec       q    Type
REMARK                         _______ _______ _______ _____ _____    ______ ____
ROOT
ATOM      1  N   UNL     1       0.686  -6.640   3.474  0.00  0.00    -0.313 N 
ATOM      2  C   UNL     1       0.824  -8.003   3.658  0.00  0.00    +0.217 A 
ATOM      3  N   UNL     1       0.434  -8.821   2.683  0.00  0.00    -0.222 NA
ATOM      4  C   UNL     1       0.541 -10.129   2.801  0.00  0.00    +0.126 A 
ATOM      5  C   UNL     1       1.080 -10.653   3.988  0.00  0.00    +0.038 A 
ATOM      6  C   UNL     1       1.227 -12.036   4.190  0.00  0.00    +0.025 A 
ATOM      7  C   UNL     1       1.769 -12.463   5.391  0.00  0.00    +0.026 A 
ATOM      8  C   UNL     1       2.149 -11.509   6.359  0.00  0.00    +0.136 A 
ATOM      9  N   UNL     1       2.001 -10.217   6.147  0.00  0.00    -0.212 NA
ATOM     10  C   UNL     1       1.485  -9.752   5.008  0.00  0.00    +0.167 A 
ATOM     11  N   UNL     1       1.341  -8.439   4.791  0.00  0.00    -0.195 NA
ATOM     12  N   UNL     1       2.691 -11.941   7.561  0.00  0.00    -0.253 N 
ATOM     13  C   UNL     1       3.060 -11.043   8.496  0.00  0.00    +0.309 C 
ATOM     14  O   UNL     1       2.917  -9.854   8.286  0.00  0.00    -0.252 OA
ATOM     15  N   UNL     1       3.586 -11.462   9.663  0.00  0.00    -0.269 N 
ATOM     16  H   UNL     1       0.967  -6.026   4.170  0.00  0.00    +0.149 HD
ATOM     17  H   UNL     1       2.805 -12.890   7.729  0.00  0.00    +0.158 HD
ATOM     18  H   UNL     1       3.638 -12.411   9.859  0.00  0.00    +0.156 HD
ENDROOT
BRANCH   7  19
ATOM     19  C   UNL     1       1.947 -13.911   5.658  0.00  0.00    +0.022 A 
ATOM     20  C   UNL     1       0.923 -14.643   6.261  0.00  0.00    +0.050 A 
ATOM     21  C   UNL     1       1.095 -15.991   6.507  0.00  0.00    +0.021 A 
ATOM     22  C   UNL     1       2.279 -16.615   6.157  0.00  0.00    +0.003 A 
ATOM     23  C   UNL     1       3.298 -15.895   5.560  0.00  0.00    +0.021 A 
ATOM     24  C   UNL     1       3.136 -14.547   5.303  0.00  0.00    +0.050 A 
ATOM     25 CL   UNL     1       4.412 -13.646   4.546  0.00  0.00    -0.083 Cl
ATOM     26 CL   UNL     1      -0.563 -13.861   6.700  0.00  0.00    -0.083 Cl
ENDBRANCH   7  19
BRANCH  15  27
ATOM     27  C   UNL     1       4.058 -10.528  10.595  0.00  0.00    +0.035 A 
ATOM     28  C   UNL     1       5.174 -10.821  11.367  0.00  0.00    +0.027 A 
ATOM     29  C   UNL     1       5.639  -9.900  12.286  0.00  0.00    +0.047 A 
ATOM     30  C   UNL     1       4.991  -8.683  12.436  0.00  0.00    +0.120 A 
ATOM     31  C   UNL     1       3.876  -8.390  11.665  0.00  0.00    +0.047 A 
ATOM     32  C   UNL     1       3.414  -9.307  10.742  0.00  0.00    +0.027 A 
BRANCH  30  33
ATOM     33  O   UNL     1       5.450  -7.776  13.340  0.00  0.00    -0.495 OA
ATOM     34  C   UNL     1       4.734  -6.543  13.442  0.00  0.00    +0.277 C 
ENDBRANCH  30  33
ENDBRANCH  15  27
BRANCH   1  35
ATOM     35  C   UNL     1       0.116  -6.123   2.228  0.00  0.00    +0.102 C 
BRANCH  35  36
ATOM     36  C   UNL     1       0.075  -4.595   2.280  0.00  0.00    +0.000 C 
BRANCH  36  37
ATOM     37  C   UNL     1      -0.520  -4.055   0.979  0.00  0.00    -0.077 C 
BRANCH  37  42
ATOM     38  C   UNL     1       0.061   1.459  -0.027  0.00  0.00    +0.104 C 
ATOM     39  N   UNL     1       0.070  -0.010  -0.030  0.00  0.00    -0.309 NA
ATOM     40  C   UNL     1      -1.296  -0.546  -0.106  0.00  0.00    +0.065 C 
ATOM     41  C   UNL     1      -1.239  -2.074  -0.167  0.00  0.00    -0.063 C 
ATOM     42  N   UNL     1      -0.559  -2.587   1.029  0.00  0.00    +0.381 N 
ATOM     43  C   UNL     1       0.812  -2.063   1.078  0.00  0.00    -0.063 C 
ATOM     44  C   UNL     1       0.773  -0.535   1.149  0.00  0.00    +0.065 C 
ATOM     45  H   UNL     1      -1.060  -2.292   1.854  0.00  0.00    -0.082 HD
ENDBRANCH  37  42
ENDBRANCH  36  37
ENDBRANCH  35  36
ENDBRANCH   1  35
TORSDOF 7
