REMARK  Name = CHEMBL179577
REMARK  15 active torsions:
REMARK  status: ('A' for Active; 'I' for Inactive)
REMARK    1  A    between atoms: C_1  and  C_2
REMARK    2  A    between atoms: C_2  and  O_3
REMARK    3  A    between atoms: O_3  and  C_4
REMARK    4  A    between atoms: C_9  and  N_10
REMARK    5  A    between atoms: C_11  and  C_13
REMARK    6  A    between atoms: C_14  and  C_15
REMARK    7  A    between atoms: C_15  and  N_16
REMARK    8  A    between atoms: N_16  and  C_17
REMARK    9  A    between atoms: N_16  and  C_18
REMARK   10  A    between atoms: C_19  and  N_25
REMARK   11  A    between atoms: C_20  and  C_23
REMARK   12  A    between atoms: N_25  and  C_26
REMARK   13  A    between atoms: C_29  and  N_33
REMARK   14  A    between atoms: N_33  and  C_34
REMARK   15  A    between atoms: C_34  and  C_35
REMARK                            x       y       z     vdW  Elec       q    Type
REMARK                         _______ _______ _______ _____ _____    ______ ____
ROOT
ATOM      1  C   UNL     1       1.673  -3.735  -1.554  0.00  0.00    +0.144 A 
ATOM      2  C   UNL     1       0.364  -4.087  -1.319  0.00  0.00    +0.076 A 
ATOM      3  C   UNL     1       0.021  -4.760  -0.137  0.00  0.00    +0.076 A 
ATOM      4  C   UNL     1       1.035  -5.070   0.802  0.00  0.00    +0.025 A 
ATOM      5  C   UNL     1       2.364  -4.704   0.545  0.00  0.00    +0.039 A 
ATOM      6  C   UNL     1       2.677  -4.048  -0.624  0.00  0.00    +0.077 A 
ATOM      7  C   UNL     1       0.684  -5.749   1.992  0.00  0.00    +0.060 A 
ATOM      8  C   UNL     1      -0.666  -6.084   2.181  0.00  0.00    +0.091 A 
ATOM      9  C   UNL     1      -1.604  -5.737   1.196  0.00  0.00    +0.132 A 
ATOM     10  N   UNL     1      -1.251  -5.109   0.104  0.00  0.00    -0.253 NA
ENDROOT
BRANCH   6  11
ATOM     11  N   UNL     1       4.004  -3.686  -0.885  0.00  0.00    -0.279 N 
ATOM     12  C   UNL     1       4.846  -3.434   0.136  0.00  0.00    +0.241 C 
ATOM     13  O   UNL     1       4.486  -3.619   1.282  0.00  0.00    -0.271 OA
ATOM     14  H   UNL     1       4.317  -3.617  -1.801  0.00  0.00    +0.155 HD
BRANCH  12  15
ATOM     15  C   UNL     1       6.202  -2.934  -0.136  0.00  0.00    +0.061 C 
ATOM     16  C   UNL     1       7.034  -2.684   0.871  0.00  0.00    -0.040 C 
BRANCH  16  17
ATOM     17  C   UNL     1       8.424  -2.172   0.592  0.00  0.00    -0.052 C 
BRANCH  17  18
ATOM     18  N   UNL     1       8.643  -0.923   1.334  0.00  0.00    +0.378 N 
ATOM     19  C   UNL     1      10.035  -0.487   1.158  0.00  0.00    -0.096 C 
ATOM     20  C   UNL     1       7.737   0.115   0.824  0.00  0.00    -0.096 C 
ATOM     21  H   UNL     1       8.460  -1.077   2.314  0.00  0.00    -0.082 HD
ENDBRANCH  17  18
ENDBRANCH  16  17
ENDBRANCH  12  15
ENDBRANCH   6  11
BRANCH   8  22
ATOM     22  C   UNL     1      -1.082  -6.772   3.366  0.00  0.00    +0.103 C 
ATOM     23  N   UNL     1      -1.411  -7.318   4.306  0.00  0.00    -0.191 NA
ENDBRANCH   8  22
BRANCH   7  24
ATOM     24  N   UNL     1       1.637  -6.072   2.937  0.00  0.00    -0.313 N 
ATOM     25  H   UNL     1       1.950  -5.397   3.560  0.00  0.00    +0.152 HD
BRANCH  24  26
ATOM     26  C   UNL     1       2.152  -7.372   2.995  0.00  0.00    +0.033 A 
ATOM     27  C   UNL     1       2.007  -8.226   1.909  0.00  0.00    +0.025 A 
ATOM     28  C   UNL     1       2.514  -9.509   1.966  0.00  0.00    +0.026 A 
ATOM     29  C   UNL     1       3.170  -9.946   3.109  0.00  0.00    +0.046 A 
ATOM     30  C   UNL     1       3.317  -9.092   4.196  0.00  0.00    +0.064 A 
ATOM     31  C   UNL     1       2.813  -7.806   4.136  0.00  0.00    +0.045 A 
ATOM     32 CL   UNL     1       4.136  -9.638   5.625  0.00  0.00    -0.082 Cl
BRANCH  29  33
ATOM     33  N   UNL     1       3.684 -11.247   3.167  0.00  0.00    -0.339 N 
ATOM     34  H   UNL     1       4.143 -11.552   3.966  0.00  0.00    +0.146 HD
BRANCH  33  35
ATOM     35  C   UNL     1       3.530 -12.147   2.022  0.00  0.00    +0.137 C 
BRANCH  35  36
ATOM     36  C   UNL     1       4.165 -13.476   2.338  0.00  0.00    -0.030 A 
ATOM     37  C   UNL     1       5.498 -13.693   2.041  0.00  0.00    +0.005 A 
ATOM     38  C   UNL     1       6.081 -14.912   2.332  0.00  0.00    +0.000 A 
ATOM     39  C   UNL     1       5.332 -15.915   2.920  0.00  0.00    +0.000 A 
ATOM     40  C   UNL     1       4.000 -15.697   3.217  0.00  0.00    +0.000 A 
ATOM     41  C   UNL     1       3.418 -14.476   2.931  0.00  0.00    +0.005 A 
ENDBRANCH  35  36
ENDBRANCH  33  35
ENDBRANCH  29  33
ENDBRANCH  24  26
ENDBRANCH   7  24
BRANCH   1  42
ATOM     42  O   UNL     1       1.999  -3.083  -2.701  0.00  0.00    -0.490 OA
BRANCH  42  44
ATOM     43  C   UNL     1       1.489  -2.062  -4.831  0.00  0.00    +0.048 C 
ATOM     44  C   UNL     1       0.933  -2.793  -3.607  0.00  0.00    +0.226 C 
ENDBRANCH  42  44
ENDBRANCH   1  42
TORSDOF 12
