REMARK  Name = CHEMBL153170
REMARK  1 active torsions:
REMARK  status: ('A' for Active; 'I' for Inactive)
REMARK    1  A    between atoms: C_3  and  N_8
REMARK                            x       y       z     vdW  Elec       q    Type
REMARK                         _______ _______ _______ _____ _____    ______ ____
ROOT
ATOM      1  N   UNL     1       3.583   2.124  -0.021  0.00  0.00    -0.299 N 
ATOM      2  C   UNL     1       4.787   1.452   0.068  0.00  0.00    +0.136 A 
ATOM      3  C   UNL     1       6.002   2.157   0.173  0.00  0.00    +0.068 A 
ATOM      4  C   UNL     1       7.205   1.417   0.262  0.00  0.00    +0.078 A 
ATOM      5  C   UNL     1       8.430   2.095   0.366  0.00  0.00    +0.030 A 
ATOM      6  C   UNL     1       8.477   3.453   0.384  0.00  0.00    +0.030 A 
ATOM      7  C   UNL     1       7.318   4.226   0.298  0.00  0.00    +0.067 A 
ATOM      8  C   UNL     1       6.063   3.611   0.192  0.00  0.00    +0.101 A 
ATOM      9  N   UNL     1       5.143   4.591   0.127  0.00  0.00    -0.235 NA
ATOM     10  C   UNL     1       5.731   5.752   0.186  0.00  0.00    +0.197 A 
ATOM     11  N   UNL     1       7.075   5.585   0.292  0.00  0.00    -0.344 N 
ATOM     12  H   UNL     1       7.740   6.288   0.352  0.00  0.00    +0.167 HD
ATOM     13  N   UNL     1       7.136   0.078   0.242  0.00  0.00    -0.235 NA
ATOM     14  C   UNL     1       5.976  -0.528   0.143  0.00  0.00    +0.223 A 
ATOM     15  N   UNL     1       4.829   0.125   0.063  0.00  0.00    -0.220 NA
ATOM     16  H   UNL     1       3.558   3.089   0.073  0.00  0.00    +0.154 HD
ENDROOT
BRANCH   1  19
ATOM     17  C   UNL     1       0.046   1.130   0.112  0.00  0.00    +0.003 A 
ATOM     18  C   UNL     1       1.213   1.835   0.337  0.00  0.00    +0.023 A 
ATOM     19  C   UNL     1       2.401   1.413  -0.247  0.00  0.00    +0.033 A 
ATOM     20  C   UNL     1       2.411   0.283  -1.055  0.00  0.00    +0.038 A 
ATOM     21  C   UNL     1       1.241  -0.417  -1.276  0.00  0.00    +0.020 A 
ATOM     22  C   UNL     1       0.059   0.006  -0.693  0.00  0.00    +0.015 A 
ATOM     23 BR   UNL     1       1.253  -1.955  -2.376  0.00  0.00    -0.050 Br
ENDBRANCH   1  19
TORSDOF 1
