REMARK  Name = CHEMBL248114
REMARK  7 active torsions:
REMARK  status: ('A' for Active; 'I' for Inactive)
REMARK    1  A    between atoms: C_1  and  C_2
REMARK    2  A    between atoms: C_4  and  C_8
REMARK    3  A    between atoms: C_8  and  N_9
REMARK    4  A    between atoms: C_13  and  N_18
REMARK    5  A    between atoms: C_21  and  C_28
REMARK    6  A    between atoms: C_28  and  N_29
REMARK    7  A    between atoms: C_32  and  N_35
REMARK                            x       y       z     vdW  Elec       q    Type
REMARK                         _______ _______ _______ _____ _____    ______ ____
ROOT
ATOM      1  N   UNL     1       4.918  -0.560  -6.380  0.00  0.00    -0.298 N 
ATOM      2  C   UNL     1       4.684   0.620  -7.058  0.00  0.00    +0.151 A 
ATOM      3  C   UNL     1       5.721   1.241  -7.792  0.00  0.00    +0.110 A 
ATOM      4  C   UNL     1       7.046   0.930  -8.026  0.00  0.00    -0.003 A 
ATOM      5  C   UNL     1       7.561   1.941  -8.839  0.00  0.00    +0.027 A 
ATOM      6  C   UNL     1       6.563   2.832  -9.082  0.00  0.00    +0.113 A 
ATOM      7  N   UNL     1       5.444   2.421  -8.456  0.00  0.00    -0.235 N 
ATOM      8  N   UNL     1       4.147   2.946  -8.367  0.00  0.00    -0.155 NA
ATOM      9  C   UNL     1       3.236   2.322  -7.672  0.00  0.00    +0.245 A 
ATOM     10  N   UNL     1       3.486   1.181  -7.032  0.00  0.00    -0.217 NA
ATOM     11  H   UNL     1       5.812  -0.935  -6.353  0.00  0.00    +0.154 HD
ENDROOT
BRANCH   1  16
ATOM     12  N   UNL     1       0.868  -3.374  -3.896  0.00  0.00    -0.259 N 
ATOM     13  C   UNL     1       1.758  -2.481  -4.438  0.00  0.00    +0.069 A 
ATOM     14  C   UNL     1       1.829  -1.091  -4.466  0.00  0.00    +0.030 A 
ATOM     15  C   UNL     1       2.865  -0.471  -5.103  0.00  0.00    +0.025 A 
ATOM     16  C   UNL     1       3.864  -1.216  -5.732  0.00  0.00    +0.033 A 
ATOM     17  C   UNL     1       3.817  -2.595  -5.719  0.00  0.00    +0.034 A 
ATOM     18  C   UNL     1       2.760  -3.242  -5.070  0.00  0.00    +0.021 A 
ATOM     19  C   UNL     1       2.403  -4.643  -4.865  0.00  0.00    +0.143 A 
ATOM     20  N   UNL     1       1.299  -4.675  -4.174  0.00  0.00    -0.178 NA
BRANCH  12  21
ATOM     21  C   UNL     1      -0.338  -3.021  -3.142  0.00  0.00    +0.180 C 
BRANCH  21  25
ATOM     22  C   UNL     1       1.153  -0.344   0.839  0.00  0.00    +0.045 C 
ATOM     23  C   UNL     1       0.707  -1.639   0.210  0.00  0.00    -0.032 A 
ATOM     24  C   UNL     1       0.407  -1.696  -1.142  0.00  0.00    +0.011 A 
ATOM     25  C   UNL     1       0.001  -2.908  -1.678  0.00  0.00    -0.008 A 
ATOM     26  C   UNL     1      -0.090  -4.013  -0.852  0.00  0.00    +0.116 A 
ATOM     27  N   UNL     1       0.203  -3.922   0.430  0.00  0.00    -0.263 NA
ATOM     28  C   UNL     1       0.599  -2.787   0.973  0.00  0.00    +0.114 A 
ENDBRANCH  21  25
ENDBRANCH  12  21
ENDBRANCH   1  16
BRANCH   4  29
ATOM     29  C   UNL     1       7.793  -0.269  -7.503  0.00  0.00    +0.121 C 
BRANCH  29  30
ATOM     30  N   UNL     1       8.159  -0.044  -6.098  0.00  0.00    -0.298 NA
ATOM     31  C   UNL     1       9.162   1.022  -5.981  0.00  0.00    +0.083 C 
ATOM     32  C   UNL     1       9.411   1.329  -4.502  0.00  0.00    -0.001 C 
ATOM     33  C   UNL     1       9.902   0.061  -3.799  0.00  0.00    -0.073 C 
ATOM     34  C   UNL     1       8.862  -1.048  -3.977  0.00  0.00    -0.001 C 
ATOM     35  C   UNL     1       8.629  -1.286  -5.471  0.00  0.00    +0.083 C 
BRANCH  33  36
ATOM     36  N   UNL     1      10.088   0.334  -2.367  0.00  0.00    +0.380 N 
ATOM     37  H   UNL     1       9.209   0.623  -1.963  0.00  0.00    -0.090 HD
ATOM     38  H   UNL     1      10.412  -0.502  -1.904  0.00  0.00    -0.090 HD
ATOM     39  H   UNL     1      10.770   1.069  -2.250  0.00  0.00    -0.090 HD
ENDBRANCH  33  36
ENDBRANCH  29  30
ENDBRANCH   4  29
TORSDOF 6
