REMARK  Name = CHEMBL207130
REMARK  9 active torsions:
REMARK  status: ('A' for Active; 'I' for Inactive)
REMARK    1  A    between atoms: C_1  and  N_2
REMARK    2  A    between atoms: C_5  and  C_8
REMARK    3  A    between atoms: C_5  and  N_11
REMARK    4  A    between atoms: N_11  and  C_12
REMARK    5  A    between atoms: N_11  and  C_13
REMARK    6  A    between atoms: C_13  and  C_14
REMARK    7  A    between atoms: C_19  and  O_20
REMARK    8  A    between atoms: O_20  and  C_21
REMARK    9  A    between atoms: N_26  and  C_27
REMARK                            x       y       z     vdW  Elec       q    Type
REMARK                         _______ _______ _______ _____ _____    ______ ____
ROOT
ATOM      1  C   UNL     1      -1.354  -0.016   6.643  0.00  0.00    +0.009 A 
ATOM      2  C   UNL     1      -0.673   1.044   7.163  0.00  0.00    +0.022 A 
ATOM      3  C   UNL     1      -0.784   1.337   8.527  0.00  0.00    +0.041 A 
ATOM      4  C   UNL     1      -1.601   0.532   9.359  0.00  0.00    +0.079 A 
ATOM      5  C   UNL     1      -2.291  -0.551   8.802  0.00  0.00    +0.074 A 
ATOM      6  C   UNL     1      -2.167  -0.812   7.453  0.00  0.00    +0.127 A 
ATOM      7  N   UNL     1      -1.691   0.835  10.663  0.00  0.00    -0.235 NA
ATOM      8  C   UNL     1      -1.032   1.857  11.155  0.00  0.00    +0.223 A 
ATOM      9  N   UNL     1      -0.257   2.636  10.418  0.00  0.00    -0.220 NA
ATOM     10  C   UNL     1      -0.099   2.426   9.118  0.00  0.00    +0.134 A 
ATOM     11  N   UNL     1       0.713   3.246   8.361  0.00  0.00    -0.297 N 
ATOM     12  H   UNL     1       0.759   3.130   7.400  0.00  0.00    +0.154 HD
ENDROOT
BRANCH  11  13
ATOM     13  C   UNL     1       1.468   4.247   8.982  0.00  0.00    +0.070 A 
ATOM     14  C   UNL     1       1.744   4.170  10.341  0.00  0.00    +0.026 A 
ATOM     15  C   UNL     1       2.490   5.159  10.951  0.00  0.00    +0.003 A 
ATOM     16  C   UNL     1       2.965   6.226  10.211  0.00  0.00    +0.023 A 
ATOM     17  C   UNL     1       2.694   6.309   8.857  0.00  0.00    +0.078 A 
ATOM     18  C   UNL     1       1.950   5.318   8.238  0.00  0.00    +0.163 A 
ATOM     19  F   UNL     1       1.690   5.395   6.915  0.00  0.00    -0.202 F 
ATOM     20 CL   UNL     1       3.291   7.651   7.932  0.00  0.00    -0.081 Cl
ENDBRANCH  11  13
BRANCH   6  21
ATOM     21  O   UNL     1      -2.839  -1.859   6.908  0.00  0.00    -0.495 OA
ATOM     22  C   UNL     1      -3.654  -2.636   7.788  0.00  0.00    +0.277 C 
ENDBRANCH   6  21
BRANCH   1  23
ATOM     23  C   UNL     1      -1.232  -0.329   5.174  0.00  0.00    +0.124 C 
BRANCH  23  24
ATOM     24  N   UNL     1      -2.404   0.200   4.462  0.00  0.00    -0.288 NA
ATOM     25  C   UNL     1      -2.437   1.668   4.521  0.00  0.00    +0.106 C 
BRANCH  24  30
ATOM     26  C   UNL     1      -2.564   1.837   0.395  0.00  0.00    -0.096 C 
ATOM     27  N   UNL     1      -2.530   0.376   0.249  0.00  0.00    +0.378 N 
ATOM     28  C   UNL     1      -3.698  -0.208   0.921  0.00  0.00    -0.077 C 
ATOM     29  C   UNL     1      -3.713   0.219   2.390  0.00  0.00    +0.013 C 
ATOM     30  C   UNL     1      -2.432  -0.272   3.071  0.00  0.00    +0.095 C 
ATOM     31  C   UNL     1      -1.220   0.283   2.318  0.00  0.00    +0.013 C 
ATOM     32  C   UNL     1      -1.298  -0.146   0.851  0.00  0.00    -0.077 C 
ATOM     33  H   UNL     1      -2.553   0.136  -0.730  0.00  0.00    -0.082 HD
BRANCH  30  34
ATOM     34  C   UNL     1      -2.394  -1.778   3.047  0.00  0.00    +0.231 C 
ATOM     35  O   UNL     1      -1.671  -2.354   2.263  0.00  0.00    -0.274 OA
ATOM     36  N   UNL     1      -3.164  -2.485   3.898  0.00  0.00    -0.328 N 
ATOM     37  H   UNL     1      -3.790  -2.027   4.481  0.00  0.00    +0.145 HD
ATOM     38  H   UNL     1      -3.091  -3.452   3.928  0.00  0.00    +0.145 HD
ENDBRANCH  30  34
ENDBRANCH  24  30
ENDBRANCH  23  24
ENDBRANCH   1  23
TORSDOF 6
