REMARK  Name = CHEMBL202556
REMARK  5 active torsions:
REMARK  status: ('A' for Active; 'I' for Inactive)
REMARK    1  A    between atoms: C_6  and  N_7
REMARK    2  A    between atoms: C_11  and  N_18
REMARK    3  A    between atoms: C_19  and  C_21
REMARK    4  A    between atoms: C_22  and  C_23
REMARK    5  A    between atoms: C_23  and  N_24
REMARK                            x       y       z     vdW  Elec       q    Type
REMARK                         _______ _______ _______ _____ _____    ______ ____
ROOT
ATOM      1  N   UNL     1      -1.200  -0.723   0.036  0.00  0.00    -0.299 N 
ATOM      2  C   UNL     1      -1.183  -2.097  -0.084  0.00  0.00    +0.134 A 
ATOM      3  C   UNL     1      -2.420  -2.864  -0.202  0.00  0.00    +0.045 A 
ATOM      4  C   UNL     1      -3.687  -2.276  -0.203  0.00  0.00    +0.057 A 
ATOM      5  C   UNL     1      -4.793  -3.100  -0.320  0.00  0.00    +0.126 A 
ATOM      6  N   UNL     1      -4.666  -4.418  -0.430  0.00  0.00    -0.238 NA
ATOM      7  C   UNL     1      -3.499  -5.022  -0.436  0.00  0.00    +0.141 A 
ATOM      8  C   UNL     1      -2.321  -4.273  -0.322  0.00  0.00    +0.094 A 
ATOM      9  N   UNL     1      -1.103  -4.830  -0.321  0.00  0.00    -0.234 NA
ATOM     10  C   UNL     1      -0.025  -4.093  -0.213  0.00  0.00    +0.224 A 
ATOM     11  N   UNL     1      -0.041  -2.775  -0.103  0.00  0.00    -0.220 NA
ATOM     12  H   UNL     1      -2.045  -0.254   0.122  0.00  0.00    +0.154 HD
ENDROOT
BRANCH   1  18
ATOM     13  C   UNL     1       1.081  -0.462  -0.711  0.00  0.00    +0.026 A 
ATOM     14  C   UNL     1       2.267   0.247  -0.713  0.00  0.00    +0.041 A 
ATOM     15  C   UNL     1       2.378   1.413   0.026  0.00  0.00    +0.142 A 
ATOM     16  C   UNL     1       1.302   1.871   0.769  0.00  0.00    +0.078 A 
ATOM     17  C   UNL     1       0.114   1.164   0.773  0.00  0.00    +0.046 A 
ATOM     18  C   UNL     1       0.001  -0.006   0.033  0.00  0.00    +0.034 A 
ATOM     19 CL   UNL     1       1.445   3.332   1.694  0.00  0.00    -0.081 Cl
ATOM     20  F   UNL     1       3.539   2.105   0.022  0.00  0.00    -0.204 F 
ENDBRANCH   1  18
BRANCH   5  21
ATOM     21  N   UNL     1      -6.068  -2.534  -0.323  0.00  0.00    -0.260 N 
ATOM     22  C   UNL     1      -7.157  -3.328  -0.327  0.00  0.00    +0.294 C 
ATOM     23  O   UNL     1      -7.030  -4.534  -0.421  0.00  0.00    -0.260 OA
ATOM     24  H   UNL     1      -6.171  -1.570  -0.322  0.00  0.00    +0.157 HD
BRANCH  22  25
ATOM     25  C   UNL     1      -8.464  -2.752  -0.222  0.00  0.00    -0.006 C 
ATOM     26  C   UNL     1      -9.535  -2.279  -0.135  0.00  0.00    -0.077 C 
BRANCH  26  27
ATOM     27  C   UNL     1     -10.878  -1.687  -0.027  0.00  0.00    +0.174 C 
BRANCH  27  28
ATOM     28  N   UNL     1     -11.888  -2.754  -0.055  0.00  0.00    -0.287 NA
ATOM     29  C   UNL     1     -11.912  -3.422  -1.364  0.00  0.00    +0.113 C 
ATOM     30  C   UNL     1     -12.933  -4.562  -1.330  0.00  0.00    +0.175 C 
ATOM     31  O   UNL     1     -14.213  -4.039  -0.965  0.00  0.00    -0.377 OA
ATOM     32  C   UNL     1     -14.226  -3.382   0.305  0.00  0.00    +0.175 C 
ATOM     33  C   UNL     1     -13.218  -2.229   0.287  0.00  0.00    +0.113 C 
ENDBRANCH  27  28
ENDBRANCH  26  27
ENDBRANCH  22  25
ENDBRANCH   5  21
TORSDOF 5
