REMARK  Name = CHEMBL31276
REMARK  8 active torsions:
REMARK  status: ('A' for Active; 'I' for Inactive)
REMARK    1  A    between atoms: C_1  and  N_2
REMARK    2  A    between atoms: N_2  and  C_3
REMARK    3  A    between atoms: N_2  and  C_4
REMARK    4  A    between atoms: C_4  and  C_5
REMARK    5  A    between atoms: C_6  and  C_7
REMARK    6  A    between atoms: C_18  and  C_28
REMARK    7  A    between atoms: C_19  and  N_20
REMARK    8  A    between atoms: N_20  and  C_21
REMARK                            x       y       z     vdW  Elec       q    Type
REMARK                         _______ _______ _______ _____ _____    ______ ____
ROOT
ATOM      1  C   UNL     1      -9.668   0.068  -5.716  0.00  0.00    +0.242 C 
ATOM      2  O   UNL     1      -9.881  -0.842  -6.495  0.00  0.00    -0.270 OA
ATOM      3  N   UNL     1      -8.551   0.812  -5.838  0.00  0.00    -0.267 N 
ATOM      4  C   UNL     1      -7.593   0.480  -6.796  0.00  0.00    +0.126 A 
ATOM      5  C   UNL     1      -6.404   1.185  -6.839  0.00  0.00    +0.055 A 
ATOM      6  C   UNL     1      -5.454   0.837  -7.807  0.00  0.00    +0.028 A 
ATOM      7  C   UNL     1      -5.751  -0.221  -8.702  0.00  0.00    +0.091 A 
ATOM      8  C   UNL     1      -6.987  -0.875  -8.577  0.00  0.00    +0.141 A 
ATOM      9  N   UNL     1      -7.839  -0.510  -7.647  0.00  0.00    -0.238 NA
ATOM     10  N   UNL     1      -4.864  -0.579  -9.640  0.00  0.00    -0.252 NA
ATOM     11  C   UNL     1      -3.709   0.024  -9.765  0.00  0.00    +0.132 A 
ATOM     12  C   UNL     1      -3.332   1.082  -8.921  0.00  0.00    +0.091 A 
ATOM     13  C   UNL     1      -4.213   1.508  -7.917  0.00  0.00    +0.060 A 
ATOM     14  H   UNL     1      -8.413   1.579  -5.260  0.00  0.00    +0.157 HD
ENDROOT
BRANCH   1  16
ATOM     15  C   UNL     1     -11.730  -0.380  -4.519  0.00  0.00    -0.007 C 
ATOM     16  C   UNL     1     -10.628   0.354  -4.640  0.00  0.00    +0.064 C 
BRANCH  15  17
ATOM     17  C   UNL     1     -12.715  -0.086  -3.417  0.00  0.00    +0.111 C 
BRANCH  17  19
ATOM     18  C   UNL     1     -14.563  -1.104  -4.604  0.00  0.00    +0.104 C 
ATOM     19  N   UNL     1     -14.048   0.129  -3.995  0.00  0.00    -0.305 NA
ATOM     20  C   UNL     1     -14.982   0.649  -2.987  0.00  0.00    +0.104 C 
ENDBRANCH  17  19
ENDBRANCH  15  17
ENDBRANCH   1  16
BRANCH  13  21
ATOM     21  N   UNL     1      -3.882   2.543  -7.067  0.00  0.00    -0.313 N 
ATOM     22  H   UNL     1      -3.403   2.361  -6.244  0.00  0.00    +0.152 HD
BRANCH  21  23
ATOM     23  C   UNL     1      -4.238   3.855  -7.392  0.00  0.00    +0.032 A 
ATOM     24  C   UNL     1      -5.000   4.109  -8.526  0.00  0.00    +0.023 A 
ATOM     25  C   UNL     1      -5.350   5.406  -8.844  0.00  0.00    +0.003 A 
ATOM     26  C   UNL     1      -4.944   6.452  -8.036  0.00  0.00    +0.015 A 
ATOM     27  C   UNL     1      -4.185   6.203  -6.906  0.00  0.00    +0.020 A 
ATOM     28  C   UNL     1      -3.836   4.907  -6.579  0.00  0.00    +0.038 A 
ATOM     29 BR   UNL     1      -3.632   7.637  -5.805  0.00  0.00    -0.050 Br
ENDBRANCH  21  23
ENDBRANCH  13  21
BRANCH  12  30
ATOM     30  C   UNL     1      -2.059   1.718  -9.084  0.00  0.00    +0.103 C 
ATOM     31  N   UNL     1      -1.050   2.223  -9.213  0.00  0.00    -0.191 NA
ENDBRANCH  12  30
TORSDOF 6
