REMARK  Name = CHEMBL179274
REMARK  14 active torsions:
REMARK  status: ('A' for Active; 'I' for Inactive)
REMARK    1  A    between atoms: C_1  and  C_2
REMARK    2  A    between atoms: C_2  and  O_3
REMARK    3  A    between atoms: O_3  and  C_4
REMARK    4  A    between atoms: C_9  and  N_10
REMARK    5  A    between atoms: C_11  and  C_13
REMARK    6  A    between atoms: C_14  and  C_15
REMARK    7  A    between atoms: C_15  and  N_16
REMARK    8  A    between atoms: N_16  and  C_17
REMARK    9  A    between atoms: N_16  and  C_18
REMARK   10  A    between atoms: C_19  and  N_25
REMARK   11  A    between atoms: C_20  and  C_23
REMARK   12  A    between atoms: N_25  and  C_26
REMARK   13  A    between atoms: C_29  and  O_33
REMARK   14  A    between atoms: O_33  and  C_34
REMARK                            x       y       z     vdW  Elec       q    Type
REMARK                         _______ _______ _______ _____ _____    ______ ____
ROOT
ATOM      1  C   UNL     1       4.305  -4.449  -0.887  0.00  0.00    +0.144 A 
ATOM      2  C   UNL     1       2.973  -4.426  -1.231  0.00  0.00    +0.076 A 
ATOM      3  C   UNL     1       2.014  -4.948  -0.350  0.00  0.00    +0.076 A 
ATOM      4  C   UNL     1       2.433  -5.493   0.887  0.00  0.00    +0.025 A 
ATOM      5  C   UNL     1       3.796  -5.507   1.221  0.00  0.00    +0.039 A 
ATOM      6  C   UNL     1       4.719  -4.994   0.338  0.00  0.00    +0.077 A 
ATOM      7  C   UNL     1       1.462  -6.017   1.772  0.00  0.00    +0.060 A 
ATOM      8  C   UNL     1       0.118  -5.969   1.371  0.00  0.00    +0.091 A 
ATOM      9  C   UNL     1      -0.207  -5.410   0.125  0.00  0.00    +0.132 A 
ATOM     10  N   UNL     1       0.712  -4.933  -0.674  0.00  0.00    -0.253 NA
ENDROOT
BRANCH   6  11
ATOM     11  N   UNL     1       6.080  -5.013   0.666  0.00  0.00    -0.279 N 
ATOM     12  C   UNL     1       6.464  -4.909   1.954  0.00  0.00    +0.241 C 
ATOM     13  O   UNL     1       5.630  -4.909   2.839  0.00  0.00    -0.271 OA
ATOM     14  H   UNL     1       6.747  -5.101  -0.033  0.00  0.00    +0.155 HD
BRANCH  12  15
ATOM     15  C   UNL     1       7.891  -4.794   2.288  0.00  0.00    +0.061 C 
ATOM     16  C   UNL     1       8.270  -4.691   3.559  0.00  0.00    -0.040 C 
BRANCH  16  17
ATOM     17  C   UNL     1       9.733  -4.574   3.902  0.00  0.00    -0.052 C 
BRANCH  17  18
ATOM     18  N   UNL     1       9.950  -3.371   4.717  0.00  0.00    +0.378 N 
ATOM     19  C   UNL     1       9.260  -3.520   6.005  0.00  0.00    -0.096 C 
ATOM     20  C   UNL     1      11.389  -3.191   4.950  0.00  0.00    -0.096 C 
ATOM     21  H   UNL     1       9.585  -2.565   4.231  0.00  0.00    -0.082 HD
ENDBRANCH  17  18
ENDBRANCH  16  17
ENDBRANCH  12  15
ENDBRANCH   6  11
BRANCH   8  22
ATOM     22  C   UNL     1      -0.910  -6.486   2.223  0.00  0.00    +0.103 C 
ATOM     23  N   UNL     1      -1.726  -6.895   2.900  0.00  0.00    -0.191 NA
ENDBRANCH   8  22
BRANCH   7  24
ATOM     24  N   UNL     1       1.824  -6.559   2.988  0.00  0.00    -0.313 N 
ATOM     25  H   UNL     1       1.872  -5.994   3.776  0.00  0.00    +0.152 HD
BRANCH  24  26
ATOM     26  C   UNL     1       2.123  -7.923   3.086  0.00  0.00    +0.033 A 
ATOM     27  C   UNL     1       2.176  -8.706   1.941  0.00  0.00    +0.027 A 
ATOM     28  C   UNL     1       2.471 -10.052   2.038  0.00  0.00    +0.049 A 
ATOM     29  C   UNL     1       2.714 -10.621   3.279  0.00  0.00    +0.140 A 
ATOM     30  C   UNL     1       2.660  -9.840   4.425  0.00  0.00    +0.084 A 
ATOM     31  C   UNL     1       2.371  -8.492   4.328  0.00  0.00    +0.047 A 
ATOM     32 CL   UNL     1       2.963 -10.554   5.978  0.00  0.00    -0.080 Cl
BRANCH  29  33
ATOM     33  O   UNL     1       3.004 -11.947   3.373  0.00  0.00    -0.483 OA
BRANCH  33  34
ATOM     34  C   UNL     1       2.967 -12.707   2.163  0.00  0.00    +0.204 C 
ATOM     35  C   UNL     1       2.640 -14.184   2.468  0.00  0.00    +0.054 C 
ATOM     36  C   UNL     1       4.044 -14.811   2.610  0.00  0.00    +0.039 C 
ATOM     37  C   UNL     1       4.954 -13.939   1.772  0.00  0.00    -0.041 A 
ATOM     38  C   UNL     1       4.335 -12.727   1.515  0.00  0.00    -0.004 A 
ATOM     39  C   UNL     1       4.985 -11.764   0.761  0.00  0.00    +0.007 A 
ATOM     40  C   UNL     1       6.250 -12.009   0.263  0.00  0.00    +0.000 A 
ATOM     41  C   UNL     1       6.870 -13.217   0.519  0.00  0.00    +0.000 A 
ATOM     42  C   UNL     1       6.223 -14.183   1.274  0.00  0.00    +0.004 A 
ENDBRANCH  33  34
ENDBRANCH  29  33
ENDBRANCH  24  26
ENDBRANCH   7  24
BRANCH   1  43
ATOM     43  O   UNL     1       5.229  -3.942  -1.744  0.00  0.00    -0.490 OA
BRANCH  43  45
ATOM     44  C   UNL     1       5.923  -2.882  -3.802  0.00  0.00    +0.048 C 
ATOM     45  C   UNL     1       4.745  -3.401  -2.975  0.00  0.00    +0.226 C 
ENDBRANCH  43  45
ENDBRANCH   1  43
TORSDOF 11
