REMARK  Name = CHEMBL248115
REMARK  8 active torsions:
REMARK  status: ('A' for Active; 'I' for Inactive)
REMARK    1  A    between atoms: C_1  and  C_2
REMARK    2  A    between atoms: C_4  and  C_8
REMARK    3  A    between atoms: C_8  and  O_9
REMARK    4  A    between atoms: O_9  and  C_10
REMARK    5  A    between atoms: C_13  and  N_17
REMARK    6  A    between atoms: C_20  and  C_27
REMARK    7  A    between atoms: C_27  and  N_28
REMARK    8  A    between atoms: C_31  and  N_34
REMARK                            x       y       z     vdW  Elec       q    Type
REMARK                         _______ _______ _______ _____ _____    ______ ____
ROOT
ATOM      1  N   UNL     1       2.169  -5.679  -7.735  0.00  0.00    -0.298 N 
ATOM      2  C   UNL     1       3.432  -5.944  -8.228  0.00  0.00    +0.151 A 
ATOM      3  C   UNL     1       3.597  -6.761  -9.370  0.00  0.00    +0.110 A 
ATOM      4  C   UNL     1       2.721  -7.430 -10.203  0.00  0.00    -0.003 A 
ATOM      5  C   UNL     1       3.494  -8.074 -11.170  0.00  0.00    +0.027 A 
ATOM      6  C   UNL     1       4.799  -7.794 -10.916  0.00  0.00    +0.113 A 
ATOM      7  N   UNL     1       4.877  -7.001  -9.831  0.00  0.00    -0.235 N 
ATOM      8  N   UNL     1       5.952  -6.422  -9.141  0.00  0.00    -0.155 NA
ATOM      9  C   UNL     1       5.730  -5.678  -8.093  0.00  0.00    +0.245 A 
ATOM     10  N   UNL     1       4.501  -5.433  -7.641  0.00  0.00    -0.217 NA
ATOM     11  H   UNL     1       1.395  -6.110  -8.128  0.00  0.00    +0.154 HD
ENDROOT
BRANCH   1  15
ATOM     12  C   UNL     1       1.687  -3.025  -4.555  0.00  0.00    +0.139 A 
ATOM     13  C   UNL     1       0.749  -3.063  -5.576  0.00  0.00    +0.049 A 
ATOM     14  C   UNL     1       0.908  -3.941  -6.629  0.00  0.00    +0.027 A 
ATOM     15  C   UNL     1       2.008  -4.788  -6.667  0.00  0.00    +0.034 A 
ATOM     16  C   UNL     1       2.948  -4.751  -5.646  0.00  0.00    +0.047 A 
ATOM     17  C   UNL     1       2.790  -3.867  -4.594  0.00  0.00    +0.084 A 
ATOM     18 CL   UNL     1       3.968  -3.815  -3.320  0.00  0.00    -0.080 Cl
BRANCH  12  19
ATOM     19  O   UNL     1       1.530  -2.159  -3.518  0.00  0.00    -0.486 OA
BRANCH  19  20
ATOM     20  C   UNL     1       0.371  -1.323  -3.542  0.00  0.00    +0.266 C 
BRANCH  20  24
ATOM     21  C   UNL     1       1.597   2.947  -1.197  0.00  0.00    +0.045 C 
ATOM     22  C   UNL     1       0.948   1.588  -1.211  0.00  0.00    -0.032 A 
ATOM     23  C   UNL     1       0.977   0.807  -2.356  0.00  0.00    +0.013 A 
ATOM     24  C   UNL     1       0.366  -0.437  -2.323  0.00  0.00    +0.008 A 
ATOM     25  C   UNL     1      -0.248  -0.855  -1.157  0.00  0.00    +0.117 A 
ATOM     26  N   UNL     1      -0.257  -0.085  -0.086  0.00  0.00    -0.263 NA
ATOM     27  C   UNL     1       0.319   1.101  -0.080  0.00  0.00    +0.114 A 
ENDBRANCH  20  24
ENDBRANCH  19  20
ENDBRANCH  12  19
ENDBRANCH   1  15
BRANCH   4  28
ATOM     28  C   UNL     1       1.218  -7.458 -10.089  0.00  0.00    +0.121 C 
BRANCH  28  29
ATOM     29  N   UNL     1       0.825  -8.403  -9.036  0.00  0.00    -0.298 NA
ATOM     30  C   UNL     1       1.106  -9.787  -9.439  0.00  0.00    +0.083 C 
ATOM     31  C   UNL     1       0.820 -10.729  -8.268  0.00  0.00    -0.001 C 
ATOM     32  C   UNL     1      -0.646 -10.588  -7.851  0.00  0.00    -0.073 C 
ATOM     33  C   UNL     1      -0.925  -9.128  -7.482  0.00  0.00    -0.001 C 
ATOM     34  C   UNL     1      -0.589  -8.232  -8.676  0.00  0.00    +0.083 C 
BRANCH  32  35
ATOM     35  N   UNL     1      -0.911 -11.447  -6.689  0.00  0.00    +0.380 N 
ATOM     36  H   UNL     1      -0.316 -11.170  -5.923  0.00  0.00    -0.090 HD
ATOM     37  H   UNL     1      -1.878 -11.352  -6.415  0.00  0.00    -0.090 HD
ATOM     38  H   UNL     1      -0.723 -12.408  -6.931  0.00  0.00    -0.090 HD
ENDBRANCH  32  35
ENDBRANCH  28  29
ENDBRANCH   4  28
TORSDOF 7
