REMARK  Name = CHEMBL179458
REMARK  12 active torsions:
REMARK  status: ('A' for Active; 'I' for Inactive)
REMARK    1  A    between atoms: C_1  and  N_2
REMARK    2  A    between atoms: N_2  and  C_3
REMARK    3  A    between atoms: N_2  and  C_4
REMARK    4  A    between atoms: C_4  and  C_5
REMARK    5  A    between atoms: C_6  and  C_7
REMARK    6  A    between atoms: N_9  and  C_10
REMARK    7  A    between atoms: C_15  and  O_16
REMARK    8  A    between atoms: O_16  and  C_17
REMARK    9  A    between atoms: C_20  and  C_35
REMARK   10  A    between atoms: C_21  and  N_22
REMARK   11  A    between atoms: N_22  and  C_23
REMARK   12  A    between atoms: C_26  and  N_30
REMARK                            x       y       z     vdW  Elec       q    Type
REMARK                         _______ _______ _______ _____ _____    ______ ____
ROOT
ATOM      1  C   UNL     1      -6.872  -0.582  -7.225  0.00  0.00    +0.077 A 
ATOM      2  C   UNL     1      -6.028   0.487  -7.023  0.00  0.00    +0.039 A 
ATOM      3  C   UNL     1      -5.021   0.764  -7.959  0.00  0.00    +0.025 A 
ATOM      4  C   UNL     1      -4.876  -0.054  -9.105  0.00  0.00    +0.076 A 
ATOM      5  C   UNL     1      -5.748  -1.138  -9.289  0.00  0.00    +0.076 A 
ATOM      6  C   UNL     1      -6.726  -1.398  -8.357  0.00  0.00    +0.143 A 
ATOM      7  N   UNL     1      -3.914   0.206 -10.002  0.00  0.00    -0.253 NA
ATOM      8  C   UNL     1      -3.084   1.208  -9.860  0.00  0.00    +0.132 A 
ATOM      9  C   UNL     1      -3.156   2.071  -8.755  0.00  0.00    +0.091 A 
ATOM     10  C   UNL     1      -4.140   1.856  -7.778  0.00  0.00    +0.060 A 
ENDROOT
BRANCH   1  13
ATOM     11  C   UNL     1      -7.741  -0.458  -5.013  0.00  0.00    +0.241 C 
ATOM     12  O   UNL     1      -6.700   0.052  -4.644  0.00  0.00    -0.271 OA
ATOM     13  N   UNL     1      -7.878  -0.861  -6.292  0.00  0.00    -0.279 N 
ATOM     14  H   UNL     1      -8.673  -1.343  -6.566  0.00  0.00    +0.155 HD
BRANCH  11  16
ATOM     15  C   UNL     1      -8.715  -0.237  -2.802  0.00  0.00    -0.007 C 
ATOM     16  C   UNL     1      -8.850  -0.634  -4.064  0.00  0.00    +0.064 C 
BRANCH  15  17
ATOM     17  C   UNL     1      -9.852  -0.418  -1.829  0.00  0.00    +0.111 C 
BRANCH  17  19
ATOM     18  C   UNL     1      -8.390  -0.396   0.101  0.00  0.00    +0.104 C 
ATOM     19  N   UNL     1      -9.380  -1.171  -0.659  0.00  0.00    -0.305 NA
ATOM     20  C   UNL     1     -10.504  -1.572   0.197  0.00  0.00    +0.104 C 
ENDBRANCH  17  19
ENDBRANCH  15  17
ENDBRANCH  11  16
ENDBRANCH   1  13
BRANCH   6  21
ATOM     21  O   UNL     1      -7.563  -2.453  -8.538  0.00  0.00    -0.493 OA
ATOM     22  C   UNL     1      -7.364  -3.246  -9.710  0.00  0.00    +0.277 C 
ENDBRANCH   6  21
BRANCH  10  23
ATOM     23  N   UNL     1      -4.243   2.681  -6.676  0.00  0.00    -0.313 N 
ATOM     24  H   UNL     1      -4.051   2.334  -5.791  0.00  0.00    +0.152 HD
BRANCH  23  25
ATOM     25  C   UNL     1      -4.625   4.016  -6.836  0.00  0.00    +0.033 A 
ATOM     26  C   UNL     1      -5.524   4.367  -7.837  0.00  0.00    +0.025 A 
ATOM     27  C   UNL     1      -5.902   5.685  -7.995  0.00  0.00    +0.029 A 
ATOM     28  C   UNL     1      -5.384   6.661  -7.154  0.00  0.00    +0.066 A 
ATOM     29  C   UNL     1      -4.486   6.312  -6.154  0.00  0.00    +0.067 A 
ATOM     30  C   UNL     1      -4.112   4.992  -5.992  0.00  0.00    +0.045 A 
ATOM     31 CL   UNL     1      -3.838   7.533  -5.103  0.00  0.00    -0.081 Cl
BRANCH  28  32
ATOM     32  N   UNL     1      -5.769   8.002  -7.315  0.00  0.00    -0.304 N 
ATOM     33  C   UNL     1      -6.212   8.846  -6.331  0.00  0.00    +0.112 A 
ATOM     34  C   UNL     1      -6.469  10.030  -6.919  0.00  0.00    +0.130 A 
ATOM     35  N   UNL     1      -6.192   9.917  -8.226  0.00  0.00    -0.244 NA
ATOM     36  C   UNL     1      -5.766   8.708  -8.475  0.00  0.00    +0.204 A 
ENDBRANCH  28  32
ENDBRANCH  23  25
ENDBRANCH  10  23
BRANCH   9  37
ATOM     37  C   UNL     1      -2.234   3.160  -8.626  0.00  0.00    +0.103 C 
ATOM     38  N   UNL     1      -1.503   4.023  -8.523  0.00  0.00    -0.191 NA
ENDBRANCH   9  37
TORSDOF 9
