REMARK  Name = CHEMBL204420
REMARK  7 active torsions:
REMARK  status: ('A' for Active; 'I' for Inactive)
REMARK    1  A    between atoms: C_1  and  N_2
REMARK    2  A    between atoms: N_5  and  C_11
REMARK    3  A    between atoms: C_6  and  C_8
REMARK    4  A    between atoms: C_11  and  C_12
REMARK    5  A    between atoms: C_17  and  O_18
REMARK    6  A    between atoms: O_18  and  C_19
REMARK    7  A    between atoms: N_24  and  C_25
REMARK                            x       y       z     vdW  Elec       q    Type
REMARK                         _______ _______ _______ _____ _____    ______ ____
ROOT
ATOM      1  C   UNL     1      -1.686  -5.284   1.101  0.00  0.00    +0.009 A 
ATOM      2  C   UNL     1      -2.205  -5.479   2.346  0.00  0.00    +0.022 A 
ATOM      3  C   UNL     1      -3.479  -6.040   2.486  0.00  0.00    +0.041 A 
ATOM      4  C   UNL     1      -4.223  -6.401   1.334  0.00  0.00    +0.079 A 
ATOM      5  C   UNL     1      -3.669  -6.190   0.066  0.00  0.00    +0.074 A 
ATOM      6  C   UNL     1      -2.413  -5.630  -0.041  0.00  0.00    +0.127 A 
ATOM      7  N   UNL     1      -5.443  -6.936   1.495  0.00  0.00    -0.235 NA
ATOM      8  C   UNL     1      -5.934  -7.121   2.697  0.00  0.00    +0.223 A 
ATOM      9  N   UNL     1      -5.278  -6.800   3.801  0.00  0.00    -0.220 NA
ATOM     10  C   UNL     1      -4.064  -6.264   3.755  0.00  0.00    +0.134 A 
ATOM     11  N   UNL     1      -3.392  -5.935   4.913  0.00  0.00    -0.297 N 
ATOM     12  H   UNL     1      -2.548  -5.458   4.865  0.00  0.00    +0.154 HD
ENDROOT
BRANCH  11  13
ATOM     13  C   UNL     1      -3.925  -6.288   6.157  0.00  0.00    +0.070 A 
ATOM     14  C   UNL     1      -4.892  -7.282   6.243  0.00  0.00    +0.026 A 
ATOM     15  C   UNL     1      -5.418  -7.630   7.472  0.00  0.00    +0.003 A 
ATOM     16  C   UNL     1      -4.983  -6.990   8.618  0.00  0.00    +0.023 A 
ATOM     17  C   UNL     1      -4.020  -6.000   8.539  0.00  0.00    +0.078 A 
ATOM     18  C   UNL     1      -3.485  -5.650   7.311  0.00  0.00    +0.163 A 
ATOM     19  F   UNL     1      -2.541  -4.687   7.234  0.00  0.00    -0.202 F 
ATOM     20 CL   UNL     1      -3.477  -5.199   9.981  0.00  0.00    -0.081 Cl
ENDBRANCH  11  13
BRANCH   6  21
ATOM     21  O   UNL     1      -1.875  -5.419  -1.269  0.00  0.00    -0.495 OA
ATOM     22  C   UNL     1      -2.667  -5.794  -2.398  0.00  0.00    +0.277 C 
ENDBRANCH   6  21
BRANCH   1  23
ATOM     23  C   UNL     1      -0.313  -4.679   0.954  0.00  0.00    +0.124 C 
BRANCH  23  28
ATOM     24  C   UNL     1      -0.057   0.547  -1.173  0.00  0.00    +0.105 C 
ATOM     25  N   UNL     1       0.069  -0.883  -0.859  0.00  0.00    -0.302 NA
ATOM     26  C   UNL     1      -1.236  -1.556  -0.937  0.00  0.00    +0.099 C 
ATOM     27  C   UNL     1      -1.050  -3.053  -0.682  0.00  0.00    +0.101 C 
ATOM     28  N   UNL     1      -0.438  -3.250   0.639  0.00  0.00    -0.285 NA
ATOM     29  C   UNL     1       0.866  -2.577   0.718  0.00  0.00    +0.157 C 
ATOM     30  C   UNL     1       0.681  -1.080   0.463  0.00  0.00    +0.112 C 
BRANCH  29  31
ATOM     31  C   UNL     1       1.792  -3.154  -0.321  0.00  0.00    +0.229 C 
ATOM     32  O   UNL     1       1.405  -4.038  -1.055  0.00  0.00    -0.274 OA
ATOM     33  N   UNL     1       3.051  -2.687  -0.435  0.00  0.00    -0.328 N 
ATOM     34  H   UNL     1       3.361  -1.980   0.152  0.00  0.00    +0.145 HD
ATOM     35  H   UNL     1       3.648  -3.058  -1.104  0.00  0.00    +0.145 HD
ENDBRANCH  29  31
ENDBRANCH  23  28
ENDBRANCH   1  23
TORSDOF 5
