REMARK  Name = CHEMBL304971
REMARK  6 active torsions:
REMARK  status: ('A' for Active; 'I' for Inactive)
REMARK    1  A    between atoms: C_1  and  C_2
REMARK    2  A    between atoms: C_3  and  C_28
REMARK    3  A    between atoms: C_7  and  C_8
REMARK    4  A    between atoms: C_15  and  N_16
REMARK    5  A    between atoms: N_16  and  C_17
REMARK    6  A    between atoms: N_33  and  C_36
REMARK                            x       y       z     vdW  Elec       q    Type
REMARK                         _______ _______ _______ _____ _____    ______ ____
ROOT
ATOM      1  C   UNL     1       1.064  -0.479   2.706  0.00  0.00    +0.039 C 
ATOM      2  C   UNL     1      -0.075  -0.652   3.466  0.00  0.00    +0.053 C 
ATOM      3  C   UNL     1      -0.420   0.017   4.736  0.00  0.00    +0.067 A 
ATOM      4  C   UNL     1      -1.672  -0.484   5.122  0.00  0.00    +0.138 A 
ATOM      5  N   UNL     1      -2.210  -0.029   6.253  0.00  0.00    -0.220 NA
ATOM      6  C   UNL     1      -1.584   0.866   6.989  0.00  0.00    +0.225 A 
ATOM      7  N   UNL     1      -0.407   1.361   6.659  0.00  0.00    -0.220 NA
ATOM      8  C   UNL     1       0.210   0.967   5.545  0.00  0.00    +0.136 A 
ATOM      9  N   UNL     1      -2.103  -1.400   4.185  0.00  0.00    -0.266 N 
ATOM     10  C   UNL     1      -1.214  -1.540   3.186  0.00  0.00    +0.250 C 
ATOM     11  O   UNL     1      -1.330  -2.274   2.221  0.00  0.00    -0.270 OA
ATOM     12  H   UNL     1      -2.944  -1.881   4.239  0.00  0.00    +0.157 HD
ENDROOT
BRANCH   1  19
ATOM     13  C   UNL     1       2.443   0.276   0.023  0.00  0.00    +0.047 C 
ATOM     14  C   UNL     1       1.979  -1.085   0.473  0.00  0.00    -0.014 A 
ATOM     15  C   UNL     1       2.091  -2.293  -0.249  0.00  0.00    +0.058 A 
ATOM     16  C   UNL     1       1.539  -3.291   0.533  0.00  0.00    +0.096 A 
ATOM     17  N   UNL     1       1.104  -2.746   1.682  0.00  0.00    -0.360 N 
ATOM     18  H   UNL     1       0.676  -3.229   2.406  0.00  0.00    +0.165 HD
ATOM     19  C   UNL     1       1.368  -1.392   1.672  0.00  0.00    +0.044 A 
BRANCH  15  20
ATOM     20  C   UNL     1       2.685  -2.460  -1.588  0.00  0.00    +0.248 C 
ATOM     21  O   UNL     1       3.668  -1.816  -1.902  0.00  0.00    -0.270 OA
ATOM     22  N   UNL     1       2.139  -3.327  -2.464  0.00  0.00    -0.301 N 
ATOM     23  C   UNL     1       0.865  -4.000  -2.168  0.00  0.00    +0.089 C 
ATOM     24  C   UNL     1      -0.070  -3.820  -3.368  0.00  0.00    -0.060 C 
ATOM     25  N   UNL     1       0.599  -4.298  -4.585  0.00  0.00    +0.380 N 
ATOM     26  C   UNL     1       1.773  -3.463  -4.870  0.00  0.00    -0.060 C 
ATOM     27  C   UNL     1       2.797  -3.621  -3.747  0.00  0.00    +0.089 C 
ATOM     28  C   UNL     1      -0.336  -4.227  -5.716  0.00  0.00    -0.096 C 
ATOM     29  H   UNL     1       0.892  -5.254  -4.453  0.00  0.00    -0.082 HD
ENDBRANCH  15  20
ENDBRANCH   1  19
BRANCH   8  30
ATOM     30  N   UNL     1       1.447   1.486   5.199  0.00  0.00    -0.299 N 
ATOM     31  H   UNL     1       1.928   1.125   4.438  0.00  0.00    +0.154 HD
BRANCH  30  32
ATOM     32  C   UNL     1       2.002   2.531   5.945  0.00  0.00    +0.034 A 
ATOM     33  C   UNL     1       1.842   2.561   7.325  0.00  0.00    +0.026 A 
ATOM     34  C   UNL     1       2.390   3.593   8.061  0.00  0.00    +0.041 A 
ATOM     35  C   UNL     1       3.099   4.598   7.425  0.00  0.00    +0.142 A 
ATOM     36  C   UNL     1       3.260   4.570   6.049  0.00  0.00    +0.078 A 
ATOM     37  C   UNL     1       2.717   3.536   5.309  0.00  0.00    +0.046 A 
ATOM     38 CL   UNL     1       4.148   5.832   5.254  0.00  0.00    -0.081 Cl
ATOM     39  F   UNL     1       3.634   5.607   8.146  0.00  0.00    -0.204 F 
ENDBRANCH  30  32
ENDBRANCH   8  30
TORSDOF 4
