REMARK  Name = CHEMBL111197
REMARK  5 active torsions:
REMARK  status: ('A' for Active; 'I' for Inactive)
REMARK    1  A    between atoms: C_1  and  N_2
REMARK    2  A    between atoms: C_6  and  C_9
REMARK    3  A    between atoms: N_21  and  C_22
REMARK    4  A    between atoms: C_26  and  O_28
REMARK    5  A    between atoms: O_28  and  C_29
REMARK                            x       y       z     vdW  Elec       q    Type
REMARK                         _______ _______ _______ _____ _____    ______ ____
ROOT
ATOM      1  C   UNL     1      -0.052   1.410   0.707  0.00  0.00    +0.154 C 
ATOM      2  N   UNL     1      -0.022  -0.040   0.500  0.00  0.00    -0.295 N 
ATOM      3  C   UNL     1      -1.194  -0.719   0.282  0.00  0.00    +0.148 A 
ATOM      4  C   UNL     1      -1.183  -2.117   0.081  0.00  0.00    +0.037 A 
ATOM      5  C   UNL     1       0.038  -2.829   0.103  0.00  0.00    +0.027 A 
ATOM      6  C   UNL     1       1.202  -2.143   0.321  0.00  0.00    +0.050 A 
ATOM      7  C   UNL     1       1.156  -0.693   0.520  0.00  0.00    +0.260 A 
ATOM      8  O   UNL     1       2.188  -0.074   0.710  0.00  0.00    -0.267 OA
ATOM      9  C   UNL     1      -2.404  -2.773  -0.139  0.00  0.00    +0.126 A 
ATOM     10  N   UNL     1      -3.513  -2.057  -0.149  0.00  0.00    -0.222 NA
ATOM     11  C   UNL     1      -3.485  -0.743   0.044  0.00  0.00    +0.221 A 
ATOM     12  N   UNL     1      -2.358  -0.080   0.255  0.00  0.00    -0.196 NA
ATOM     13  N   UNL     1      -4.676  -0.042   0.022  0.00  0.00    -0.283 N 
ATOM     14  H   UNL     1      -4.670   0.926   0.080  0.00  0.00    +0.155 HD
ENDROOT
BRANCH   6  15
ATOM     15  C   UNL     1       2.498  -2.860   0.350  0.00  0.00    +0.024 A 
ATOM     16  C   UNL     1       2.987  -3.376   1.551  0.00  0.00    +0.050 A 
ATOM     17  C   UNL     1       4.196  -4.044   1.570  0.00  0.00    +0.021 A 
ATOM     18  C   UNL     1       4.922  -4.201   0.404  0.00  0.00    +0.003 A 
ATOM     19  C   UNL     1       4.443  -3.692  -0.790  0.00  0.00    +0.021 A 
ATOM     20  C   UNL     1       3.233  -3.028  -0.825  0.00  0.00    +0.050 A 
ATOM     21 CL   UNL     1       2.630  -2.396  -2.325  0.00  0.00    -0.083 Cl
ATOM     22 CL   UNL     1       2.078  -3.179   3.016  0.00  0.00    -0.083 Cl
ENDBRANCH   6  15
BRANCH  13  23
ATOM     23  C   UNL     1      -5.889  -0.729  -0.082  0.00  0.00    +0.037 A 
ATOM     24  C   UNL     1      -6.035  -1.978   0.509  0.00  0.00    +0.023 A 
ATOM     25  C   UNL     1      -7.234  -2.656   0.405  0.00  0.00    +0.005 A 
ATOM     26  C   UNL     1      -8.291  -2.095  -0.285  0.00  0.00    +0.046 A 
ATOM     27  C   UNL     1      -8.151  -0.848  -0.877  0.00  0.00    +0.122 A 
ATOM     28  C   UNL     1      -6.952  -0.161  -0.770  0.00  0.00    +0.069 A 
BRANCH  27  29
ATOM     29  O   UNL     1      -9.191  -0.297  -1.557  0.00  0.00    -0.495 OA
ATOM     30  C   UNL     1     -10.399  -1.058  -1.621  0.00  0.00    +0.277 C 
ENDBRANCH  27  29
ENDBRANCH  13  23
TORSDOF 3
