REMARK  Name = CHEMBL372523
REMARK  9 active torsions:
REMARK  status: ('A' for Active; 'I' for Inactive)
REMARK    1  A    between atoms: C_1  and  C_2
REMARK    2  A    between atoms: C_2  and  C_3
REMARK    3  A    between atoms: C_4  and  N_29
REMARK    4  A    between atoms: N_12  and  C_13
REMARK    5  A    between atoms: N_21  and  C_22
REMARK    6  A    between atoms: C_22  and  C_23
REMARK    7  A    between atoms: C_30  and  O_32
REMARK    8  A    between atoms: O_32  and  C_33
REMARK    9  A    between atoms: C_33  and  C_34
REMARK                            x       y       z     vdW  Elec       q    Type
REMARK                         _______ _______ _______ _____ _____    ______ ____
ROOT
ATOM      1  C   UNL     1       0.765  -0.616  -1.268  0.00  0.00    +0.004 A 
ATOM      2  C   UNL     1       0.146  -1.256  -2.347  0.00  0.00    +0.060 A 
ATOM      3  C   UNL     1       1.024  -2.174  -2.847  0.00  0.00    +0.136 A 
ATOM      4  N   UNL     1       2.165  -2.130  -2.121  0.00  0.00    -0.233 N 
ATOM      5  C   UNL     1       2.026  -1.166  -1.141  0.00  0.00    +0.110 A 
ATOM      6  C   UNL     1       3.107  -0.939  -0.259  0.00  0.00    +0.151 A 
ATOM      7  N   UNL     1       4.215  -1.649  -0.399  0.00  0.00    -0.217 NA
ATOM      8  C   UNL     1       4.336  -2.572  -1.351  0.00  0.00    +0.245 A 
ATOM      9  N   UNL     1       3.373  -2.838  -2.192  0.00  0.00    -0.155 NA
ATOM     10  N   UNL     1       3.008   0.013   0.737  0.00  0.00    -0.298 N 
ATOM     11  H   UNL     1       2.168   0.474   0.886  0.00  0.00    +0.154 HD
ENDROOT
BRANCH  10  12
ATOM     12  C   UNL     1       4.122   0.313   1.532  0.00  0.00    +0.033 A 
ATOM     13  C   UNL     1       5.403   0.250   0.983  0.00  0.00    +0.025 A 
ATOM     14  C   UNL     1       6.502   0.538   1.740  0.00  0.00    +0.030 A 
ATOM     15  C   UNL     1       6.353   0.900   3.077  0.00  0.00    +0.069 A 
ATOM     16  C   UNL     1       5.064   0.968   3.641  0.00  0.00    +0.021 A 
ATOM     17  C   UNL     1       3.946   0.675   2.852  0.00  0.00    +0.034 A 
ATOM     18  C   UNL     1       5.245   1.368   5.032  0.00  0.00    +0.143 A 
ATOM     19  N   UNL     1       6.522   1.516   5.242  0.00  0.00    -0.178 NA
ATOM     20  N   UNL     1       7.236   1.239   4.071  0.00  0.00    -0.259 N 
BRANCH  20  21
ATOM     21  C   UNL     1       8.693   1.301   3.929  0.00  0.00    +0.179 C 
BRANCH  21  22
ATOM     22  C   UNL     1       9.097   2.688   3.499  0.00  0.00    -0.026 A 
ATOM     23  C   UNL     1       9.179   2.998   2.155  0.00  0.00    +0.005 A 
ATOM     24  C   UNL     1       9.550   4.270   1.761  0.00  0.00    +0.000 A 
ATOM     25  C   UNL     1       9.839   5.232   2.711  0.00  0.00    +0.000 A 
ATOM     26  C   UNL     1       9.756   4.921   4.056  0.00  0.00    +0.000 A 
ATOM     27  C   UNL     1       9.381   3.650   4.450  0.00  0.00    +0.005 A 
ENDBRANCH  21  22
ENDBRANCH  20  21
ENDBRANCH  10  12
BRANCH   2  28
ATOM     28  N   UNL     1      -1.149  -1.001  -2.831  0.00  0.00    -0.249 N 
ATOM     29  C   UNL     1      -1.625  -1.694  -3.884  0.00  0.00    +0.405 C 
ATOM     30  O   UNL     1      -0.933  -2.540  -4.417  0.00  0.00    -0.226 OA
ATOM     31  H   UNL     1      -1.701  -0.325  -2.406  0.00  0.00    +0.158 HD
BRANCH  29  32
ATOM     32  O   UNL     1      -2.865  -1.449  -4.347  0.00  0.00    -0.445 OA
BRANCH  32  33
ATOM     33  C   UNL     1      -3.304  -2.221  -5.467  0.00  0.00    +0.269 C 
BRANCH  33  34
ATOM     34  C   UNL     1      -4.705  -1.811  -5.841  0.00  0.00    -0.010 A 
ATOM     35  C   UNL     1      -5.789  -2.447  -5.265  0.00  0.00    +0.007 A 
ATOM     36  C   UNL     1      -7.074  -2.071  -5.608  0.00  0.00    +0.000 A 
ATOM     37  C   UNL     1      -7.276  -1.059  -6.528  0.00  0.00    +0.000 A 
ATOM     38  C   UNL     1      -6.192  -0.422  -7.103  0.00  0.00    +0.000 A 
ATOM     39  C   UNL     1      -4.907  -0.795  -6.756  0.00  0.00    +0.007 A 
ENDBRANCH  33  34
ENDBRANCH  32  33
ENDBRANCH  29  32
ENDBRANCH   2  28
BRANCH   1  41
ATOM     40  C   UNL     1       0.612   1.837  -0.940  0.00  0.00    +0.009 C 
ATOM     41  C   UNL     1       0.171   0.471  -0.410  0.00  0.00    +0.036 C 
ENDBRANCH   1  41
TORSDOF 8
