REMARK  Name = CHEMBL442749
REMARK  1 active torsions:
REMARK  status: ('A' for Active; 'I' for Inactive)
REMARK    1  A    between atoms: C_10  and  N_11
REMARK                            x       y       z     vdW  Elec       q    Type
REMARK                         _______ _______ _______ _____ _____    ______ ____
ROOT
ATOM      1  N   UNL     1      -1.202  -0.718   0.010  0.00  0.00    -0.298 N 
ATOM      2  C   UNL     1      -1.304  -1.914  -0.684  0.00  0.00    +0.141 A 
ATOM      3  C   UNL     1      -2.514  -2.579  -0.779  0.00  0.00    +0.078 A 
ATOM      4  C   UNL     1      -2.623  -3.797  -1.485  0.00  0.00    +0.083 A 
ATOM      5  C   UNL     1      -3.908  -4.368  -1.504  0.00  0.00    +0.036 A 
ATOM      6  C   UNL     1      -4.930  -3.756  -0.877  0.00  0.00    +0.048 A 
ATOM      7  S   UNL     1      -4.162  -2.297  -0.192  0.00  0.00    -0.092 S 
ATOM      8  N   UNL     1      -1.477  -4.252  -2.049  0.00  0.00    -0.235 NA
ATOM      9  C   UNL     1      -0.353  -3.593  -1.936  0.00  0.00    +0.224 A 
ATOM     10  N   UNL     1      -0.239  -2.450  -1.282  0.00  0.00    -0.219 NA
ATOM     11  H   UNL     1      -2.000  -0.294   0.364  0.00  0.00    +0.154 HD
ENDROOT
BRANCH   1  21
ATOM     12  C   UNL     1       0.167   1.267   0.192  0.00  0.00    +0.025 A 
ATOM     13  C   UNL     1       1.392   1.868   0.376  0.00  0.00    +0.028 A 
ATOM     14  C   UNL     1       2.527   1.089   0.571  0.00  0.00    +0.047 A 
ATOM     15  C   UNL     1       2.414  -0.313   0.578  0.00  0.00    +0.001 A 
ATOM     16  C   UNL     1       3.767  -0.828   0.803  0.00  0.00    +0.027 A 
ATOM     17  C   UNL     1       4.579   0.236   0.913  0.00  0.00    +0.083 A 
ATOM     18  N   UNL     1       3.857   1.390   0.777  0.00  0.00    -0.361 N 
ATOM     19  H   UNL     1       4.226   2.286   0.820  0.00  0.00    +0.165 HD
ATOM     20  C   UNL     1       1.168  -0.913   0.391  0.00  0.00    +0.033 A 
ATOM     21  C   UNL     1       0.051  -0.122   0.199  0.00  0.00    +0.033 A 
ENDBRANCH   1  21
TORSDOF 1
