REMARK  Name = CHEMBL293749
REMARK  8 active torsions:
REMARK  status: ('A' for Active; 'I' for Inactive)
REMARK    1  A    between atoms: C_4  and  C_7
REMARK    2  A    between atoms: C_7  and  C_8
REMARK    3  A    between atoms: C_8  and  N_9
REMARK    4  A    between atoms: C_10  and  C_12
REMARK    5  A    between atoms: C_12  and  C_22
REMARK    6  A    between atoms: C_13  and  C_14
REMARK    7  A    between atoms: C_17  and  O_21
REMARK    8  A    between atoms: C_18  and  O_20
REMARK                            x       y       z     vdW  Elec       q    Type
REMARK                         _______ _______ _______ _____ _____    ______ ____
ROOT
ATOM      1  C   UNL     1       7.336  -2.728   2.524  0.00  0.00    +0.114 C 
ATOM      2  C   UNL     1       7.948  -3.074   3.709  0.00  0.00    +0.032 C 
ENDROOT
BRANCH   2   3
ATOM      3  C   UNL     1       9.168  -3.883   3.695  0.00  0.00    -0.020 A 
ATOM      4  C   UNL     1       9.401  -4.823   4.709  0.00  0.00    +0.012 A 
ATOM      5  C   UNL     1      10.549  -5.582   4.692  0.00  0.00    +0.050 A 
ATOM      6  C   UNL     1      11.479  -5.420   3.673  0.00  0.00    +0.158 A 
ATOM      7  C   UNL     1      11.256  -4.486   2.660  0.00  0.00    +0.159 A 
ATOM      8  C   UNL     1      10.105  -3.724   2.664  0.00  0.00    +0.057 A 
BRANCH   7   9
ATOM      9  O   UNL     1      12.170  -4.331   1.665  0.00  0.00    -0.503 OA
ATOM     10  H   UNL     1      12.019  -4.904   0.900  0.00  0.00    +0.292 HD
ENDBRANCH   7   9
BRANCH   6  11
ATOM     11  O   UNL     1      12.610  -6.171   3.663  0.00  0.00    -0.503 OA
ATOM     12  H   UNL     1      12.523  -7.006   3.183  0.00  0.00    +0.292 HD
ENDBRANCH   6  11
ENDBRANCH   2   3
BRANCH   1  14
ATOM     13  N   UNL     1       5.612  -1.443   1.366  0.00  0.00    -0.310 N 
ATOM     14  C   UNL     1       6.211  -1.781   2.526  0.00  0.00    +0.254 C 
ATOM     15  O   UNL     1       5.820  -1.302   3.574  0.00  0.00    -0.269 OA
ATOM     16  H   UNL     1       5.924  -1.825   0.531  0.00  0.00    +0.149 HD
BRANCH  13  17
ATOM     17  C   UNL     1       4.492  -0.499   1.368  0.00  0.00    +0.109 C 
BRANCH  17  18
ATOM     18  C   UNL     1       3.999  -0.290  -0.065  0.00  0.00    +0.054 C 
BRANCH  18  22
ATOM     19  C   UNL     1       0.732   2.462  -0.062  0.00  0.00    +0.000 A 
ATOM     20  C   UNL     1       2.027   2.927  -0.192  0.00  0.00    +0.000 A 
ATOM     21  C   UNL     1       3.084   2.037  -0.193  0.00  0.00    +0.004 A 
ATOM     22  C   UNL     1       2.847   0.681  -0.064  0.00  0.00    -0.046 A 
ATOM     23  C   UNL     1       1.552   0.216   0.067  0.00  0.00    +0.004 A 
ATOM     24  C   UNL     1       0.494   1.106   0.066  0.00  0.00    +0.000 A 
ENDBRANCH  18  22
ENDBRANCH  17  18
ENDBRANCH  13  17
ENDBRANCH   1  14
BRANCH   1  25
ATOM     25  C   UNL     1       7.796  -3.292   1.290  0.00  0.00    +0.104 C 
ATOM     26  N   UNL     1       8.160  -3.739   0.312  0.00  0.00    -0.191 NA
ENDBRANCH   1  25
TORSDOF 8
