REMARK  Name = CHEMBL53428
REMARK  3 active torsions:
REMARK  status: ('A' for Active; 'I' for Inactive)
REMARK    1  A    between atoms: C_1  and  N_2
REMARK    2  A    between atoms: N_2  and  C_3
REMARK    3  A    between atoms: N_14  and  C_15
REMARK                            x       y       z     vdW  Elec       q    Type
REMARK                         _______ _______ _______ _____ _____    ______ ____
ROOT
ATOM      1  C   UNL     1      -0.046   1.398  -0.864  0.00  0.00    +0.130 C 
ATOM      2  N   UNL     1      -0.049  -0.067  -0.877  0.00  0.00    -0.321 N 
ATOM      3  C   UNL     1       1.194  -0.800  -1.134  0.00  0.00    +0.130 C 
ATOM      4  C   UNL     1      -1.229  -0.762  -0.645  0.00  0.00    +0.123 A 
ATOM      5  C   UNL     1      -2.412  -0.058  -0.514  0.00  0.00    +0.072 A 
ATOM      6  C   UNL     1      -3.592  -0.773  -0.281  0.00  0.00    +0.081 A 
ATOM      7  C   UNL     1      -3.513  -2.189  -0.193  0.00  0.00    +0.059 A 
ATOM      8  C   UNL     1      -2.272  -2.812  -0.339  0.00  0.00    +0.126 A 
ATOM      9  N   UNL     1      -1.196  -2.089  -0.561  0.00  0.00    -0.240 NA
ATOM     10  C   UNL     1      -4.707  -2.909   0.042  0.00  0.00    +0.135 A 
ATOM     11  N   UNL     1      -5.837  -2.223   0.167  0.00  0.00    -0.220 NA
ATOM     12  C   UNL     1      -5.861  -0.903   0.076  0.00  0.00    +0.223 A 
ATOM     13  N   UNL     1      -4.785  -0.181  -0.141  0.00  0.00    -0.235 NA
ATOM     14  N   UNL     1      -4.699  -4.284   0.139  0.00  0.00    -0.299 N 
ATOM     15  H   UNL     1      -3.857  -4.766   0.129  0.00  0.00    +0.154 HD
ENDROOT
BRANCH  14  16
ATOM     16  C   UNL     1      -5.904  -4.984   0.251  0.00  0.00    +0.033 A 
ATOM     17  C   UNL     1      -5.973  -6.129   1.035  0.00  0.00    +0.023 A 
ATOM     18  C   UNL     1      -7.165  -6.819   1.144  0.00  0.00    +0.003 A 
ATOM     19  C   UNL     1      -8.288  -6.372   0.472  0.00  0.00    +0.015 A 
ATOM     20  C   UNL     1      -8.223  -5.233  -0.310  0.00  0.00    +0.020 A 
ATOM     21  C   UNL     1      -7.035  -4.535  -0.418  0.00  0.00    +0.038 A 
ATOM     22 BR   UNL     1      -9.761  -4.627  -1.227  0.00  0.00    -0.050 Br
ENDBRANCH  14  16
TORSDOF 1
