REMARK  Name = CHEMBL213560
REMARK  5 active torsions:
REMARK  status: ('A' for Active; 'I' for Inactive)
REMARK    1  A    between atoms: C_4  and  C_7
REMARK    2  A    between atoms: C_7  and  C_8
REMARK    3  A    between atoms: C_8  and  N_9
REMARK    4  A    between atoms: C_11  and  C_12
REMARK    5  A    between atoms: C_15  and  O_18
REMARK                            x       y       z     vdW  Elec       q    Type
REMARK                         _______ _______ _______ _____ _____    ______ ____
ROOT
ATOM      1  N   UNL     1       5.471  -1.691   1.524  0.00  0.00    -0.250 N 
ATOM      2  C   UNL     1       5.609  -3.064   1.280  0.00  0.00    +0.101 C 
ATOM      3  C   UNL     1       4.647  -4.018   1.366  0.00  0.00    +0.036 C 
ATOM      4  C   UNL     1       7.021  -3.250   0.911  0.00  0.00    +0.266 C 
ATOM      5  O   UNL     1       7.568  -4.297   0.618  0.00  0.00    -0.268 OA
ATOM      6  N   UNL     1       7.586  -2.027   0.962  0.00  0.00    -0.235 N 
ATOM      7  C   UNL     1       6.668  -1.115   1.317  0.00  0.00    +0.313 C 
ATOM      8  O   UNL     1       6.891   0.074   1.438  0.00  0.00    -0.252 OA
ATOM      9  H   UNL     1       8.517  -1.835   0.766  0.00  0.00    +0.159 HD
ENDROOT
BRANCH   3  10
ATOM     10  C   UNL     1       5.006  -5.436   1.239  0.00  0.00    -0.023 A 
ATOM     11  C   UNL     1       6.182  -5.919   1.827  0.00  0.00    +0.011 A 
ATOM     12  C   UNL     1       6.513  -7.250   1.704  0.00  0.00    +0.046 A 
ATOM     13  C   UNL     1       5.683  -8.113   0.999  0.00  0.00    +0.117 A 
ATOM     14  C   UNL     1       4.514  -7.639   0.414  0.00  0.00    +0.046 A 
ATOM     15  C   UNL     1       4.170  -6.312   0.536  0.00  0.00    +0.011 A 
BRANCH  13  16
ATOM     16  O   UNL     1       6.015  -9.424   0.881  0.00  0.00    -0.507 OA
ATOM     17  H   UNL     1       5.667  -9.983   1.589  0.00  0.00    +0.292 HD
ENDBRANCH  13  16
ENDBRANCH   3  10
BRANCH   1  18
ATOM     18  C   UNL     1       4.240  -1.005   1.926  0.00  0.00    +0.120 C 
BRANCH  18  19
ATOM     19  C   UNL     1       3.474  -0.560   0.679  0.00  0.00    +0.054 C 
BRANCH  19  23
ATOM     20  C   UNL     1      -0.114   1.442   1.849  0.00  0.00    +0.000 A 
ATOM     21  C   UNL     1       1.053   2.162   1.672  0.00  0.00    +0.000 A 
ATOM     22  C   UNL     1       2.214   1.514   1.294  0.00  0.00    +0.004 A 
ATOM     23  C   UNL     1       2.208   0.146   1.092  0.00  0.00    -0.046 A 
ATOM     24  C   UNL     1       1.042  -0.574   1.269  0.00  0.00    +0.004 A 
ATOM     25  C   UNL     1      -0.120   0.074   1.646  0.00  0.00    +0.000 A 
ENDBRANCH  19  23
ENDBRANCH  18  19
ENDBRANCH   1  18
TORSDOF 5
