REMARK  Name = CHEMBL332333
REMARK  3 active torsions:
REMARK  status: ('A' for Active; 'I' for Inactive)
REMARK    1  A    between atoms: C_4  and  N_7
REMARK    2  A    between atoms: C_10  and  N_17
REMARK    3  A    between atoms: N_17  and  C_18
REMARK                            x       y       z     vdW  Elec       q    Type
REMARK                         _______ _______ _______ _____ _____    ______ ____
ROOT
ATOM      1  N   UNL     1       3.621  -0.699  -0.138  0.00  0.00    -0.299 N 
ATOM      2  C   UNL     1       3.650  -2.045   0.159  0.00  0.00    +0.139 A 
ATOM      3  C   UNL     1       4.875  -2.713   0.372  0.00  0.00    +0.100 A 
ATOM      4  C   UNL     1       6.218  -2.359   0.366  0.00  0.00    +0.131 A 
ATOM      5  N   UNL     1       6.929  -3.465   0.648  0.00  0.00    -0.261 N 
ATOM      6  N   UNL     1       6.067  -4.551   0.840  0.00  0.00    -0.152 NA
ATOM      7  C   UNL     1       4.824  -4.152   0.686  0.00  0.00    +0.188 A 
ATOM      8  N   UNL     1       3.612  -4.739   0.750  0.00  0.00    -0.214 NA
ATOM      9  C   UNL     1       2.526  -4.040   0.538  0.00  0.00    +0.225 A 
ATOM     10  N   UNL     1       2.527  -2.746   0.259  0.00  0.00    -0.220 NA
ATOM     11  H   UNL     1       4.449  -0.215  -0.283  0.00  0.00    +0.154 HD
ATOM     12  H   UNL     1       7.897  -3.505   0.708  0.00  0.00    +0.190 HD
ENDROOT
BRANCH   1  16
ATOM     13  C   UNL     1      -0.026   1.294  -0.417  0.00  0.00    +0.000 A 
ATOM     14  C   UNL     1       0.098   0.196   0.414  0.00  0.00    +0.002 A 
ATOM     15  C   UNL     1       1.306  -0.467   0.509  0.00  0.00    +0.023 A 
ATOM     16  C   UNL     1       2.396  -0.030  -0.232  0.00  0.00    +0.032 A 
ATOM     17  C   UNL     1       2.268   1.073  -1.067  0.00  0.00    +0.023 A 
ATOM     18  C   UNL     1       1.057   1.731  -1.157  0.00  0.00    +0.002 A 
ENDBRANCH   1  16
BRANCH   4  19
ATOM     19  N   UNL     1       6.730  -1.099   0.116  0.00  0.00    -0.299 N 
ATOM     20  H   UNL     1       6.130  -0.349  -0.015  0.00  0.00    +0.154 HD
BRANCH  19  21
ATOM     21  C   UNL     1       8.113  -0.908   0.051  0.00  0.00    +0.032 A 
ATOM     22  C   UNL     1       8.931  -1.907  -0.460  0.00  0.00    +0.023 A 
ATOM     23  C   UNL     1      10.297  -1.715  -0.523  0.00  0.00    +0.002 A 
ATOM     24  C   UNL     1      10.851  -0.528  -0.077  0.00  0.00    +0.000 A 
ATOM     25  C   UNL     1      10.039   0.469   0.433  0.00  0.00    +0.002 A 
ATOM     26  C   UNL     1       8.672   0.285   0.492  0.00  0.00    +0.023 A 
ENDBRANCH  19  21
ENDBRANCH   4  19
TORSDOF 3
