REMARK  Name = CHEMBL304442
REMARK  10 active torsions:
REMARK  status: ('A' for Active; 'I' for Inactive)
REMARK    1  A    between atoms: C_4  and  O_7
REMARK    2  A    between atoms: O_7  and  C_8
REMARK    3  A    between atoms: C_8  and  C_10
REMARK    4  A    between atoms: C_10  and  C_11
REMARK    5  A    between atoms: C_11  and  C_12
REMARK    6  A    between atoms: C_12  and  C_13
REMARK    7  A    between atoms: C_13  and  O_15
REMARK    8  A    between atoms: O_15  and  C_16
REMARK    9  A    between atoms: C_19  and  C_22
REMARK   10  A    between atoms: C_23  and  N_24
REMARK                            x       y       z     vdW  Elec       q    Type
REMARK                         _______ _______ _______ _____ _____    ______ ____
ROOT
ATOM      1  C   UNL     1       5.550  -6.495   0.545  0.00  0.00    +0.312 C 
ATOM      2  O   UNL     1       4.407  -6.880   0.623  0.00  0.00    -0.250 OA
ENDROOT
BRANCH   1   3
ATOM      3  C   UNL     1       5.842  -5.021   0.435  0.00  0.00    +0.121 C 
BRANCH   3   4
ATOM      4  C   UNL     1       4.528  -4.238   0.444  0.00  0.00    +0.022 C 
BRANCH   4   5
ATOM      5  C   UNL     1       4.825  -2.741   0.332  0.00  0.00    +0.121 C 
BRANCH   5   6
ATOM      6  C   UNL     1       3.530  -1.970   0.341  0.00  0.00    +0.312 C 
ATOM      7  O   UNL     1       2.478  -2.557   0.428  0.00  0.00    -0.250 OA
BRANCH   6   8
ATOM      8  O   UNL     1       3.546  -0.630   0.253  0.00  0.00    -0.426 OA
BRANCH   8  12
ATOM      9  C   UNL     1      -0.034   1.381   0.652  0.00  0.00    +0.000 A 
ATOM     10  C   UNL     1       0.526   0.745   1.745  0.00  0.00    +0.004 A 
ATOM     11  C   UNL     1       1.725   0.071   1.614  0.00  0.00    +0.046 A 
ATOM     12  C   UNL     1       2.366   0.032   0.384  0.00  0.00    +0.132 A 
ATOM     13  C   UNL     1       1.802   0.670  -0.711  0.00  0.00    +0.046 A 
ATOM     14  C   UNL     1       0.604   1.343  -0.574  0.00  0.00    +0.004 A 
ENDBRANCH   8  12
ENDBRANCH   6   8
ENDBRANCH   5   6
ENDBRANCH   4   5
ENDBRANCH   3   4
ENDBRANCH   1   3
BRANCH   1  15
ATOM     15  O   UNL     1       6.559  -7.381   0.556  0.00  0.00    -0.426 OA
BRANCH  15  16
ATOM     16  C   UNL     1       6.247  -8.703   0.537  0.00  0.00    +0.132 A 
ATOM     17  C   UNL     1       5.701  -9.269  -0.608  0.00  0.00    +0.047 A 
ATOM     18  C   UNL     1       5.383 -10.610  -0.631  0.00  0.00    +0.011 A 
ATOM     19  C   UNL     1       5.611 -11.400   0.497  0.00  0.00    -0.023 A 
ATOM     20  C   UNL     1       6.160 -10.827   1.645  0.00  0.00    +0.011 A 
ATOM     21  C   UNL     1       6.480  -9.486   1.659  0.00  0.00    +0.047 A 
BRANCH  19  22
ATOM     22  C   UNL     1       5.272 -12.838   0.476  0.00  0.00    +0.032 C 
ATOM     23  C   UNL     1       5.489 -13.586   1.548  0.00  0.00    +0.179 C 
BRANCH  23  24
ATOM     24  N   UNL     1       5.149 -15.027   1.527  0.00  0.00    +0.049 N 
ATOM     25  O   UNL     1       4.673 -15.521   0.532  0.00  0.00    -0.127 OA
ATOM     26  O   UNL     1       5.347 -15.709   2.505  0.00  0.00    -0.127 OA
ENDBRANCH  23  24
ENDBRANCH  19  22
ENDBRANCH  15  16
ENDBRANCH   1  15
TORSDOF 10
