REMARK  Name = CHEMBL91428
REMARK  4 active torsions:
REMARK  status: ('A' for Active; 'I' for Inactive)
REMARK    1  A    between atoms: C_1  and  O_2
REMARK    2  A    between atoms: O_2  and  C_3
REMARK    3  A    between atoms: C_8  and  O_9
REMARK    4  A    between atoms: O_9  and  C_10
REMARK                            x       y       z     vdW  Elec       q    Type
REMARK                         _______ _______ _______ _____ _____    ______ ____
ROOT
ATOM      1  C   UNL     1      -1.201  -0.637  -0.006  0.00  0.00    +0.162 A 
ATOM      2  C   UNL     1      -2.352   0.099   0.008  0.00  0.00    +0.062 A 
ATOM      3  C   UNL     1      -3.591  -0.553   0.018  0.00  0.00    +0.044 A 
ATOM      4  C   UNL     1      -3.644  -1.969   0.013  0.00  0.00    +0.080 A 
ATOM      5  C   UNL     1      -2.452  -2.703  -0.002  0.00  0.00    +0.078 A 
ATOM      6  C   UNL     1      -1.246  -2.038  -0.017  0.00  0.00    +0.164 A 
ATOM      7  N   UNL     1      -4.845  -2.569   0.023  0.00  0.00    -0.235 NA
ATOM      8  C   UNL     1      -5.945  -1.855   0.036  0.00  0.00    +0.223 A 
ATOM      9  N   UNL     1      -5.944  -0.531   0.042  0.00  0.00    -0.220 NA
ATOM     10  C   UNL     1      -4.812   0.161   0.033  0.00  0.00    +0.135 A 
ATOM     11  N   UNL     1      -4.826   1.542   0.039  0.00  0.00    -0.284 N 
ATOM     12  C   UNL     1      -6.036   2.227  -0.057  0.00  0.00    +0.125 A 
ATOM     13  C   UNL     1      -6.025   3.603  -0.158  0.00  0.00    +0.052 A 
ATOM     14  C   UNL     1      -7.252   4.279  -0.254  0.00  0.00    -0.013 A 
ATOM     15  C   UNL     1      -7.329   5.676  -0.360  0.00  0.00    +0.008 A 
ATOM     16  C   UNL     1      -8.549   6.275  -0.451  0.00  0.00    +0.001 A 
ATOM     17  C   UNL     1      -9.722   5.522  -0.439  0.00  0.00    +0.001 A 
ATOM     18  C   UNL     1      -9.685   4.165  -0.337  0.00  0.00    +0.010 A 
ATOM     19  C   UNL     1      -8.447   3.510  -0.242  0.00  0.00    +0.000 A 
ATOM     20  C   UNL     1      -8.351   2.114  -0.135  0.00  0.00    +0.121 A 
ATOM     21  N   UNL     1      -7.175   1.539  -0.054  0.00  0.00    -0.240 NA
ATOM     22  H   UNL     1      -3.994   2.035   0.110  0.00  0.00    +0.155 HD
ENDROOT
BRANCH   1  24
ATOM     23  C   UNL     1      -0.017   1.426  -0.004  0.00  0.00    +0.277 C 
ATOM     24  O   UNL     1       0.002  -0.003  -0.016  0.00  0.00    -0.491 OA
ENDBRANCH   1  24
BRANCH   6  25
ATOM     25  O   UNL     1      -0.087  -2.747  -0.038  0.00  0.00    -0.491 OA
ATOM     26  C   UNL     1      -0.199  -4.172  -0.048  0.00  0.00    +0.277 C 
ENDBRANCH   6  25
TORSDOF 2
