REMARK  Name = CHEMBL474147
REMARK  4 active torsions:
REMARK  status: ('A' for Active; 'I' for Inactive)
REMARK    1  A    between atoms: C_1  and  C_2
REMARK    2  A    between atoms: C_6  and  N_8
REMARK    3  A    between atoms: C_16  and  N_18
REMARK    4  A    between atoms: C_19  and  C_21
REMARK                            x       y       z     vdW  Elec       q    Type
REMARK                         _______ _______ _______ _____ _____    ______ ____
ROOT
ATOM      1  N   UNL     1       0.052  -2.797   2.391  0.00  0.00    -0.302 N 
ATOM      2  C   UNL     1      -0.033  -4.157   2.384  0.00  0.00    +0.116 C 
ATOM      3  N   UNL     1      -0.026  -4.837   1.257  0.00  0.00    -0.224 NA
ATOM      4  C   UNL     1      -0.042  -6.172   1.190  0.00  0.00    +0.223 C 
ATOM      5  N   UNL     1       0.255  -6.938   2.224  0.00  0.00    -0.239 NA
ATOM      6  C   UNL     1       0.508  -6.293   3.374  0.00  0.00    +0.059 C 
ATOM      7  C   UNL     1       1.300  -6.551   4.419  0.00  0.00    +0.026 C 
ATOM      8  C   UNL     1       1.470  -5.394   5.216  0.00  0.00    +0.022 C 
ATOM      9  C   UNL     1       0.671  -4.390   4.800  0.00  0.00    +0.027 C 
ATOM     10  C   UNL     1      -0.131  -4.942   3.663  0.00  0.00    +0.145 C 
ATOM     11  H   UNL     1       0.126  -2.320   3.232  0.00  0.00    +0.153 HD
ENDROOT
BRANCH   1  17
ATOM     12  C   UNL     1      -1.525  -2.382  -2.246  0.00  0.00    +0.044 C 
ATOM     13  C   UNL     1      -0.724  -1.865  -1.079  0.00  0.00    -0.049 A 
ATOM     14  C   UNL     1      -0.008  -0.688  -1.199  0.00  0.00    +0.003 A 
ATOM     15  C   UNL     1       0.727  -0.209  -0.131  0.00  0.00    +0.002 A 
ATOM     16  C   UNL     1       0.749  -0.906   1.062  0.00  0.00    +0.023 A 
ATOM     17  C   UNL     1       0.032  -2.089   1.186  0.00  0.00    +0.032 A 
ATOM     18  C   UNL     1      -0.711  -2.564   0.112  0.00  0.00    +0.026 A 
ENDBRANCH   1  17
BRANCH   9  19
ATOM     19  N   UNL     1       0.609  -3.108   5.319  0.00  0.00    -0.285 N 
ATOM     20  C   UNL     1       1.404  -2.759   6.350  0.00  0.00    +0.240 C 
ATOM     21  O   UNL     1       2.177  -3.570   6.824  0.00  0.00    -0.271 OA
ATOM     22  H   UNL     1      -0.007  -2.461   4.941  0.00  0.00    +0.155 HD
BRANCH  20  23
ATOM     23  C   UNL     1       1.338  -1.397   6.901  0.00  0.00    +0.060 C 
ATOM     24  C   UNL     1       2.124  -1.053   7.918  0.00  0.00    +0.013 C 
ENDBRANCH  20  23
ENDBRANCH   9  19
TORSDOF 3
