REMARK  Name = CHEMBL53203
REMARK  6 active torsions:
REMARK  status: ('A' for Active; 'I' for Inactive)
REMARK    1  A    between atoms: C_2  and  C_3
REMARK    2  A    between atoms: N_5  and  C_6
REMARK    3  A    between atoms: C_12  and  N_16
REMARK    4  A    between atoms: N_16  and  C_17
REMARK    5  A    between atoms: C_20  and  O_23
REMARK    6  A    between atoms: O_23  and  C_24
REMARK                            x       y       z     vdW  Elec       q    Type
REMARK                         _______ _______ _______ _____ _____    ______ ____
ROOT
ATOM      1  C   UNL     1       2.306  -2.861   0.524  0.00  0.00    +0.034 A 
ATOM      2  C   UNL     1       3.449  -2.213   1.002  0.00  0.00    +0.025 A 
ATOM      3  C   UNL     1       4.603  -2.901   1.225  0.00  0.00    +0.030 A 
ATOM      4  C   UNL     1       4.651  -4.280   0.975  0.00  0.00    +0.076 A 
ATOM      5  C   UNL     1       3.496  -4.942   0.492  0.00  0.00    +0.042 A 
ATOM      6  C   UNL     1       2.320  -4.218   0.274  0.00  0.00    +0.036 A 
ATOM      7  C   UNL     1       3.576  -6.336   0.249  0.00  0.00    +0.134 A 
ATOM      8  N   UNL     1       4.729  -6.948   0.487  0.00  0.00    -0.220 NA
ATOM      9  C   UNL     1       5.782  -6.287   0.939  0.00  0.00    +0.223 A 
ATOM     10  N   UNL     1       5.766  -4.998   1.181  0.00  0.00    -0.235 NA
ENDROOT
BRANCH   1  13
ATOM     11  C   UNL     1       1.206  -0.877  -0.192  0.00  0.00    +0.241 C 
ATOM     12  O   UNL     1       2.288  -0.389  -0.458  0.00  0.00    -0.271 OA
ATOM     13  N   UNL     1       1.135  -2.128   0.304  0.00  0.00    -0.282 N 
ATOM     14  H   UNL     1       0.272  -2.520   0.509  0.00  0.00    +0.155 HD
BRANCH  11  16
ATOM     15  C   UNL     1       0.046   1.133  -0.902  0.00  0.00    +0.013 C 
ATOM     16  C   UNL     1      -0.024  -0.102  -0.412  0.00  0.00    +0.060 C 
ENDBRANCH  11  16
ENDBRANCH   1  13
BRANCH   7  17
ATOM     17  N   UNL     1       2.485  -7.037  -0.221  0.00  0.00    -0.299 N 
ATOM     18  H   UNL     1       1.689  -6.561  -0.506  0.00  0.00    +0.154 HD
BRANCH  17  19
ATOM     19  C   UNL     1       2.527  -8.434  -0.288  0.00  0.00    +0.033 A 
ATOM     20  C   UNL     1       1.356  -9.171  -0.164  0.00  0.00    +0.027 A 
ATOM     21  C   UNL     1       1.397 -10.550  -0.231  0.00  0.00    +0.048 A 
ATOM     22  C   UNL     1       2.609 -11.199  -0.420  0.00  0.00    +0.129 A 
ATOM     23  C   UNL     1       3.779 -10.464  -0.543  0.00  0.00    +0.048 A 
ATOM     24  C   UNL     1       3.738  -9.085  -0.483  0.00  0.00    +0.027 A 
BRANCH  22  25
ATOM     25  O   UNL     1       2.649 -12.556  -0.484  0.00  0.00    -0.456 OA
BRANCH  25  26
ATOM     26  C   UNL     1       1.469 -13.230  -0.498  0.00  0.00    +0.128 A 
ATOM     27  C   UNL     1       0.726 -13.304  -1.668  0.00  0.00    +0.046 A 
ATOM     28  C   UNL     1      -0.473 -13.989  -1.680  0.00  0.00    +0.004 A 
ATOM     29  C   UNL     1      -0.934 -14.600  -0.529  0.00  0.00    +0.000 A 
ATOM     30  C   UNL     1      -0.195 -14.528   0.638  0.00  0.00    +0.004 A 
ATOM     31  C   UNL     1       1.008 -13.849   0.654  0.00  0.00    +0.046 A 
ENDBRANCH  25  26
ENDBRANCH  22  25
ENDBRANCH  17  19
ENDBRANCH   7  17
TORSDOF 6
