REMARK  Name = CHEMBL372246
REMARK  5 active torsions:
REMARK  status: ('A' for Active; 'I' for Inactive)
REMARK    1  A    between atoms: C_1  and  N_2
REMARK    2  A    between atoms: N_5  and  C_8
REMARK    3  A    between atoms: C_13  and  N_14
REMARK    4  A    between atoms: C_15  and  C_17
REMARK    5  A    between atoms: N_23  and  C_24
REMARK                            x       y       z     vdW  Elec       q    Type
REMARK                         _______ _______ _______ _____ _____    ______ ____
ROOT
ATOM      1  C   UNL     1      -0.801  -3.249   1.812  0.00  0.00    +0.053 A 
ATOM      2  C   UNL     1      -0.529  -4.551   1.447  0.00  0.00    +0.053 A 
ATOM      3  C   UNL     1      -0.995  -5.603   2.243  0.00  0.00    +0.078 A 
ATOM      4  C   UNL     1      -1.740  -5.315   3.414  0.00  0.00    +0.042 A 
ATOM      5  C   UNL     1      -2.004  -3.986   3.765  0.00  0.00    +0.038 A 
ATOM      6  C   UNL     1      -1.535  -2.971   2.977  0.00  0.00    +0.056 A 
ATOM      7  C   UNL     1      -2.197  -6.400   4.199  0.00  0.00    +0.134 A 
ATOM      8  N   UNL     1      -1.905  -7.631   3.799  0.00  0.00    -0.220 NA
ATOM      9  C   UNL     1      -1.206  -7.853   2.697  0.00  0.00    +0.223 A 
ATOM     10  N   UNL     1      -0.756  -6.887   1.931  0.00  0.00    -0.235 NA
ATOM     11  N   UNL     1      -2.927  -6.184   5.351  0.00  0.00    -0.297 N 
ATOM     12  H   UNL     1      -3.207  -5.286   5.586  0.00  0.00    +0.154 HD
ENDROOT
BRANCH  11  13
ATOM     13  C   UNL     1      -3.262  -7.261   6.179  0.00  0.00    +0.070 A 
ATOM     14  C   UNL     1      -2.489  -8.414   6.168  0.00  0.00    +0.047 A 
ATOM     15  C   UNL     1      -2.822  -9.476   6.987  0.00  0.00    +0.061 A 
ATOM     16  C   UNL     1      -3.926  -9.392   7.819  0.00  0.00    +0.062 A 
ATOM     17  C   UNL     1      -4.699  -8.244   7.832  0.00  0.00    +0.061 A 
ATOM     18  C   UNL     1      -4.367  -7.176   7.019  0.00  0.00    +0.146 A 
ATOM     19  F   UNL     1      -5.119  -6.054   7.037  0.00  0.00    -0.203 F 
ATOM     20 CL   UNL     1      -4.341 -10.728   8.847  0.00  0.00    -0.082 Cl
ATOM     21 CL   UNL     1      -1.855 -10.918   6.973  0.00  0.00    -0.082 Cl
ENDBRANCH  11  13
BRANCH   1  26
ATOM     22  C   UNL     1       0.083   1.874   0.160  0.00  0.00    -0.096 C 
ATOM     23  N   UNL     1       0.143   0.406   0.131  0.00  0.00    +0.380 N 
ATOM     24  C   UNL     1      -1.220  -0.136   0.070  0.00  0.00    -0.060 C 
ATOM     25  C   UNL     1      -1.156  -1.660  -0.076  0.00  0.00    +0.086 C 
ATOM     26  N   UNL     1      -0.338  -2.199   1.021  0.00  0.00    -0.332 N 
ATOM     27  C   UNL     1       0.984  -1.599   1.259  0.00  0.00    +0.086 C 
ATOM     28  C   UNL     1       0.820  -0.078   1.341  0.00  0.00    -0.060 C 
ATOM     29  H   UNL     1       0.658   0.108  -0.683  0.00  0.00    -0.082 HD
ENDBRANCH   1  26
BRANCH   6  30
ATOM     30  N   UNL     1      -1.795  -1.642   3.332  0.00  0.00    -0.280 N 
ATOM     31  C   UNL     1      -2.963  -1.317   3.920  0.00  0.00    +0.241 C 
ATOM     32  O   UNL     1      -3.757  -2.189   4.218  0.00  0.00    -0.271 OA
ATOM     33  H   UNL     1      -1.133  -0.955   3.154  0.00  0.00    +0.155 HD
BRANCH  31  34
ATOM     34  C   UNL     1      -3.277   0.092   4.202  0.00  0.00    +0.060 C 
ATOM     35  C   UNL     1      -4.430   0.412   4.783  0.00  0.00    +0.013 C 
ENDBRANCH  31  34
ENDBRANCH   6  30
TORSDOF 4
