REMARK  Name = CHEMBL589588
REMARK  9 active torsions:
REMARK  status: ('A' for Active; 'I' for Inactive)
REMARK    1  A    between atoms: C_1  and  O_2
REMARK    2  A    between atoms: O_2  and  C_3
REMARK    3  A    between atoms: C_6  and  N_9
REMARK    4  A    between atoms: C_10  and  C_12
REMARK    5  A    between atoms: C_15  and  N_18
REMARK    6  A    between atoms: N_18  and  C_19
REMARK    7  A    between atoms: N_18  and  C_22
REMARK    8  A    between atoms: C_19  and  C_20
REMARK    9  A    between atoms: C_22  and  C_23
REMARK                            x       y       z     vdW  Elec       q    Type
REMARK                         _______ _______ _______ _____ _____    ______ ____
ROOT
ATOM      1  C   UNL     1       3.348  -4.443  -5.416  0.00  0.00    +0.037 A 
ATOM      2  C   UNL     1       3.923  -3.666  -6.426  0.00  0.00    +0.015 A 
ATOM      3  C   UNL     1       4.624  -4.271  -7.444  0.00  0.00    +0.024 A 
ATOM      4  C   UNL     1       4.761  -5.656  -7.469  0.00  0.00    +0.030 A 
ATOM      5  C   UNL     1       4.190  -6.433  -6.465  0.00  0.00    +0.024 A 
ATOM      6  C   UNL     1       3.492  -5.834  -5.441  0.00  0.00    +0.015 A 
ENDROOT
BRANCH   1   8
ATOM      7  N   UNL     1       2.459  -2.457  -4.301  0.00  0.00    -0.281 N 
ATOM      8  C   UNL     1       2.597  -3.798  -4.324  0.00  0.00    +0.248 C 
ATOM      9  O   UNL     1       2.102  -4.475  -3.443  0.00  0.00    -0.270 OA
ATOM     10  H   UNL     1       2.787  -1.923  -5.041  0.00  0.00    +0.155 HD
BRANCH   7  14
ATOM     11  C   UNL     1       0.622  -0.606  -1.048  0.00  0.00    +0.120 A 
ATOM     12  C   UNL     1       0.479  -0.074  -2.321  0.00  0.00    +0.047 A 
ATOM     13  C   UNL     1       1.087  -0.686  -3.398  0.00  0.00    +0.027 A 
ATOM     14  C   UNL     1       1.842  -1.835  -3.208  0.00  0.00    +0.034 A 
ATOM     15  C   UNL     1       1.986  -2.368  -1.934  0.00  0.00    +0.027 A 
ATOM     16  C   UNL     1       1.381  -1.752  -0.856  0.00  0.00    +0.047 A 
BRANCH  11  18
ATOM     17  C   UNL     1      -0.743   1.173  -0.257  0.00  0.00    +0.277 C 
ATOM     18  O   UNL     1       0.023  -0.003   0.013  0.00  0.00    -0.495 OA
ENDBRANCH  11  18
ENDBRANCH   7  14
ENDBRANCH   1   8
BRANCH   4  19
ATOM     19  N   UNL     1       5.470  -6.265  -8.499  0.00  0.00    -0.328 N 
BRANCH  19  20
ATOM     20  C   UNL     1       5.615  -7.722  -8.527  0.00  0.00    +0.121 C 
BRANCH  20  21
ATOM     21  C   UNL     1       4.452  -8.336  -9.309  0.00  0.00    +0.127 C 
ATOM     22 CL   UNL     1       4.631 -10.130  -9.343  0.00  0.00    -0.124 Cl
ENDBRANCH  20  21
ENDBRANCH  19  20
BRANCH  19  23
ATOM     23  C   UNL     1       6.072  -5.448  -9.556  0.00  0.00    +0.121 C 
BRANCH  23  24
ATOM     24  C   UNL     1       7.495  -5.058  -9.151  0.00  0.00    +0.127 C 
ATOM     25 CL   UNL     1       8.236  -4.053 -10.452  0.00  0.00    -0.124 Cl
ENDBRANCH  23  24
ENDBRANCH  19  23
ENDBRANCH   4  19
TORSDOF 8
