REMARK  Name = CHEMBL310853
REMARK  3 active torsions:
REMARK  status: ('A' for Active; 'I' for Inactive)
REMARK    1  A    between atoms: C_3  and  C_6
REMARK    2  A    between atoms: C_11  and  N_15
REMARK    3  A    between atoms: N_15  and  C_16
REMARK                            x       y       z     vdW  Elec       q    Type
REMARK                         _______ _______ _______ _____ _____    ______ ____
ROOT
ATOM      1  C   UNL     1       3.684   2.072  -1.202  0.00  0.00    +0.029 A 
ATOM      2  C   UNL     1       4.830   1.397  -1.494  0.00  0.00    +0.045 A 
ATOM      3  C   UNL     1       6.078   2.013  -1.292  0.00  0.00    +0.080 A 
ATOM      4  C   UNL     1       6.027   3.329  -0.783  0.00  0.00    +0.059 A 
ATOM      5  S   UNL     1       4.290   3.646  -0.619  0.00  0.00    -0.084 S 
ATOM      6  C   UNL     1       7.176   4.060  -0.533  0.00  0.00    +0.049 A 
ATOM      7  C   UNL     1       8.406   3.456  -0.801  0.00  0.00    +0.044 A 
ATOM      8  C   UNL     1       8.410   2.165  -1.299  0.00  0.00    +0.113 A 
ATOM      9  N   UNL     1       7.307   1.496  -1.526  0.00  0.00    -0.254 NA
ENDROOT
BRANCH   1  12
ATOM     10  C   UNL     1      -0.072   1.654  -1.264  0.00  0.00    +0.008 A 
ATOM     11  C   UNL     1       1.130   2.291  -1.052  0.00  0.00    +0.016 A 
ATOM     12  C   UNL     1       2.291   1.617  -1.338  0.00  0.00    +0.026 A 
ATOM     13  S   UNL     1       1.672   0.047  -1.921  0.00  0.00    -0.096 S 
ATOM     14  C   UNL     1      -0.073   0.384  -1.747  0.00  0.00    +0.046 A 
ENDBRANCH   1  12
BRANCH   6  15
ATOM     15  N   UNL     1       7.107   5.357  -0.031  0.00  0.00    -0.314 N 
ATOM     16  H   UNL     1       6.254   5.724   0.250  0.00  0.00    +0.152 HD
BRANCH  15  17
ATOM     17  C   UNL     1       8.268   6.133   0.067  0.00  0.00    +0.032 A 
ATOM     18  C   UNL     1       9.207   6.112  -0.964  0.00  0.00    +0.025 A 
ATOM     19  C   UNL     1      10.354   6.869  -0.882  0.00  0.00    +0.028 A 
ATOM     20  C   UNL     1      10.586   7.663   0.237  0.00  0.00    +0.047 A 
ATOM     21  C   UNL     1       9.642   7.686   1.279  0.00  0.00    +0.001 A 
ATOM     22  C   UNL     1       8.478   6.920   1.184  0.00  0.00    +0.033 A 
ATOM     23  C   UNL     1      10.175   8.603   2.289  0.00  0.00    +0.027 A 
ATOM     24  C   UNL     1      11.350   9.059   1.825  0.00  0.00    +0.083 A 
ATOM     25  N   UNL     1      11.613   8.509   0.600  0.00  0.00    -0.361 N 
ATOM     26  H   UNL     1      12.403   8.687   0.067  0.00  0.00    +0.165 HD
ENDBRANCH  15  17
ENDBRANCH   6  15
TORSDOF 3
