REMARK  Name = CHEMBL306732
REMARK  5 active torsions:
REMARK  status: ('A' for Active; 'I' for Inactive)
REMARK    1  A    between atoms: C_1  and  N_2
REMARK    2  A    between atoms: N_2  and  C_3
REMARK    3  A    between atoms: N_2  and  C_4
REMARK    4  A    between atoms: C_7  and  N_10
REMARK    5  A    between atoms: C_15  and  C_17
REMARK                            x       y       z     vdW  Elec       q    Type
REMARK                         _______ _______ _______ _____ _____    ______ ____
ROOT
ATOM      1  N   UNL     1      -4.783  -2.854   0.033  0.00  0.00    -0.298 N 
ATOM      2  C   UNL     1      -5.989  -2.182   0.148  0.00  0.00    +0.141 A 
ATOM      3  C   UNL     1      -7.181  -2.877   0.266  0.00  0.00    +0.078 A 
ATOM      4  C   UNL     1      -8.413  -2.196   0.383  0.00  0.00    +0.084 A 
ATOM      5  C   UNL     1      -9.546  -3.015   0.497  0.00  0.00    +0.044 A 
ATOM      6  C   UNL     1      -9.409  -4.368   0.489  0.00  0.00    +0.022 A 
ATOM      7  S   UNL     1      -7.645  -4.586   0.318  0.00  0.00    -0.083 S 
ATOM      8  N   UNL     1      -8.338  -0.841   0.370  0.00  0.00    -0.235 NA
ATOM      9  C   UNL     1      -7.191  -0.224   0.256  0.00  0.00    +0.224 A 
ATOM     10  N   UNL     1      -6.031  -0.849   0.152  0.00  0.00    -0.219 NA
ATOM     11  H   UNL     1      -4.772  -3.821  -0.046  0.00  0.00    +0.154 HD
ENDROOT
BRANCH   1  15
ATOM     12  C   UNL     1      -1.200  -0.721   0.028  0.00  0.00    +0.029 A 
ATOM     13  C   UNL     1      -1.313  -1.889  -0.714  0.00  0.00    +0.025 A 
ATOM     14  C   UNL     1      -2.500  -2.596  -0.712  0.00  0.00    +0.025 A 
ATOM     15  C   UNL     1      -3.579  -2.138   0.032  0.00  0.00    +0.033 A 
ATOM     16  C   UNL     1      -3.466  -0.970   0.774  0.00  0.00    +0.025 A 
ATOM     17  C   UNL     1      -2.277  -0.266   0.777  0.00  0.00    +0.025 A 
BRANCH  12  19
ATOM     18  C   UNL     1       0.125   1.224   0.815  0.00  0.00    +0.129 C 
ATOM     19  N   UNL     1       0.003  -0.005   0.027  0.00  0.00    -0.336 N 
ATOM     20  C   UNL     1       1.140  -0.485  -0.763  0.00  0.00    +0.129 C 
ENDBRANCH  12  19
ENDBRANCH   1  15
BRANCH   6  21
ATOM     21  C   UNL     1     -10.460  -5.403   0.595  0.00  0.00    -0.011 A 
ATOM     22  C   UNL     1     -11.799  -5.031   0.717  0.00  0.00    +0.009 A 
ATOM     23  C   UNL     1     -12.775  -6.001   0.815  0.00  0.00    +0.001 A 
ATOM     24  C   UNL     1     -12.428  -7.341   0.792  0.00  0.00    +0.000 A 
ATOM     25  C   UNL     1     -11.102  -7.716   0.671  0.00  0.00    +0.001 A 
ATOM     26  C   UNL     1     -10.117  -6.755   0.567  0.00  0.00    +0.009 A 
ENDBRANCH   6  21
TORSDOF 3
