REMARK  Name = CHEMBL258270
REMARK  10 active torsions:
REMARK  status: ('A' for Active; 'I' for Inactive)
REMARK    1  A    between atoms: C_1  and  C_2
REMARK    2  A    between atoms: N_7  and  C_10
REMARK    3  A    between atoms: C_10  and  C_11
REMARK    4  A    between atoms: C_11  and  O_12
REMARK    5  A    between atoms: O_12  and  C_13
REMARK    6  A    between atoms: C_22  and  N_23
REMARK    7  A    between atoms: N_23  and  C_24
REMARK    8  A    between atoms: C_27  and  O_31
REMARK    9  A    between atoms: O_31  and  C_32
REMARK   10  A    between atoms: C_32  and  C_33
REMARK                            x       y       z     vdW  Elec       q    Type
REMARK                         _______ _______ _______ _____ _____    ______ ____
ROOT
ATOM      1  C   UNL     1      -3.680  -6.215   1.475  0.00  0.00    +0.246 A 
ATOM      2  C   UNL     1      -2.687  -7.253   1.726  0.00  0.00    +0.121 A 
ATOM      3  C   UNL     1      -3.309  -8.481   1.424  0.00  0.00    +0.164 A 
ATOM      4  N   UNL     1      -4.578  -8.190   1.024  0.00  0.00    -0.257 N 
ATOM      5  H   UNL     1      -5.243  -8.842   0.752  0.00  0.00    +0.191 HD
ATOM      6  N   UNL     1      -4.773  -6.806   1.071  0.00  0.00    -0.134 NA
ATOM      7  N   UNL     1      -2.608  -9.605   1.571  0.00  0.00    -0.216 NA
ATOM      8  C   UNL     1      -1.362  -9.569   1.989  0.00  0.00    +0.225 A 
ATOM      9  N   UNL     1      -0.739  -8.441   2.283  0.00  0.00    -0.220 NA
ATOM     10  C   UNL     1      -1.353  -7.267   2.169  0.00  0.00    +0.141 A 
ENDROOT
BRANCH  10  11
ATOM     11  N   UNL     1      -0.697  -6.092   2.479  0.00  0.00    -0.299 N 
ATOM     12  H   UNL     1      -1.178  -5.249   2.464  0.00  0.00    +0.154 HD
BRANCH  11  13
ATOM     13  C   UNL     1       0.662  -6.116   2.815  0.00  0.00    +0.034 A 
ATOM     14  C   UNL     1       1.172  -5.192   3.717  0.00  0.00    +0.027 A 
ATOM     15  C   UNL     1       2.512  -5.216   4.048  0.00  0.00    +0.049 A 
ATOM     16  C   UNL     1       3.350  -6.163   3.479  0.00  0.00    +0.139 A 
ATOM     17  C   UNL     1       2.842  -7.088   2.577  0.00  0.00    +0.084 A 
ATOM     18  C   UNL     1       1.500  -7.068   2.250  0.00  0.00    +0.047 A 
ATOM     19 CL   UNL     1       3.892  -8.274   1.865  0.00  0.00    -0.080 Cl
BRANCH  16  20
ATOM     20  O   UNL     1       4.671  -6.186   3.805  0.00  0.00    -0.484 OA
BRANCH  20  21
ATOM     21  C   UNL     1       5.125  -5.205   4.739  0.00  0.00    +0.284 C 
BRANCH  21  22
ATOM     22  C   UNL     1       6.603  -5.384   4.977  0.00  0.00    +0.078 A 
ATOM     23  C   UNL     1       7.285  -6.387   4.313  0.00  0.00    +0.027 A 
ATOM     24  C   UNL     1       8.643  -6.543   4.539  0.00  0.00    +0.003 A 
ATOM     25  C   UNL     1       9.268  -5.681   5.427  0.00  0.00    +0.020 A 
ATOM     26  C   UNL     1       8.521  -4.702   6.053  0.00  0.00    +0.111 A 
ATOM     27  N   UNL     1       7.231  -4.579   5.810  0.00  0.00    -0.256 NA
ENDBRANCH  21  22
ENDBRANCH  20  21
ENDBRANCH  16  20
ENDBRANCH  11  13
ENDBRANCH  10  11
BRANCH   1  28
ATOM     28  O   UNL     1      -3.503  -4.877   1.638  0.00  0.00    -0.474 OA
BRANCH  28  29
ATOM     29  C   UNL     1      -4.618  -4.034   1.339  0.00  0.00    +0.246 C 
BRANCH  29  30
ATOM     30  C   UNL     1      -4.231  -2.573   1.580  0.00  0.00    +0.125 C 
BRANCH  30  37
ATOM     31  C   UNL     1      -1.966   0.468  -3.413  0.00  0.00    +0.109 C 
ATOM     32  C   UNL     1      -1.447   0.405  -2.000  0.00  0.00    +0.213 C 
ATOM     33  O   UNL     1      -0.743   1.295  -1.572  0.00  0.00    -0.276 OA
ATOM     34  N   UNL     1      -1.764  -0.641  -1.211  0.00  0.00    -0.299 N 
ATOM     35  C   UNL     1      -2.611  -1.734  -1.712  0.00  0.00    +0.123 C 
ATOM     36  C   UNL     1      -3.750  -1.965  -0.713  0.00  0.00    +0.103 C 
ATOM     37  N   UNL     1      -3.186  -2.179   0.626  0.00  0.00    -0.296 NA
ATOM     38  C   UNL     1      -2.465  -0.990   1.097  0.00  0.00    +0.103 C 
ATOM     39  C   UNL     1      -1.268  -0.722   0.171  0.00  0.00    +0.123 C 
ENDBRANCH  30  37
ENDBRANCH  29  30
ENDBRANCH  28  29
ENDBRANCH   1  28
TORSDOF 9
