REMARK  Name = CHEMBL250923
REMARK  8 active torsions:
REMARK  status: ('A' for Active; 'I' for Inactive)
REMARK    1  A    between atoms: C_1  and  O_2
REMARK    2  A    between atoms: O_2  and  C_3
REMARK    3  A    between atoms: C_8  and  O_9
REMARK    4  A    between atoms: O_9  and  C_10
REMARK    5  A    between atoms: C_14  and  C_15
REMARK    6  A    between atoms: C_16  and  C_17
REMARK    7  A    between atoms: C_17  and  C_18
REMARK    8  A    between atoms: C_18  and  C_19
REMARK                            x       y       z     vdW  Elec       q    Type
REMARK                         _______ _______ _______ _____ _____    ______ ____
ROOT
ATOM      1  C   UNL     1      -1.201  -0.638   0.010  0.00  0.00    +0.162 A 
ATOM      2  C   UNL     1      -2.352   0.098   0.019  0.00  0.00    +0.061 A 
ATOM      3  C   UNL     1      -3.589  -0.556   0.027  0.00  0.00    +0.029 A 
ATOM      4  C   UNL     1      -3.637  -1.974   0.025  0.00  0.00    +0.078 A 
ATOM      5  C   UNL     1      -2.441  -2.703   0.016  0.00  0.00    +0.077 A 
ATOM      6  C   UNL     1      -1.246  -2.040   0.003  0.00  0.00    +0.164 A 
ATOM      7  N   UNL     1      -4.835  -2.577   0.033  0.00  0.00    -0.235 NA
ATOM      8  C   UNL     1      -5.939  -1.867   0.041  0.00  0.00    +0.222 A 
ATOM      9  N   UNL     1      -5.946  -0.545   0.043  0.00  0.00    -0.235 NA
ATOM     10  C   UNL     1      -4.815   0.155   0.036  0.00  0.00    +0.075 A 
ENDROOT
BRANCH   1  12
ATOM     11  C   UNL     1      -0.017   1.425   0.010  0.00  0.00    +0.277 C 
ATOM     12  O   UNL     1       0.002  -0.004   0.002  0.00  0.00    -0.491 OA
ENDBRANCH   1  12
BRANCH   6  13
ATOM     13  O   UNL     1      -0.087  -2.748  -0.011  0.00  0.00    -0.491 OA
ATOM     14  C   UNL     1      -0.197  -4.172  -0.018  0.00  0.00    +0.277 C 
ENDBRANCH   6  13
BRANCH  10  15
ATOM     15  C   UNL     1      -4.836   1.628   0.039  0.00  0.00    +0.024 C 
ATOM     16  C   UNL     1      -5.997   2.276   0.048  0.00  0.00    -0.024 C 
BRANCH  16  17
ATOM     17  C   UNL     1      -6.019   3.783   0.051  0.00  0.00    +0.032 C 
BRANCH  17  18
ATOM     18  C   UNL     1      -6.861   4.283  -1.125  0.00  0.00    +0.039 C 
BRANCH  18  19
ATOM     19  C   UNL     1      -6.883   5.790  -1.122  0.00  0.00    -0.047 A 
ATOM     20  C   UNL     1      -7.866   6.465  -0.423  0.00  0.00    +0.003 A 
ATOM     21  C   UNL     1      -7.886   7.848  -0.420  0.00  0.00    +0.000 A 
ATOM     22  C   UNL     1      -6.923   8.554  -1.116  0.00  0.00    +0.000 A 
ATOM     23  C   UNL     1      -5.940   7.878  -1.814  0.00  0.00    +0.000 A 
ATOM     24  C   UNL     1      -5.917   6.496  -1.813  0.00  0.00    +0.003 A 
ENDBRANCH  18  19
ENDBRANCH  17  18
ENDBRANCH  16  17
ENDBRANCH  10  15
TORSDOF 6
