REMARK  Name = CHEMBL387187
REMARK  6 active torsions:
REMARK  status: ('A' for Active; 'I' for Inactive)
REMARK    1  A    between atoms: C_3  and  C_27
REMARK    2  A    between atoms: C_5  and  N_7
REMARK    3  A    between atoms: C_10  and  N_14
REMARK    4  A    between atoms: N_14  and  C_15
REMARK    5  A    between atoms: C_19  and  N_21
REMARK    6  A    between atoms: C_22  and  C_24
REMARK                            x       y       z     vdW  Elec       q    Type
REMARK                         _______ _______ _______ _____ _____    ______ ____
ROOT
ATOM      1  N   UNL     1      -0.852  -6.092  -0.333  0.00  0.00    -0.299 N 
ATOM      2  C   UNL     1      -0.993  -4.716  -0.234  0.00  0.00    +0.128 A 
ATOM      3  C   UNL     1      -2.174  -4.159   0.247  0.00  0.00    +0.087 A 
ATOM      4  C   UNL     1      -2.265  -2.773   0.327  0.00  0.00    +0.128 A 
ATOM      5  N   UNL     1      -1.226  -2.034  -0.058  0.00  0.00    -0.221 NA
ATOM      6  C   UNL     1      -0.125  -2.599  -0.509  0.00  0.00    +0.225 A 
ATOM      7  N   UNL     1       0.002  -3.907  -0.595  0.00  0.00    -0.221 NA
ATOM      8  H   UNL     1      -1.613  -6.671  -0.169  0.00  0.00    +0.154 HD
ENDROOT
BRANCH   1  13
ATOM      9  C   UNL     1       2.478  -6.505  -1.834  0.00  0.00    +0.002 A 
ATOM     10  C   UNL     1       2.839  -7.742  -1.332  0.00  0.00    +0.012 A 
ATOM     11  C   UNL     1       1.978  -8.432  -0.499  0.00  0.00    +0.057 A 
ATOM     12  C   UNL     1       0.753  -7.888  -0.166  0.00  0.00    +0.035 A 
ATOM     13  C   UNL     1       0.387  -6.646  -0.668  0.00  0.00    +0.033 A 
ATOM     14  C   UNL     1       1.255  -5.955  -1.504  0.00  0.00    +0.023 A 
BRANCH  11  15
ATOM     15  C   UNL     1       2.376  -9.780   0.044  0.00  0.00    +0.417 C 
ATOM     16  F   UNL     1       3.648 -10.117  -0.430  0.00  0.00    -0.166 F 
ATOM     17  F   UNL     1       2.397  -9.731   1.442  0.00  0.00    -0.166 F 
ATOM     18  F   UNL     1       1.452 -10.743  -0.374  0.00  0.00    -0.166 F 
ENDBRANCH  11  15
ENDBRANCH   1  13
BRANCH   4  19
ATOM     19  N   UNL     1      -3.422  -2.170   0.800  0.00  0.00    -0.299 N 
ATOM     20  H   UNL     1      -4.123  -2.710   1.196  0.00  0.00    +0.154 HD
BRANCH  19  21
ATOM     21  C   UNL     1      -3.576  -0.784   0.706  0.00  0.00    +0.034 A 
ATOM     22  C   UNL     1      -2.457   0.040   0.679  0.00  0.00    +0.023 A 
ATOM     23  C   UNL     1      -2.609   1.410   0.585  0.00  0.00    +0.004 A 
ATOM     24  C   UNL     1      -3.872   1.965   0.519  0.00  0.00    +0.023 A 
ATOM     25  C   UNL     1      -4.995   1.147   0.545  0.00  0.00    +0.035 A 
ATOM     26  C   UNL     1      -4.846  -0.230   0.633  0.00  0.00    +0.046 A 
BRANCH  25  27
ATOM     27  N   UNL     1      -6.274   1.710   0.478  0.00  0.00    -0.285 N 
ATOM     28  C   UNL     1      -6.467   2.866  -0.188  0.00  0.00    +0.220 C 
ATOM     29  O   UNL     1      -5.581   3.324  -0.878  0.00  0.00    -0.275 OA
ATOM     30  H   UNL     1      -7.021   1.269   0.911  0.00  0.00    +0.155 HD
BRANCH  28  31
ATOM     31  C   UNL     1      -7.784   3.590  -0.075  0.00  0.00    +0.075 C 
ATOM     32  C   UNL     1      -8.674   3.636  -1.319  0.00  0.00    +0.013 C 
ATOM     33  C   UNL     1      -7.941   4.896  -0.855  0.00  0.00    +0.013 C 
ENDBRANCH  28  31
ENDBRANCH  25  27
ENDBRANCH  19  21
ENDBRANCH   4  19
TORSDOF 6
