REMARK  Name = CHEMBL516375
REMARK  9 active torsions:
REMARK  status: ('A' for Active; 'I' for Inactive)
REMARK    1  A    between atoms: C_1  and  S_2
REMARK    2  A    between atoms: S_2  and  C_5
REMARK    3  A    between atoms: C_5  and  C_6
REMARK    4  A    between atoms: C_6  and  N_7
REMARK    5  A    between atoms: N_7  and  C_8
REMARK    6  A    between atoms: C_8  and  C_9
REMARK    7  A    between atoms: C_11  and  C_14
REMARK    8  A    between atoms: C_20  and  N_24
REMARK    9  A    between atoms: N_24  and  C_25
REMARK                            x       y       z     vdW  Elec       q    Type
REMARK                         _______ _______ _______ _____ _____    ______ ____
ROOT
ATOM      1  C   UNL     1       5.737  -5.290  -5.962  0.00  0.00    +0.002 A 
ATOM      2  C   UNL     1       6.612  -5.268  -4.865  0.00  0.00    +0.012 A 
ATOM      3  C   UNL     1       7.959  -5.210  -5.047  0.00  0.00    +0.029 A 
ATOM      4  C   UNL     1       8.488  -5.171  -6.346  0.00  0.00    +0.076 A 
ATOM      5  C   UNL     1       7.612  -5.194  -7.459  0.00  0.00    +0.041 A 
ATOM      6  C   UNL     1       6.231  -5.259  -7.256  0.00  0.00    +0.023 A 
ATOM      7  C   UNL     1       8.178  -5.154  -8.758  0.00  0.00    +0.134 A 
ATOM      8  N   UNL     1       9.499  -5.098  -8.863  0.00  0.00    -0.220 NA
ATOM      9  C   UNL     1      10.278  -5.080  -7.793  0.00  0.00    +0.223 A 
ATOM     10  N   UNL     1       9.809  -5.114  -6.568  0.00  0.00    -0.235 NA
ENDROOT
BRANCH   1  13
ATOM     11  C   UNL     1       2.460  -5.344  -4.325  0.00  0.00    +0.062 A 
ATOM     12  N   UNL     1       3.752  -5.288  -4.517  0.00  0.00    -0.246 NA
ATOM     13  C   UNL     1       4.273  -5.354  -5.734  0.00  0.00    +0.078 A 
ATOM     14  C   UNL     1       3.387  -5.485  -6.771  0.00  0.00    +0.075 A 
ATOM     15  S   UNL     1       1.839  -5.508  -5.880  0.00  0.00    -0.082 S 
BRANCH  11  16
ATOM     16  C   UNL     1       1.707  -5.284  -3.021  0.00  0.00    -0.019 C 
BRANCH  16  17
ATOM     17  N   UNL     1       1.380  -3.886  -2.709  0.00  0.00    +0.384 N 
ATOM     18  H   UNL     1       0.807  -3.502  -3.447  0.00  0.00    -0.085 HD
ATOM     19  H   UNL     1       2.231  -3.350  -2.631  0.00  0.00    -0.085 HD
BRANCH  17  20
ATOM     20  C   UNL     1       0.645  -3.827  -1.438  0.00  0.00    -0.059 C 
BRANCH  20  21
ATOM     21  C   UNL     1       0.304  -2.371  -1.114  0.00  0.00    +0.146 C 
BRANCH  21  23
ATOM     22  C   UNL     1      -0.908  -0.522   0.660  0.00  0.00    +0.193 C 
ATOM     23  S   UNL     1      -0.603  -2.298   0.456  0.00  0.00    -0.036 S 
ATOM     24  O   UNL     1       0.265  -2.728   1.496  0.00  0.00    -0.175 OA
ATOM     25  O   UNL     1      -1.852  -2.953   0.284  0.00  0.00    -0.175 OA
ENDBRANCH  21  23
ENDBRANCH  20  21
ENDBRANCH  17  20
ENDBRANCH  16  17
ENDBRANCH  11  16
ENDBRANCH   1  13
BRANCH   7  26
ATOM     26  N   UNL     1       7.378  -5.174  -9.881  0.00  0.00    -0.299 N 
ATOM     27  H   UNL     1       6.413  -5.131  -9.789  0.00  0.00    +0.154 HD
BRANCH  26  28
ATOM     28  C   UNL     1       7.957  -5.256 -11.151  0.00  0.00    +0.034 A 
ATOM     29  C   UNL     1       7.383  -4.583 -12.222  0.00  0.00    +0.026 A 
ATOM     30  C   UNL     1       7.956  -4.665 -13.476  0.00  0.00    +0.041 A 
ATOM     31  C   UNL     1       9.103  -5.417 -13.666  0.00  0.00    +0.142 A 
ATOM     32  C   UNL     1       9.678  -6.090 -12.600  0.00  0.00    +0.078 A 
ATOM     33  C   UNL     1       9.110  -6.006 -11.342  0.00  0.00    +0.046 A 
ATOM     34 CL   UNL     1      11.115  -7.033 -12.842  0.00  0.00    -0.081 Cl
ATOM     35  F   UNL     1       9.662  -5.495 -14.894  0.00  0.00    -0.204 F 
ENDBRANCH  26  28
ENDBRANCH   7  26
TORSDOF 8
