REMARK  Name = CHEMBL500217
REMARK  7 active torsions:
REMARK  status: ('A' for Active; 'I' for Inactive)
REMARK    1  A    between atoms: C_4  and  C_7
REMARK    2  A    between atoms: C_7  and  N_8
REMARK    3  A    between atoms: C_15  and  N_17
REMARK    4  A    between atoms: C_22  and  C_24
REMARK    5  A    between atoms: C_25  and  C_26
REMARK    6  A    between atoms: C_29  and  O_33
REMARK    7  A    between atoms: O_33  and  C_34
REMARK                            x       y       z     vdW  Elec       q    Type
REMARK                         _______ _______ _______ _____ _____    ______ ____
ROOT
ATOM      1  N   UNL     1       3.139  -4.860   5.125  0.00  0.00    -0.298 N 
ATOM      2  C   UNL     1       2.217  -5.876   4.927  0.00  0.00    +0.141 A 
ATOM      3  C   UNL     1       1.911  -6.765   5.943  0.00  0.00    +0.079 A 
ATOM      4  C   UNL     1       0.972  -7.802   5.748  0.00  0.00    +0.084 A 
ATOM      5  C   UNL     1       0.751  -8.634   6.854  0.00  0.00    +0.053 A 
ATOM      6  C   UNL     1       1.427  -8.411   8.016  0.00  0.00    +0.065 A 
ATOM      7  S   UNL     1       2.434  -6.990   7.622  0.00  0.00    -0.075 S 
ATOM      8  N   UNL     1       0.407  -7.855   4.514  0.00  0.00    -0.235 NA
ATOM      9  C   UNL     1       0.724  -6.995   3.582  0.00  0.00    +0.224 A 
ATOM     10  N   UNL     1       1.597  -6.018   3.755  0.00  0.00    -0.219 NA
ATOM     11  H   UNL     1       3.638  -4.813   5.955  0.00  0.00    +0.154 HD
ENDROOT
BRANCH   1  19
ATOM     12  N   UNL     1       3.709  -1.093   1.109  0.00  0.00    -0.342 N 
ATOM     13  C   UNL     1       2.433  -1.074   0.617  0.00  0.00    +0.087 A 
ATOM     14  C   UNL     1       1.663  -1.932   1.305  0.00  0.00    +0.027 A 
ATOM     15  C   UNL     1       2.517  -2.554   2.321  0.00  0.00    +0.002 A 
ATOM     16  C   UNL     1       3.796  -1.994   2.150  0.00  0.00    +0.049 A 
ATOM     17  C   UNL     1       4.838  -2.398   2.979  0.00  0.00    +0.028 A 
ATOM     18  C   UNL     1       4.614  -3.341   3.956  0.00  0.00    +0.025 A 
ATOM     19  C   UNL     1       3.349  -3.901   4.126  0.00  0.00    +0.033 A 
ATOM     20  C   UNL     1       2.299  -3.506   3.318  0.00  0.00    +0.033 A 
BRANCH  12  21
ATOM     21  C   UNL     1       4.819  -0.284   0.602  0.00  0.00    +0.157 C 
BRANCH  21  25
ATOM     22  C   UNL     1       7.051  -2.549  -2.250  0.00  0.00    +0.000 A 
ATOM     23  C   UNL     1       5.987  -1.770  -2.666  0.00  0.00    +0.000 A 
ATOM     24  C   UNL     1       5.265  -1.037  -1.743  0.00  0.00    +0.005 A 
ATOM     25  C   UNL     1       5.606  -1.083  -0.404  0.00  0.00    -0.028 A 
ATOM     26  C   UNL     1       6.669  -1.863   0.012  0.00  0.00    +0.005 A 
ATOM     27  C   UNL     1       7.392  -2.595  -0.912  0.00  0.00    +0.000 A 
ENDBRANCH  21  25
ENDBRANCH  12  21
ENDBRANCH   1  19
BRANCH   6  28
ATOM     28  C   UNL     1       1.349  -9.136   9.248  0.00  0.00    -0.057 C 
ATOM     29  C   UNL     1       1.284  -9.730  10.259  0.00  0.00    -0.078 C 
BRANCH  29  30
ATOM     30  C   UNL     1       1.204 -10.476  11.525  0.00  0.00    +0.134 C 
ATOM     31  C   UNL     1       1.549 -11.968  11.296  0.00  0.00    +0.077 C 
ATOM     32  C   UNL     1       0.199 -12.525  10.772  0.00  0.00    +0.194 C 
ATOM     33  C   UNL     1      -0.844 -11.721  11.576  0.00  0.00    +0.126 C 
ATOM     34  N   UNL     1      -0.185 -10.481  12.032  0.00  0.00    -0.300 NA
ATOM     35  H   UNL     1      -0.203 -10.410  13.039  0.00  0.00    +0.123 HD
BRANCH  32  36
ATOM     36  O   UNL     1       0.088 -13.923  11.048  0.00  0.00    -0.446 OA
BRANCH  36  37
ATOM     37  C   UNL     1      -0.639 -14.660  10.187  0.00  0.00    +0.403 C 
ATOM     38  O   UNL     1      -1.165 -14.131   9.228  0.00  0.00    -0.226 OA
ATOM     39  N   UNL     1      -0.784 -15.985  10.390  0.00  0.00    -0.263 N 
ATOM     40  C   UNL     1      -0.162 -16.646  11.548  0.00  0.00    +0.139 C 
ATOM     41  C   UNL     1      -1.233 -17.479  12.261  0.00  0.00    +0.179 C 
ATOM     42  O   UNL     1      -1.875 -18.333  11.312  0.00  0.00    -0.377 OA
ATOM     43  C   UNL     1      -2.571 -17.637  10.275  0.00  0.00    +0.179 C 
ATOM     44  C   UNL     1      -1.574 -16.811   9.463  0.00  0.00    +0.139 C 
ENDBRANCH  36  37
ENDBRANCH  32  36
ENDBRANCH  29  30
ENDBRANCH   6  28
TORSDOF 7
