REMARK  Name = CHEMBL45827
REMARK  14 active torsions:
REMARK  status: ('A' for Active; 'I' for Inactive)
REMARK    1  A    between atoms: C_1  and  C_2
REMARK    2  A    between atoms: C_2  and  N_3
REMARK    3  A    between atoms: N_3  and  C_4
REMARK    4  A    between atoms: N_3  and  C_6
REMARK    5  A    between atoms: C_4  and  C_5
REMARK    6  A    between atoms: C_6  and  C_7
REMARK    7  A    between atoms: C_7  and  C_8
REMARK    8  A    between atoms: C_8  and  C_9
REMARK    9  A    between atoms: C_9  and  N_10
REMARK   10  A    between atoms: C_16  and  C_29
REMARK   11  A    between atoms: N_24  and  C_25
REMARK   12  A    between atoms: C_25  and  C_26
REMARK   13  A    between atoms: C_25  and  C_27
REMARK   14  A    between atoms: C_25  and  C_28
REMARK                            x       y       z     vdW  Elec       q    Type
REMARK                         _______ _______ _______ _____ _____    ______ ____
ROOT
ATOM      1  N   UNL     1      -4.361  -6.083   0.264  0.00  0.00    -0.313 N 
ATOM      2  C   UNL     1      -5.554  -6.777   0.198  0.00  0.00    +0.217 A 
ATOM      3  N   UNL     1      -6.677  -6.095  -0.019  0.00  0.00    -0.222 NA
ATOM      4  C   UNL     1      -7.845  -6.700  -0.091  0.00  0.00    +0.126 A 
ATOM      5  C   UNL     1      -7.887  -8.097   0.066  0.00  0.00    +0.038 A 
ATOM      6  C   UNL     1      -9.092  -8.815   0.001  0.00  0.00    +0.025 A 
ATOM      7  C   UNL     1      -9.039 -10.190   0.167  0.00  0.00    +0.026 A 
ATOM      8  C   UNL     1      -7.793 -10.813   0.392  0.00  0.00    +0.136 A 
ATOM      9  N   UNL     1      -6.676 -10.118   0.449  0.00  0.00    -0.212 NA
ATOM     10  C   UNL     1      -6.671  -8.792   0.296  0.00  0.00    +0.167 A 
ATOM     11  N   UNL     1      -5.534  -8.087   0.348  0.00  0.00    -0.195 NA
ATOM     12  N   UNL     1      -7.744 -12.190   0.558  0.00  0.00    -0.254 N 
ATOM     13  C   UNL     1      -6.563 -12.801   0.774  0.00  0.00    +0.305 C 
ATOM     14  O   UNL     1      -5.540 -12.146   0.824  0.00  0.00    -0.252 OA
ATOM     15  N   UNL     1      -6.515 -14.138   0.935  0.00  0.00    -0.294 N 
ATOM     16  H   UNL     1      -3.530  -6.561   0.417  0.00  0.00    +0.149 HD
ATOM     17  H   UNL     1      -8.561 -12.713   0.518  0.00  0.00    +0.158 HD
ATOM     18  H   UNL     1      -7.331 -14.661   0.895  0.00  0.00    +0.151 HD
ENDROOT
BRANCH   7  19
ATOM     19  C   UNL     1     -10.280 -10.998   0.108  0.00  0.00    +0.022 A 
ATOM     20  C   UNL     1     -11.015 -11.237   1.269  0.00  0.00    +0.050 A 
ATOM     21  C   UNL     1     -12.171 -11.991   1.208  0.00  0.00    +0.021 A 
ATOM     22  C   UNL     1     -12.600 -12.508  -0.001  0.00  0.00    +0.003 A 
ATOM     23  C   UNL     1     -11.875 -12.275  -1.155  0.00  0.00    +0.021 A 
ATOM     24  C   UNL     1     -10.721 -11.518  -1.109  0.00  0.00    +0.050 A 
ATOM     25 CL   UNL     1      -9.816 -11.220  -2.560  0.00  0.00    -0.083 Cl
ATOM     26 CL   UNL     1     -10.479 -10.590   2.788  0.00  0.00    -0.083 Cl
ENDBRANCH   7  19
BRANCH  15  27
ATOM     27  C   UNL     1      -5.231 -14.803   1.170  0.00  0.00    +0.028 C 
ATOM     28  C   UNL     1      -4.599 -14.253   2.451  0.00  0.00    +0.031 C 
ATOM     29  C   UNL     1      -5.455 -16.309   1.317  0.00  0.00    +0.031 C 
ATOM     30  C   UNL     1      -4.296 -14.539  -0.013  0.00  0.00    +0.031 C 
ENDBRANCH  15  27
BRANCH   1  31
ATOM     31  C   UNL     1      -4.349  -4.628   0.102  0.00  0.00    +0.104 C 
BRANCH  31  32
ATOM     32  C   UNL     1      -2.913  -4.113   0.217  0.00  0.00    +0.017 C 
BRANCH  32  33
ATOM     33  C   UNL     1      -2.901  -2.592   0.048  0.00  0.00    -0.017 C 
BRANCH  33  34
ATOM     34  C   UNL     1      -1.464  -2.078   0.163  0.00  0.00    -0.079 C 
BRANCH  34  35
ATOM     35  N   UNL     1      -1.438  -0.634  -0.108  0.00  0.00    +0.379 N 
ATOM     36  H   UNL     1      -1.863  -0.453  -1.004  0.00  0.00    -0.082 HD
BRANCH  35  38
ATOM     37  C   UNL     1      -2.263   1.562   0.594  0.00  0.00    -0.017 C 
ATOM     38  C   UNL     1      -2.184   0.074   0.941  0.00  0.00    -0.082 C 
ENDBRANCH  35  38
BRANCH  35  39
ATOM     39  C   UNL     1      -0.046  -0.164  -0.121  0.00  0.00    -0.082 C 
ATOM     40  C   UNL     1       0.689  -0.780  -1.313  0.00  0.00    -0.017 C 
ENDBRANCH  35  39
ENDBRANCH  34  35
ENDBRANCH  33  34
ENDBRANCH  32  33
ENDBRANCH  31  32
ENDBRANCH   1  31
TORSDOF 9
