REMARK  Name = CHEMBL7866
REMARK  7 active torsions:
REMARK  status: ('A' for Active; 'I' for Inactive)
REMARK    1  A    between atoms: C_1  and  O_2
REMARK    2  A    between atoms: O_2  and  C_3
REMARK    3  A    between atoms: C_12  and  C_20
REMARK    4  A    between atoms: N_14  and  C_15
REMARK    5  A    between atoms: C_15  and  C_16
REMARK    6  A    between atoms: C_16  and  O_18
REMARK    7  A    between atoms: O_18  and  C_19
REMARK                            x       y       z     vdW  Elec       q    Type
REMARK                         _______ _______ _______ _____ _____    ______ ____
ROOT
ATOM      1  C   UNL     1       0.625  -0.618   1.040  0.00  0.00    +0.126 A 
ATOM      2  C   UNL     1       0.681  -2.001   1.085  0.00  0.00    +0.072 A 
ATOM      3  C   UNL     1       1.318  -2.636   2.143  0.00  0.00    +0.060 A 
ATOM      4  C   UNL     1       1.906  -1.860   3.161  0.00  0.00    +0.093 A 
ATOM      5  C   UNL     1       1.840  -0.462   3.110  0.00  0.00    +0.195 A 
ATOM      6  C   UNL     1       1.205   0.150   2.045  0.00  0.00    +0.097 A 
ATOM      7  O   UNL     1       2.400   0.285   4.094  0.00  0.00    -0.287 OA
ATOM      8  C   UNL     1       2.585  -2.558   4.263  0.00  0.00    +0.201 A 
ATOM      9  O   UNL     1       2.918  -1.973   5.280  0.00  0.00    -0.286 OA
ATOM     10  C   UNL     1       2.843  -3.995   4.081  0.00  0.00    +0.046 A 
ATOM     11  C   UNL     1       2.227  -4.648   3.055  0.00  0.00    +0.099 A 
ATOM     12  N   UNL     1       1.381  -4.011   2.209  0.00  0.00    -0.335 N 
ENDROOT
BRANCH  10  13
ATOM     13  C   UNL     1       3.757  -4.720   4.996  0.00  0.00    -0.011 A 
ATOM     14  C   UNL     1       3.265  -5.731   5.821  0.00  0.00    +0.009 A 
ATOM     15  C   UNL     1       4.120  -6.402   6.670  0.00  0.00    +0.002 A 
ATOM     16  C   UNL     1       5.463  -6.074   6.706  0.00  0.00    +0.020 A 
ATOM     17  C   UNL     1       5.958  -5.071   5.891  0.00  0.00    +0.042 A 
ATOM     18  C   UNL     1       5.112  -4.396   5.032  0.00  0.00    +0.028 A 
ATOM     19 CL   UNL     1       7.645  -4.665   5.942  0.00  0.00    -0.084 Cl
ENDBRANCH  10  13
BRANCH   1  21
ATOM     20  C   UNL     1      -0.017   1.425   0.010  0.00  0.00    +0.277 C 
ATOM     21  O   UNL     1       0.002  -0.004   0.002  0.00  0.00    -0.495 OA
ENDBRANCH   1  21
BRANCH  12  22
ATOM     22  C   UNL     1       0.510  -4.807   1.342  0.00  0.00    +0.242 C 
BRANCH  22  23
ATOM     23  C   UNL     1       1.215  -5.083   0.038  0.00  0.00    +0.327 C 
ATOM     24  O   UNL     1       2.331  -4.658  -0.146  0.00  0.00    -0.249 OA
BRANCH  23  25
ATOM     25  O   UNL     1       0.603  -5.800  -0.917  0.00  0.00    -0.467 OA
ATOM     26  C   UNL     1       1.330  -6.023  -2.127  0.00  0.00    +0.280 C 
ENDBRANCH  23  25
ENDBRANCH  22  23
ENDBRANCH  12  22
TORSDOF 5
