REMARK  Name = CHEMBL169514
REMARK  9 active torsions:
REMARK  status: ('A' for Active; 'I' for Inactive)
REMARK    1  A    between atoms: C_6  and  O_11
REMARK    2  A    between atoms: O_11  and  C_12
REMARK    3  A    between atoms: C_12  and  C_14
REMARK    4  A    between atoms: C_16  and  N_21
REMARK    5  A    between atoms: C_19  and  O_20
REMARK    6  A    between atoms: N_21  and  C_22
REMARK    7  A    between atoms: C_22  and  C_23
REMARK    8  A    between atoms: C_25  and  O_30
REMARK    9  A    between atoms: C_28  and  O_29
REMARK                            x       y       z     vdW  Elec       q    Type
REMARK                         _______ _______ _______ _____ _____    ______ ____
ROOT
ATOM      1  C   UNL     1       6.130  -4.724   0.139  0.00  0.00    +0.102 A 
ATOM      2  C   UNL     1       7.349  -4.040   0.139  0.00  0.00    +0.041 A 
ATOM      3  C   UNL     1       8.535  -4.747   0.233  0.00  0.00    +0.028 A 
ATOM      4  C   UNL     1       8.515  -6.135   0.327  0.00  0.00    +0.026 A 
ATOM      5  C   UNL     1       7.315  -6.817   0.327  0.00  0.00    +0.048 A 
ATOM      6  C   UNL     1       6.119  -6.121   0.240  0.00  0.00    +0.131 A 
ENDROOT
BRANCH   1   7
ATOM      7  C   UNL     1       4.863  -3.978   0.039  0.00  0.00    +0.348 C 
ATOM      8  O   UNL     1       3.804  -4.575   0.044  0.00  0.00    -0.244 OA
BRANCH   7   9
ATOM      9  O   UNL     1       4.878  -2.634  -0.058  0.00  0.00    -0.422 OA
BRANCH   9  15
ATOM     10  C   UNL     1      -0.437   0.639  -1.020  0.00  0.00    +0.001 A 
ATOM     11  C   UNL     1       0.296   0.604  -2.205  0.00  0.00    +0.001 A 
ATOM     12  C   UNL     1       1.491  -0.044  -2.271  0.00  0.00    +0.008 A 
ATOM     13  C   UNL     1       1.997  -0.687  -1.128  0.00  0.00    -0.014 A 
ATOM     14  C   UNL     1       3.227  -1.365  -1.158  0.00  0.00    +0.055 A 
ATOM     15  C   UNL     1       3.688  -1.978  -0.028  0.00  0.00    +0.133 A 
ATOM     16  C   UNL     1       2.950  -1.942   1.160  0.00  0.00    +0.047 A 
ATOM     17  C   UNL     1       1.756  -1.294   1.222  0.00  0.00    +0.012 A 
ATOM     18  C   UNL     1       1.252  -0.651   0.077  0.00  0.00    -0.018 A 
ATOM     19  C   UNL     1       0.021   0.027   0.106  0.00  0.00    +0.008 A 
ENDBRANCH   9  15
ENDBRANCH   7   9
ENDBRANCH   1   7
BRANCH   6  20
ATOM     20  O   UNL     1       4.939  -6.793   0.246  0.00  0.00    -0.506 OA
ATOM     21  H   UNL     1       4.629  -7.052  -0.632  0.00  0.00    +0.292 HD
ENDBRANCH   6  20
BRANCH   3  22
ATOM     22  N   UNL     1       9.757  -4.065   0.233  0.00  0.00    -0.340 N 
ATOM     23  H   UNL     1       9.772  -3.097   0.167  0.00  0.00    +0.146 HD
BRANCH  22  24
ATOM     24  C   UNL     1      11.013  -4.812   0.333  0.00  0.00    +0.140 C 
BRANCH  24  25
ATOM     25  C   UNL     1      12.173  -3.850   0.311  0.00  0.00    +0.014 A 
ATOM     26  C   UNL     1      12.879  -3.644  -0.859  0.00  0.00    +0.054 A 
ATOM     27  C   UNL     1      13.945  -2.759  -0.879  0.00  0.00    +0.117 A 
ATOM     28  C   UNL     1      14.304  -2.079   0.276  0.00  0.00    +0.049 A 
ATOM     29  C   UNL     1      13.599  -2.284   1.445  0.00  0.00    +0.049 A 
ATOM     30  C   UNL     1      12.528  -3.166   1.464  0.00  0.00    +0.122 A 
BRANCH  30  31
ATOM     31  O   UNL     1      11.830  -3.364   2.614  0.00  0.00    -0.506 OA
ATOM     32  H   UNL     1      12.177  -4.077   3.167  0.00  0.00    +0.292 HD
ENDBRANCH  30  31
BRANCH  27  33
ATOM     33  O   UNL     1      14.640  -2.557  -2.030  0.00  0.00    -0.507 OA
ATOM     34  H   UNL     1      14.292  -1.842  -2.580  0.00  0.00    +0.292 HD
ENDBRANCH  27  33
ENDBRANCH  24  25
ENDBRANCH  22  24
ENDBRANCH   3  22
TORSDOF 9
