REMARK  Name = CHEMBL207815
REMARK  12 active torsions:
REMARK  status: ('A' for Active; 'I' for Inactive)
REMARK    1  A    between atoms: C_1  and  N_2
REMARK    2  A    between atoms: N_2  and  C_3
REMARK    3  A    between atoms: N_2  and  C_25
REMARK    4  A    between atoms: C_3  and  C_4
REMARK    5  A    between atoms: C_9  and  O_10
REMARK    6  A    between atoms: O_10  and  C_11
REMARK    7  A    between atoms: N_16  and  C_17
REMARK    8  A    between atoms: C_25  and  C_33
REMARK    9  A    between atoms: N_27  and  C_29
REMARK   10  A    between atoms: C_29  and  C_30
REMARK   11  A    between atoms: C_30  and  O_31
REMARK   12  A    between atoms: O_31  and  C_32
REMARK                            x       y       z     vdW  Elec       q    Type
REMARK                         _______ _______ _______ _____ _____    ______ ____
ROOT
ATOM      1  C   UNL     1       1.089   0.124   2.685  0.00  0.00    +0.009 A 
ATOM      2  C   UNL     1       1.535   1.320   3.160  0.00  0.00    +0.022 A 
ATOM      3  C   UNL     1       0.965   1.863   4.317  0.00  0.00    +0.041 A 
ATOM      4  C   UNL     1      -0.071   1.167   4.987  0.00  0.00    +0.079 A 
ATOM      5  C   UNL     1      -0.513  -0.060   4.481  0.00  0.00    +0.074 A 
ATOM      6  C   UNL     1       0.063  -0.568   3.335  0.00  0.00    +0.127 A 
ATOM      7  N   UNL     1      -0.601   1.709   6.095  0.00  0.00    -0.235 NA
ATOM      8  C   UNL     1      -0.166   2.862   6.545  0.00  0.00    +0.223 A 
ATOM      9  N   UNL     1       0.799   3.547   5.953  0.00  0.00    -0.220 NA
ATOM     10  C   UNL     1       1.392   3.102   4.852  0.00  0.00    +0.134 A 
ATOM     11  N   UNL     1       2.396   3.827   4.246  0.00  0.00    -0.297 N 
ATOM     12  H   UNL     1       2.759   3.536   3.395  0.00  0.00    +0.154 HD
ENDROOT
BRANCH  11  13
ATOM     13  C   UNL     1       2.892   4.984   4.858  0.00  0.00    +0.070 A 
ATOM     14  C   UNL     1       2.791   5.140   6.234  0.00  0.00    +0.026 A 
ATOM     15  C   UNL     1       3.281   6.283   6.837  0.00  0.00    +0.003 A 
ATOM     16  C   UNL     1       3.873   7.271   6.072  0.00  0.00    +0.023 A 
ATOM     17  C   UNL     1       3.976   7.120   4.700  0.00  0.00    +0.078 A 
ATOM     18  C   UNL     1       3.491   5.976   4.091  0.00  0.00    +0.163 A 
ATOM     19  F   UNL     1       3.597   5.826   2.753  0.00  0.00    -0.202 F 
ATOM     20 CL   UNL     1       4.719   8.365   3.744  0.00  0.00    -0.081 Cl
ENDBRANCH  11  13
BRANCH   6  21
ATOM     21  O   UNL     1      -0.366  -1.756   2.837  0.00  0.00    -0.495 OA
ATOM     22  C   UNL     1      -1.417  -2.415   3.546  0.00  0.00    +0.277 C 
ENDBRANCH   6  21
BRANCH   1  23
ATOM     23  C   UNL     1       1.704  -0.458   1.439  0.00  0.00    +0.123 C 
BRANCH  23  25
ATOM     24  C   UNL     1       0.819   1.251  -0.030  0.00  0.00    +0.106 C 
ATOM     25  N   UNL     1       0.834  -0.183   0.288  0.00  0.00    -0.291 NA
BRANCH  25  26
ATOM     26  C   UNL     1       1.238  -0.977  -0.880  0.00  0.00    +0.069 C 
ATOM     27  C   UNL     1       1.673  -2.413  -0.533  0.00  0.00    -0.048 C 
ATOM     28  N   UNL     1       3.040  -1.861  -0.403  0.00  0.00    +0.384 N 
ATOM     29  C   UNL     1       2.697  -0.745  -1.312  0.00  0.00    -0.048 C 
ATOM     30  H   UNL     1       3.254  -1.555   0.534  0.00  0.00    -0.082 HD
BRANCH  26  31
ATOM     31  C   UNL     1       0.250  -0.898  -2.015  0.00  0.00    +0.227 C 
ATOM     32  O   UNL     1       0.644  -0.873  -3.162  0.00  0.00    -0.274 OA
ATOM     33  N   UNL     1      -1.072  -0.856  -1.756  0.00  0.00    -0.328 N 
ATOM     34  H   UNL     1      -1.384  -0.772  -0.841  0.00  0.00    +0.145 HD
ATOM     35  H   UNL     1      -1.711  -0.908  -2.483  0.00  0.00    +0.145 HD
ENDBRANCH  26  31
BRANCH  28  36
ATOM     36  C   UNL     1       4.072  -2.751  -0.953  0.00  0.00    -0.050 C 
BRANCH  36  37
ATOM     37  C   UNL     1       5.456  -2.166  -0.667  0.00  0.00    +0.141 C 
BRANCH  37  38
ATOM     38  O   UNL     1       5.684  -2.148   0.744  0.00  0.00    -0.385 OA
ATOM     39  C   UNL     1       6.955  -1.616   1.121  0.00  0.00    +0.193 C 
ENDBRANCH  37  38
ENDBRANCH  36  37
ENDBRANCH  28  36
ENDBRANCH  25  26
ENDBRANCH  23  25
ENDBRANCH   1  23
TORSDOF 9
