REMARK  Name = CHEMBL429300
REMARK  14 active torsions:
REMARK  status: ('A' for Active; 'I' for Inactive)
REMARK    1  A    between atoms: C_1  and  C_2
REMARK    2  A    between atoms: C_2  and  N_3
REMARK    3  A    between atoms: N_3  and  C_4
REMARK    4  A    between atoms: N_3  and  C_6
REMARK    5  A    between atoms: C_4  and  C_5
REMARK    6  A    between atoms: C_6  and  C_7
REMARK    7  A    between atoms: C_6  and  C_8
REMARK    8  A    between atoms: C_6  and  C_15
REMARK    9  A    between atoms: C_8  and  C_9
REMARK   10  A    between atoms: C_16  and  C_17
REMARK   11  A    between atoms: C_20  and  O_29
REMARK   12  A    between atoms: C_21  and  O_27
REMARK   13  A    between atoms: O_27  and  C_28
REMARK   14  A    between atoms: O_29  and  C_30
REMARK                            x       y       z     vdW  Elec       q    Type
REMARK                         _______ _______ _______ _____ _____    ______ ____
ROOT
ATOM      1  C   UNL     1      -2.140  -2.703   1.140  0.00  0.00    -0.073 C 
ATOM      2  C   UNL     1      -2.377  -2.936   2.265  0.00  0.00    -0.044 C 
ENDROOT
BRANCH   2   3
ATOM      3  C   UNL     1      -2.667  -3.220   3.639  0.00  0.00    +0.124 A 
ATOM      4  C   UNL     1      -3.124  -2.202   4.513  0.00  0.00    +0.038 A 
ATOM      5  C   UNL     1      -3.312  -0.884   4.083  0.00  0.00    +0.062 A 
ATOM      6  C   UNL     1      -3.754   0.057   4.969  0.00  0.00    +0.162 A 
ATOM      7  C   UNL     1      -4.021  -0.284   6.304  0.00  0.00    +0.164 A 
ATOM      8  C   UNL     1      -3.845  -1.564   6.749  0.00  0.00    +0.077 A 
ATOM      9  C   UNL     1      -3.393  -2.550   5.861  0.00  0.00    +0.079 A 
ATOM     10  N   UNL     1      -3.206  -3.819   6.249  0.00  0.00    -0.235 NA
ATOM     11  C   UNL     1      -2.781  -4.721   5.395  0.00  0.00    +0.223 A 
ATOM     12  N   UNL     1      -2.522  -4.448   4.128  0.00  0.00    -0.227 NA
BRANCH   7  13
ATOM     13  O   UNL     1      -4.459   0.671   7.165  0.00  0.00    -0.491 OA
ATOM     14  C   UNL     1      -4.713   0.263   8.511  0.00  0.00    +0.277 C 
ENDBRANCH   7  13
BRANCH   6  15
ATOM     15  O   UNL     1      -3.938   1.338   4.553  0.00  0.00    -0.491 OA
ATOM     16  C   UNL     1      -3.649   1.623   3.183  0.00  0.00    +0.277 C 
ENDBRANCH   6  15
ENDBRANCH   2   3
BRANCH   1  17
ATOM     17  C   UNL     1      -1.841  -2.410  -0.272  0.00  0.00    +0.085 C 
ATOM     18  C   UNL     1      -2.741  -3.261  -1.170  0.00  0.00    +0.042 C 
BRANCH  17  19
ATOM     19  N   UNL     1      -2.087  -0.987  -0.540  0.00  0.00    -0.287 NA
BRANCH  19  21
ATOM     20  C   UNL     1      -1.853   0.868  -2.121  0.00  0.00    +0.020 C 
ATOM     21  C   UNL     1      -1.745  -0.646  -1.927  0.00  0.00    +0.082 C 
ENDBRANCH  19  21
BRANCH  19  22
ATOM     22  C   UNL     1      -3.479  -0.627  -0.237  0.00  0.00    +0.082 C 
ATOM     23  C   UNL     1      -3.617  -0.336   1.258  0.00  0.00    +0.020 C 
ENDBRANCH  19  22
ENDBRANCH  17  19
BRANCH  17  24
ATOM     24  C   UNL     1      -0.375  -2.738  -0.562  0.00  0.00    +0.070 C 
BRANCH  24  25
ATOM     25  C   UNL     1      -0.113  -2.600  -2.039  0.00  0.00    -0.045 A 
ATOM     26  C   UNL     1      -0.945  -3.223  -2.950  0.00  0.00    +0.004 A 
ATOM     27  C   UNL     1      -0.704  -3.097  -4.306  0.00  0.00    +0.000 A 
ATOM     28  C   UNL     1       0.369  -2.348  -4.750  0.00  0.00    +0.000 A 
ATOM     29  C   UNL     1       1.201  -1.725  -3.839  0.00  0.00    +0.000 A 
ATOM     30  C   UNL     1       0.958  -1.847  -2.484  0.00  0.00    +0.004 A 
ENDBRANCH  24  25
ENDBRANCH  17  24
ENDBRANCH   1  17
TORSDOF 9
