REMARK  Name = CHEMBL258694
REMARK  6 active torsions:
REMARK  status: ('A' for Active; 'I' for Inactive)
REMARK    1  A    between atoms: C_1  and  C_2
REMARK    2  A    between atoms: C_5  and  C_7
REMARK    3  A    between atoms: C_11  and  C_12
REMARK    4  A    between atoms: C_12  and  C_13
REMARK    5  A    between atoms: C_12  and  C_14
REMARK    6  A    between atoms: N_19  and  C_20
REMARK                            x       y       z     vdW  Elec       q    Type
REMARK                         _______ _______ _______ _____ _____    ______ ____
ROOT
ATOM      1  C   UNL     1       0.295  -3.257   1.295  0.00  0.00    +0.062 A 
ATOM      2  C   UNL     1       0.940  -3.095   2.507  0.00  0.00    +0.126 A 
ATOM      3  N   UNL     1       1.251  -4.308   2.997  0.00  0.00    -0.234 N 
ATOM      4  C   UNL     1       0.814  -5.275   2.111  0.00  0.00    +0.109 A 
ATOM      5  C   UNL     1       0.210  -4.641   1.047  0.00  0.00    -0.002 A 
ATOM      6  C   UNL     1       1.039  -6.636   2.432  0.00  0.00    +0.151 A 
ATOM      7  N   UNL     1       1.657  -6.939   3.561  0.00  0.00    -0.217 NA
ATOM      8  C   UNL     1       2.073  -5.995   4.404  0.00  0.00    +0.245 A 
ATOM      9  N   UNL     1       1.897  -4.724   4.170  0.00  0.00    -0.155 NA
ATOM     10  N   UNL     1       0.619  -7.634   1.576  0.00  0.00    -0.296 N 
ATOM     11  H   UNL     1       0.244  -7.405   0.711  0.00  0.00    +0.154 HD
ENDROOT
BRANCH  10  12
ATOM     12  C   UNL     1       0.733  -8.977   1.957  0.00  0.00    +0.051 A 
ATOM     13  C   UNL     1       0.983  -9.957   1.006  0.00  0.00    +0.036 A 
ATOM     14  C   UNL     1       1.087 -11.280   1.441  0.00  0.00    +0.020 A 
ATOM     15  C   UNL     1       1.336 -12.559   0.772  0.00  0.00    +0.029 A 
ATOM     16  C   UNL     1       1.323 -13.505   1.723  0.00  0.00    +0.085 A 
ATOM     17  N   UNL     1       1.088 -12.936   2.945  0.00  0.00    -0.346 N 
ATOM     18  H   UNL     1       1.034 -13.421   3.784  0.00  0.00    +0.167 HD
ATOM     19  C   UNL     1       0.938 -11.575   2.810  0.00  0.00    +0.138 A 
ATOM     20  N   UNL     1       0.701 -10.599   3.675  0.00  0.00    -0.236 NA
ATOM     21  C   UNL     1       0.603  -9.343   3.294  0.00  0.00    +0.136 A 
ENDBRANCH  10  12
BRANCH   1  26
ATOM     22  C   UNL     1      -0.881   1.241  -0.578  0.00  0.00    +0.111 C 
ATOM     23  C   UNL     1      -0.724  -0.246  -0.386  0.00  0.00    +0.215 A 
ATOM     24  N   UNL     1      -1.134  -1.174  -1.202  0.00  0.00    -0.112 NA
ATOM     25  N   UNL     1      -0.834  -2.331  -0.725  0.00  0.00    -0.107 NA
ATOM     26  C   UNL     1      -0.216  -2.178   0.423  0.00  0.00    +0.250 A 
ATOM     27  O   UNL     1      -0.130  -0.853   0.657  0.00  0.00    -0.420 OA
ENDBRANCH   1  26
BRANCH   5  28
ATOM     28  C   UNL     1      -0.418  -5.301  -0.154  0.00  0.00    +0.016 C 
ATOM     29  C   UNL     1      -1.893  -4.907  -0.239  0.00  0.00    +0.012 C 
ATOM     30  C   UNL     1       0.306  -4.846  -1.423  0.00  0.00    +0.012 C 
ENDBRANCH   5  28
TORSDOF 3
