REMARK  Name = CHEMBL424093
REMARK  6 active torsions:
REMARK  status: ('A' for Active; 'I' for Inactive)
REMARK    1  A    between atoms: C_4  and  C_7
REMARK    2  A    between atoms: C_7  and  N_8
REMARK    3  A    between atoms: N_9  and  N_10
REMARK    4  A    between atoms: N_10  and  C_11
REMARK    5  A    between atoms: C_17  and  N_21
REMARK    6  A    between atoms: N_21  and  C_22
REMARK                            x       y       z     vdW  Elec       q    Type
REMARK                         _______ _______ _______ _____ _____    ______ ____
ROOT
ATOM      1  C   UNL     1       3.327  -4.508   1.500  0.00  0.00    +0.051 A 
ATOM      2  C   UNL     1       3.509  -4.727   2.869  0.00  0.00    +0.027 A 
ATOM      3  C   UNL     1       3.688  -5.984   3.359  0.00  0.00    +0.030 A 
ATOM      4  C   UNL     1       3.691  -7.080   2.485  0.00  0.00    +0.076 A 
ATOM      5  C   UNL     1       3.507  -6.865   1.097  0.00  0.00    +0.042 A 
ATOM      6  C   UNL     1       3.320  -5.566   0.614  0.00  0.00    +0.038 A 
ATOM      7  C   UNL     1       3.515  -7.992   0.239  0.00  0.00    +0.134 A 
ATOM      8  N   UNL     1       3.693  -9.190   0.779  0.00  0.00    -0.220 NA
ATOM      9  C   UNL     1       3.862  -9.342   2.083  0.00  0.00    +0.223 A 
ATOM     10  N   UNL     1       3.864  -8.336   2.925  0.00  0.00    -0.235 NA
ENDROOT
BRANCH   1  11
ATOM     11  N   UNL     1       3.146  -3.205   1.024  0.00  0.00    -0.222 N 
ATOM     12  H   UNL     1       3.015  -3.049   0.076  0.00  0.00    +0.176 HD
BRANCH  11  14
ATOM     13  N   UNL     1       2.894  -0.983   1.511  0.00  0.00    -0.290 N 
ATOM     14  N   UNL     1       3.152  -2.126   1.918  0.00  0.00    -0.106 NA
ATOM     15  H   UNL     1       3.007  -0.222   2.102  0.00  0.00    +0.184 HD
BRANCH  13  16
ATOM     16  C   UNL     1       2.419  -0.783   0.140  0.00  0.00    +0.170 C 
BRANCH  16  20
ATOM     17  C   UNL     1       5.351   1.386  -2.083  0.00  0.00    +0.000 A 
ATOM     18  C   UNL     1       5.390   0.005  -2.051  0.00  0.00    +0.000 A 
ATOM     19  C   UNL     1       4.441  -0.697  -1.331  0.00  0.00    +0.005 A 
ATOM     20  C   UNL     1       3.453  -0.018  -0.644  0.00  0.00    -0.027 A 
ATOM     21  C   UNL     1       3.414   1.364  -0.675  0.00  0.00    +0.005 A 
ATOM     22  C   UNL     1       4.362   2.066  -1.396  0.00  0.00    +0.000 A 
ENDBRANCH  16  20
ENDBRANCH  13  16
ENDBRANCH  11  14
ENDBRANCH   1  11
BRANCH   7  23
ATOM     23  N   UNL     1       3.340  -7.848  -1.123  0.00  0.00    -0.299 N 
ATOM     24  H   UNL     1       3.293  -6.961  -1.514  0.00  0.00    +0.154 HD
BRANCH  23  25
ATOM     25  C   UNL     1       3.231  -8.978  -1.937  0.00  0.00    +0.033 A 
ATOM     26  C   UNL     1       3.730  -8.953  -3.234  0.00  0.00    +0.023 A 
ATOM     27  C   UNL     1       3.621 -10.071  -4.036  0.00  0.00    +0.003 A 
ATOM     28  C   UNL     1       3.016 -11.216  -3.551  0.00  0.00    +0.015 A 
ATOM     29  C   UNL     1       2.518 -11.245  -2.260  0.00  0.00    +0.020 A 
ATOM     30  C   UNL     1       2.629 -10.131  -1.450  0.00  0.00    +0.038 A 
ATOM     31 BR   UNL     1       1.691 -12.813  -1.602  0.00  0.00    -0.050 Br
ENDBRANCH  23  25
ENDBRANCH   7  23
TORSDOF 6
