REMARK  Name = CHEMBL420059
REMARK  8 active torsions:
REMARK  status: ('A' for Active; 'I' for Inactive)
REMARK    1  A    between atoms: C_1  and  O_2
REMARK    2  A    between atoms: O_2  and  C_3
REMARK    3  A    between atoms: C_8  and  O_9
REMARK    4  A    between atoms: O_9  and  C_10
REMARK    5  A    between atoms: C_10  and  C_11
REMARK    6  A    between atoms: C_11  and  N_12
REMARK    7  A    between atoms: N_22  and  C_23
REMARK    8  A    between atoms: C_25  and  C_26
REMARK                            x       y       z     vdW  Elec       q    Type
REMARK                         _______ _______ _______ _____ _____    ______ ____
ROOT
ATOM      1  C   UNL     1       0.834  -0.591  -0.877  0.00  0.00    +0.164 A 
ATOM      2  C   UNL     1       1.414   0.191  -1.852  0.00  0.00    +0.078 A 
ATOM      3  C   UNL     1       1.954  -0.416  -2.992  0.00  0.00    +0.080 A 
ATOM      4  C   UNL     1       1.895  -1.825  -3.126  0.00  0.00    +0.044 A 
ATOM      5  C   UNL     1       1.300  -2.597  -2.121  0.00  0.00    +0.062 A 
ATOM      6  C   UNL     1       0.784  -1.985  -1.014  0.00  0.00    +0.163 A 
ATOM      7  C   UNL     1       2.450  -2.409  -4.289  0.00  0.00    +0.130 A 
ATOM      8  N   UNL     1       2.996  -1.608  -5.194  0.00  0.00    -0.220 NA
ATOM      9  C   UNL     1       3.029  -0.296  -5.026  0.00  0.00    +0.223 A 
ATOM     10  N   UNL     1       2.531   0.301  -3.970  0.00  0.00    -0.235 NA
ATOM     11  N   UNL     1       2.423  -3.776  -4.477  0.00  0.00    -0.325 N 
ATOM     12  H   UNL     1       2.021  -4.350  -3.807  0.00  0.00    +0.148 HD
ENDROOT
BRANCH  11  13
ATOM     13  C   UNL     1       3.003  -4.360  -5.689  0.00  0.00    +0.080 C 
ATOM     14  C   UNL     1       2.209  -5.464  -6.391  0.00  0.00    +0.032 C 
ATOM     15  C   UNL     1       3.481  -5.812  -5.615  0.00  0.00    +0.041 C 
BRANCH  15  16
ATOM     16  C   UNL     1       3.319  -6.531  -4.300  0.00  0.00    -0.042 A 
ATOM     17  C   UNL     1       2.060  -6.699  -3.755  0.00  0.00    +0.004 A 
ATOM     18  C   UNL     1       1.911  -7.359  -2.549  0.00  0.00    +0.000 A 
ATOM     19  C   UNL     1       3.022  -7.851  -1.889  0.00  0.00    +0.000 A 
ATOM     20  C   UNL     1       4.281  -7.684  -2.435  0.00  0.00    +0.000 A 
ATOM     21  C   UNL     1       4.429  -7.028  -3.643  0.00  0.00    +0.004 A 
ENDBRANCH  15  16
ENDBRANCH  11  13
BRANCH   1  23
ATOM     22  C   UNL     1       0.392   1.419   0.311  0.00  0.00    +0.277 C 
ATOM     23  O   UNL     1       0.310  -0.005   0.230  0.00  0.00    -0.491 OA
ENDBRANCH   1  23
BRANCH   6  24
ATOM     24  O   UNL     1       0.210  -2.736  -0.036  0.00  0.00    -0.487 OA
BRANCH  24  25
ATOM     25  C   UNL     1       0.190  -4.152  -0.234  0.00  0.00    +0.244 C 
BRANCH  25  26
ATOM     26  C   UNL     1      -0.490  -4.823   0.962  0.00  0.00    +0.125 C 
BRANCH  26  27
ATOM     27  N   UNL     1      -1.901  -4.419   1.014  0.00  0.00    -0.295 NA
ATOM     28  C   UNL     1      -2.465  -4.647   2.352  0.00  0.00    +0.112 C 
ATOM     29  C   UNL     1      -3.916  -4.158   2.378  0.00  0.00    +0.175 C 
ATOM     30  O   UNL     1      -4.658  -4.828   1.356  0.00  0.00    -0.377 OA
ATOM     31  C   UNL     1      -4.136  -4.627   0.040  0.00  0.00    +0.175 C 
ATOM     32  C   UNL     1      -2.688  -5.120  -0.010  0.00  0.00    +0.112 C 
ENDBRANCH  26  27
ENDBRANCH  25  26
ENDBRANCH  24  25
ENDBRANCH   6  24
TORSDOF 7
