REMARK  Name = CHEMBL592457
REMARK  3 active torsions:
REMARK  status: ('A' for Active; 'I' for Inactive)
REMARK    1  A    between atoms: C_3  and  O_17
REMARK    2  A    between atoms: C_4  and  C_8
REMARK    3  A    between atoms: N_9  and  N_10
REMARK                            x       y       z     vdW  Elec       q    Type
REMARK                         _______ _______ _______ _____ _____    ______ ____
ROOT
ATOM      1  C   UNL     1       3.692  -0.690  -0.038  0.00  0.00    +0.142 C 
ATOM      2  N   UNL     1       4.806  -0.025  -0.046  0.00  0.00    -0.188 NA
ENDROOT
BRANCH   2   3
ATOM      3  N   UNL     1       6.029  -0.708  -0.062  0.00  0.00    -0.217 N 
ATOM      4  C   UNL     1       7.201  -0.009  -0.071  0.00  0.00    +0.166 C 
ATOM      5  N   UNL     1       7.371   1.307  -0.060  0.00  0.00    -0.157 NA
ATOM      6  C   UNL     1       8.532   1.902  -0.069  0.00  0.00    +0.248 C 
ATOM      7  O   UNL     1       8.643   3.113  -0.058  0.00  0.00    -0.273 OA
ATOM      8  C   UNL     1       9.740   0.974  -0.094  0.00  0.00    +0.174 C 
ATOM      9  S   UNL     1       8.870  -0.650  -0.091  0.00  0.00    -0.082 S 
ATOM     10  H   UNL     1       6.043  -1.678  -0.068  0.00  0.00    +0.176 HD
ENDBRANCH   2   3
BRANCH   1  14
ATOM     11  C   UNL     1      -0.017   1.381   0.010  0.00  0.00    +0.019 A 
ATOM     12  C   UNL     1       1.166   2.096   0.002  0.00  0.00    +0.047 A 
ATOM     13  C   UNL     1       2.381   1.430  -0.013  0.00  0.00    +0.126 A 
ATOM     14  C   UNL     1       2.405   0.028  -0.021  0.00  0.00    +0.037 A 
ATOM     15  C   UNL     1       1.204  -0.683  -0.013  0.00  0.00    +0.028 A 
ATOM     16  C   UNL     1       0.002  -0.004   0.002  0.00  0.00    +0.019 A 
ATOM     17 BR   UNL     1      -1.625  -0.968   0.012  0.00  0.00    -0.050 Br
BRANCH  13  18
ATOM     18  O   UNL     1       3.543   2.132  -0.022  0.00  0.00    -0.506 OA
ATOM     19  H   UNL     1       3.889   2.331   0.859  0.00  0.00    +0.292 HD
ENDBRANCH  13  18
ENDBRANCH   1  14
TORSDOF 3
