REMARK  Name = CHEMBL455208
REMARK  7 active torsions:
REMARK  status: ('A' for Active; 'I' for Inactive)
REMARK    1  A    between atoms: C_1  and  O_2
REMARK    2  A    between atoms: O_2  and  C_3
REMARK    3  A    between atoms: C_8  and  C_9
REMARK    4  A    between atoms: C_9  and  C_10
REMARK    5  A    between atoms: C_15  and  C_20
REMARK    6  A    between atoms: N_27  and  C_29
REMARK    7  A    between atoms: C_32  and  N_35
REMARK                            x       y       z     vdW  Elec       q    Type
REMARK                         _______ _______ _______ _____ _____    ______ ____
ROOT
ATOM      1  C   UNL     1      -6.857  -5.278  -0.827  0.00  0.00    +0.105 A 
ATOM      2  C   UNL     1      -8.242  -4.885  -0.570  0.00  0.00    +0.086 A 
ATOM      3  C   UNL     1      -8.868  -3.752  -0.023  0.00  0.00    +0.131 A 
ATOM      4  N   UNL     1     -10.195  -3.741   0.058  0.00  0.00    -0.220 NA
ATOM      5  C   UNL     1     -10.912  -4.767  -0.365  0.00  0.00    +0.225 A 
ATOM      6  N   UNL     1     -10.371  -5.848  -0.883  0.00  0.00    -0.216 NA
ATOM      7  C   UNL     1      -9.048  -5.953  -1.007  0.00  0.00    +0.164 A 
ATOM      8  N   UNL     1      -8.207  -6.912  -1.488  0.00  0.00    -0.243 N 
ATOM      9  N   UNL     1      -6.884  -6.472  -1.371  0.00  0.00    -0.168 NA
ATOM     10  N   UNL     1      -8.123  -2.676   0.420  0.00  0.00    -0.342 N 
ATOM     11  H   UNL     1      -7.196  -2.585   0.151  0.00  0.00    +0.144 HD
ATOM     12  H   UNL     1      -8.527  -2.013   1.002  0.00  0.00    +0.144 HD
ENDROOT
BRANCH   1  18
ATOM     13  C   UNL     1      -2.754  -1.805   1.719  0.00  0.00    +0.113 A 
ATOM     14  N   UNL     1      -3.973  -2.319   2.036  0.00  0.00    -0.342 N 
ATOM     15  H   UNL     1      -4.457  -2.183   2.865  0.00  0.00    +0.167 HD
ATOM     16  C   UNL     1      -4.394  -3.071   0.956  0.00  0.00    +0.067 A 
ATOM     17  C   UNL     1      -5.529  -3.820   0.688  0.00  0.00    +0.038 A 
ATOM     18  C   UNL     1      -5.647  -4.475  -0.533  0.00  0.00    +0.005 A 
ATOM     19  C   UNL     1      -4.626  -4.376  -1.485  0.00  0.00    +0.012 A 
ATOM     20  C   UNL     1      -3.508  -3.641  -1.228  0.00  0.00    +0.030 A 
ATOM     21  C   UNL     1      -3.373  -2.975  -0.005  0.00  0.00    +0.089 A 
ATOM     22  N   UNL     1      -2.405  -2.184   0.524  0.00  0.00    -0.232 NA
BRANCH  13  23
ATOM     23  C   UNL     1      -1.930  -0.921   2.620  0.00  0.00    +0.113 C 
BRANCH  23  29
ATOM     24  C   UNL     1       0.434  -1.270   1.862  0.00  0.00    +0.124 A 
ATOM     25  C   UNL     1       1.697  -1.821   2.031  0.00  0.00    +0.046 A 
ATOM     26  C   UNL     1       1.960  -2.621   3.125  0.00  0.00    +0.004 A 
ATOM     27  C   UNL     1       0.965  -2.874   4.053  0.00  0.00    +0.001 A 
ATOM     28  C   UNL     1      -0.293  -2.328   3.887  0.00  0.00    +0.007 A 
ATOM     29  C   UNL     1      -0.559  -1.522   2.796  0.00  0.00    +0.002 A 
BRANCH  24  31
ATOM     30  C   UNL     1       1.245  -0.266  -0.135  0.00  0.00    +0.277 C 
ATOM     31  O   UNL     1       0.174  -0.482   0.786  0.00  0.00    -0.495 OA
ENDBRANCH  24  31
ENDBRANCH  23  29
ENDBRANCH  13  23
ENDBRANCH   1  18
BRANCH   8  32
ATOM     32  C   UNL     1      -8.624  -8.201  -2.046  0.00  0.00    +0.110 C 
ATOM     33  C   UNL     1      -8.014  -9.335  -1.220  0.00  0.00    +0.028 C 
ATOM     34  C   UNL     1      -8.450 -10.681  -1.803  0.00  0.00    +0.021 C 
ATOM     35  C   UNL     1      -7.970 -10.789  -3.252  0.00  0.00    +0.057 C 
ATOM     36  C   UNL     1      -8.580  -9.655  -4.077  0.00  0.00    +0.021 C 
ATOM     37  C   UNL     1      -8.144  -8.309  -3.494  0.00  0.00    +0.028 C 
BRANCH  35  38
ATOM     38  N   UNL     1      -8.388 -12.081  -3.811  0.00  0.00    -0.303 NA
ATOM     39  C   UNL     1      -9.852 -12.156  -3.927  0.00  0.00    +0.065 C 
ATOM     40  C   UNL     1     -10.249 -13.536  -4.456  0.00  0.00    -0.067 C 
ATOM     41  N   UNL     1      -9.625 -13.756  -5.768  0.00  0.00    +0.381 N 
ATOM     42  C   UNL     1      -8.163 -13.703  -5.631  0.00  0.00    -0.067 C 
ATOM     43  C   UNL     1      -7.749 -12.324  -5.112  0.00  0.00    +0.065 C 
ATOM     44  H   UNL     1      -9.896 -14.661  -6.122  0.00  0.00    -0.086 HD
ATOM     45  H   UNL     1      -9.929 -13.039  -6.409  0.00  0.00    -0.086 HD
ENDBRANCH  35  38
ENDBRANCH   8  32
TORSDOF 6
