REMARK  Name = CHEMBL205798
REMARK  9 active torsions:
REMARK  status: ('A' for Active; 'I' for Inactive)
REMARK    1  A    between atoms: C_1  and  C_2
REMARK    2  A    between atoms: N_4  and  C_5
REMARK    3  A    between atoms: C_9  and  C_11
REMARK    4  A    between atoms: C_12  and  C_13
REMARK    5  A    between atoms: C_18  and  N_19
REMARK    6  A    between atoms: N_19  and  C_20
REMARK    7  A    between atoms: C_23  and  O_27
REMARK    8  A    between atoms: O_27  and  C_28
REMARK    9  A    between atoms: C_28  and  C_29
REMARK                            x       y       z     vdW  Elec       q    Type
REMARK                         _______ _______ _______ _____ _____    ______ ____
ROOT
ATOM      1  C   UNL     1      -5.538  -6.479   0.003  0.00  0.00    +0.083 A 
ATOM      2  C   UNL     1      -5.483  -7.874  -0.072  0.00  0.00    +0.132 A 
ATOM      3  N   UNL     1      -6.607  -8.553  -0.228  0.00  0.00    -0.242 NA
ATOM      4  C   UNL     1      -7.771  -7.938  -0.313  0.00  0.00    +0.223 A 
ATOM      5  N   UNL     1      -7.878  -6.626  -0.249  0.00  0.00    -0.219 NA
ATOM      6  C   UNL     1      -6.803  -5.861  -0.087  0.00  0.00    +0.142 A 
ENDROOT
BRANCH   1   8
ATOM      7  C   UNL     1      -3.372  -5.064   0.309  0.00  0.00    -0.061 C 
ATOM      8  C   UNL     1      -4.348  -5.702   0.171  0.00  0.00    -0.056 C 
BRANCH   7  13
ATOM      9  C   UNL     1      -1.102  -2.149   0.718  0.00  0.00    +0.035 A 
ATOM     10  C   UNL     1       0.130  -2.787   0.803  0.00  0.00    +0.023 A 
ATOM     11  C   UNL     1       0.208  -4.165   0.727  0.00  0.00    +0.003 A 
ATOM     12  C   UNL     1      -0.937  -4.918   0.565  0.00  0.00    +0.017 A 
ATOM     13  C   UNL     1      -2.181  -4.287   0.478  0.00  0.00    +0.027 A 
ATOM     14  C   UNL     1      -2.259  -2.894   0.561  0.00  0.00    +0.040 A 
BRANCH   9  18
ATOM     15  C   UNL     1      -2.241   1.330   1.595  0.00  0.00    +0.109 C 
ATOM     16  C   UNL     1      -2.216  -0.166   1.417  0.00  0.00    +0.214 C 
ATOM     17  O   UNL     1      -3.134  -0.842   1.832  0.00  0.00    -0.276 OA
ATOM     18  N   UNL     1      -1.174  -0.754   0.796  0.00  0.00    -0.286 N 
ATOM     19  H   UNL     1      -0.473  -0.209   0.403  0.00  0.00    +0.155 HD
ENDBRANCH   9  18
ENDBRANCH   7  13
ENDBRANCH   1   8
BRANCH   6  20
ATOM     20  N   UNL     1      -6.922  -4.485  -0.015  0.00  0.00    -0.298 N 
ATOM     21  H   UNL     1      -6.127  -3.931   0.023  0.00  0.00    +0.154 HD
BRANCH  20  22
ATOM     22  C   UNL     1      -8.190  -3.892   0.006  0.00  0.00    +0.034 A 
ATOM     23  C   UNL     1      -9.254  -4.548   0.611  0.00  0.00    +0.027 A 
ATOM     24  C   UNL     1     -10.505  -3.962   0.631  0.00  0.00    +0.049 A 
ATOM     25  C   UNL     1     -10.699  -2.720   0.046  0.00  0.00    +0.139 A 
ATOM     26  C   UNL     1      -9.637  -2.063  -0.559  0.00  0.00    +0.084 A 
ATOM     27  C   UNL     1      -8.383  -2.645  -0.575  0.00  0.00    +0.047 A 
ATOM     28 CL   UNL     1      -9.881  -0.508  -1.292  0.00  0.00    -0.080 Cl
BRANCH  25  29
ATOM     29  O   UNL     1     -11.931  -2.145   0.065  0.00  0.00    -0.486 OA
BRANCH  29  30
ATOM     30  C   UNL     1     -12.979  -2.876   0.705  0.00  0.00    +0.264 C 
BRANCH  30  31
ATOM     31  C   UNL     1     -14.261  -2.088   0.628  0.00  0.00    -0.008 A 
ATOM     32  C   UNL     1     -14.582  -1.192   1.631  0.00  0.00    +0.007 A 
ATOM     33  C   UNL     1     -15.758  -0.469   1.562  0.00  0.00    +0.003 A 
ATOM     34  C   UNL     1     -16.615  -0.641   0.491  0.00  0.00    +0.038 A 
ATOM     35  C   UNL     1     -16.294  -1.539  -0.513  0.00  0.00    +0.124 A 
ATOM     36  C   UNL     1     -15.113  -2.258  -0.446  0.00  0.00    +0.045 A 
ATOM     37  F   UNL     1     -17.131  -1.709  -1.560  0.00  0.00    -0.205 F 
ENDBRANCH  30  31
ENDBRANCH  29  30
ENDBRANCH  25  29
ENDBRANCH  20  22
ENDBRANCH   6  20
TORSDOF 8
