REMARK  Name = CHEMBL180018
REMARK  14 active torsions:
REMARK  status: ('A' for Active; 'I' for Inactive)
REMARK    1  A    between atoms: C_1  and  C_2
REMARK    2  A    between atoms: C_2  and  O_3
REMARK    3  A    between atoms: O_3  and  C_4
REMARK    4  A    between atoms: C_9  and  N_10
REMARK    5  A    between atoms: C_11  and  C_13
REMARK    6  A    between atoms: C_14  and  C_15
REMARK    7  A    between atoms: C_15  and  N_16
REMARK    8  A    between atoms: N_16  and  C_17
REMARK    9  A    between atoms: N_16  and  C_18
REMARK   10  A    between atoms: C_19  and  N_25
REMARK   11  A    between atoms: C_20  and  C_23
REMARK   12  A    between atoms: N_25  and  C_26
REMARK   13  A    between atoms: C_29  and  O_33
REMARK   14  A    between atoms: O_33  and  C_34
REMARK                            x       y       z     vdW  Elec       q    Type
REMARK                         _______ _______ _______ _____ _____    ______ ____
ROOT
ATOM      1  C   UNL     1       1.848  -3.949   1.406  0.00  0.00    +0.144 A 
ATOM      2  C   UNL     1       0.543  -4.089   0.992  0.00  0.00    +0.076 A 
ATOM      3  C   UNL     1       0.253  -4.811  -0.175  0.00  0.00    +0.076 A 
ATOM      4  C   UNL     1       1.314  -5.389  -0.914  0.00  0.00    +0.025 A 
ATOM      5  C   UNL     1       2.637  -5.235  -0.476  0.00  0.00    +0.039 A 
ATOM      6  C   UNL     1       2.898  -4.517   0.670  0.00  0.00    +0.077 A 
ATOM      7  C   UNL     1       1.016  -6.116  -2.090  0.00  0.00    +0.060 A 
ATOM      8  C   UNL     1      -0.331  -6.228  -2.466  0.00  0.00    +0.091 A 
ATOM      9  C   UNL     1      -1.319  -5.622  -1.673  0.00  0.00    +0.132 A 
ATOM     10  N   UNL     1      -1.014  -4.955  -0.590  0.00  0.00    -0.253 NA
ENDROOT
BRANCH   6  11
ATOM     11  N   UNL     1       4.219  -4.358   1.105  0.00  0.00    -0.279 N 
ATOM     12  C   UNL     1       5.131  -5.318   0.855  0.00  0.00    +0.241 C 
ATOM     13  O   UNL     1       4.828  -6.286   0.183  0.00  0.00    -0.271 OA
ATOM     14  H   UNL     1       4.478  -3.557   1.587  0.00  0.00    +0.155 HD
BRANCH  12  15
ATOM     15  C   UNL     1       6.494  -5.196   1.394  0.00  0.00    +0.061 C 
ATOM     16  C   UNL     1       7.395  -6.143   1.147  0.00  0.00    -0.040 C 
BRANCH  16  17
ATOM     17  C   UNL     1       8.791  -6.018   1.700  0.00  0.00    -0.052 C 
BRANCH  17  18
ATOM     18  N   UNL     1       9.119  -7.219   2.479  0.00  0.00    +0.378 N 
ATOM     19  C   UNL     1      10.520  -7.151   2.917  0.00  0.00    -0.096 C 
ATOM     20  C   UNL     1       8.241  -7.295   3.654  0.00  0.00    -0.096 C 
ATOM     21  H   UNL     1       8.985  -8.039   1.906  0.00  0.00    -0.082 HD
ENDBRANCH  17  18
ENDBRANCH  16  17
ENDBRANCH  12  15
ENDBRANCH   6  11
BRANCH   8  22
ATOM     22  C   UNL     1      -0.694  -6.952  -3.647  0.00  0.00    +0.103 C 
ATOM     23  N   UNL     1      -0.983  -7.526  -4.584  0.00  0.00    -0.191 NA
ENDBRANCH   8  22
BRANCH   7  24
ATOM     24  N   UNL     1       2.017  -6.697  -2.842  0.00  0.00    -0.313 N 
ATOM     25  H   UNL     1       2.547  -6.153  -3.446  0.00  0.00    +0.152 HD
BRANCH  24  26
ATOM     26  C   UNL     1       2.267  -8.069  -2.734  0.00  0.00    +0.033 A 
ATOM     27  C   UNL     1       1.870  -8.760  -1.597  0.00  0.00    +0.027 A 
ATOM     28  C   UNL     1       2.117 -10.115  -1.490  0.00  0.00    +0.049 A 
ATOM     29  C   UNL     1       2.763 -10.786  -2.519  0.00  0.00    +0.147 A 
ATOM     30  C   UNL     1       3.160 -10.096  -3.656  0.00  0.00    +0.085 A 
ATOM     31  C   UNL     1       2.908  -8.742  -3.766  0.00  0.00    +0.047 A 
ATOM     32 CL   UNL     1       3.968 -10.936  -4.943  0.00  0.00    -0.080 Cl
BRANCH  29  33
ATOM     33  O   UNL     1       3.006 -12.119  -2.413  0.00  0.00    -0.455 OA
BRANCH  33  34
ATOM     34  C   UNL     1       2.578 -12.759  -1.293  0.00  0.00    +0.129 A 
ATOM     35  C   UNL     1       1.237 -13.089  -1.151  0.00  0.00    +0.046 A 
ATOM     36  C   UNL     1       0.804 -13.739  -0.012  0.00  0.00    +0.004 A 
ATOM     37  C   UNL     1       1.705 -14.061   0.986  0.00  0.00    +0.000 A 
ATOM     38  C   UNL     1       3.042 -13.734   0.847  0.00  0.00    +0.004 A 
ATOM     39  C   UNL     1       3.481 -13.088  -0.292  0.00  0.00    +0.046 A 
ENDBRANCH  33  34
ENDBRANCH  29  33
ENDBRANCH  24  26
ENDBRANCH   7  24
BRANCH   1  40
ATOM     40  O   UNL     1       2.122  -3.248   2.537  0.00  0.00    -0.490 OA
BRANCH  40  42
ATOM     41  C   UNL     1       1.512  -1.946   4.480  0.00  0.00    +0.048 C 
ATOM     42  C   UNL     1       1.010  -2.694   3.243  0.00  0.00    +0.226 C 
ENDBRANCH  40  42
ENDBRANCH   1  40
TORSDOF 11
