REMARK  Name = CHEMBL485320
REMARK  5 active torsions:
REMARK  status: ('A' for Active; 'I' for Inactive)
REMARK    1  A    between atoms: C_4  and  C_7
REMARK    2  A    between atoms: C_7  and  C_8
REMARK    3  A    between atoms: C_8  and  C_9
REMARK    4  A    between atoms: C_18  and  N_19
REMARK    5  A    between atoms: N_19  and  C_20
REMARK                            x       y       z     vdW  Elec       q    Type
REMARK                         _______ _______ _______ _____ _____    ______ ____
ROOT
ATOM      1  C   UNL     1       5.515  -1.780   2.008  0.00  0.00    +0.019 A 
ATOM      2  C   UNL     1       5.648  -3.093   1.763  0.00  0.00    +0.036 A 
ATOM      3  C   UNL     1       7.072  -3.340   1.536  0.00  0.00    +0.059 A 
ATOM      4  C   UNL     1       7.712  -2.094   1.670  0.00  0.00    +0.145 A 
ATOM      5  N   UNL     1       6.744  -1.170   1.950  0.00  0.00    -0.343 N 
ATOM      6  H   UNL     1       6.902  -0.223   2.089  0.00  0.00    +0.167 HD
ATOM      7  N   UNL     1       9.033  -2.035   1.509  0.00  0.00    -0.197 NA
ATOM      8  C   UNL     1       9.728  -3.126   1.229  0.00  0.00    +0.216 A 
ATOM      9  N   UNL     1       9.160  -4.318   1.095  0.00  0.00    -0.199 NA
ATOM     10  C   UNL     1       7.848  -4.471   1.239  0.00  0.00    +0.137 A 
ATOM     11  N   UNL     1      11.099  -3.019   1.070  0.00  0.00    -0.327 N 
ATOM     12  H   UNL     1      11.533  -2.156   1.164  0.00  0.00    +0.145 HD
ATOM     13  H   UNL     1      11.627  -3.807   0.865  0.00  0.00    +0.145 HD
ENDROOT
BRANCH  10  14
ATOM     14  N   UNL     1       7.260  -5.716   1.099  0.00  0.00    -0.299 N 
ATOM     15  H   UNL     1       6.294  -5.802   1.122  0.00  0.00    +0.154 HD
BRANCH  14  16
ATOM     16  C   UNL     1       8.059  -6.850   0.923  0.00  0.00    +0.033 A 
ATOM     17  C   UNL     1       9.292  -6.938   1.558  0.00  0.00    +0.023 A 
ATOM     18  C   UNL     1      10.078  -8.059   1.383  0.00  0.00    +0.003 A 
ATOM     19  C   UNL     1       9.641  -9.094   0.577  0.00  0.00    +0.015 A 
ATOM     20  C   UNL     1       8.413  -9.010  -0.056  0.00  0.00    +0.020 A 
ATOM     21  C   UNL     1       7.619  -7.893   0.119  0.00  0.00    +0.038 A 
ATOM     22 BR   UNL     1       7.819 -10.429  -1.157  0.00  0.00    -0.050 Br
ENDBRANCH  14  16
ENDBRANCH  10  14
BRANCH   1  23
ATOM     23  C   UNL     1       4.213  -1.080   2.299  0.00  0.00    +0.058 C 
BRANCH  23  24
ATOM     24  C   UNL     1       3.526  -0.714   0.981  0.00  0.00    +0.041 C 
BRANCH  24  28
ATOM     25  C   UNL     1      -0.167   1.271   1.801  0.00  0.00    +0.000 A 
ATOM     26  C   UNL     1       0.998   2.004   1.667  0.00  0.00    +0.000 A 
ATOM     27  C   UNL     1       2.192   1.362   1.402  0.00  0.00    +0.003 A 
ATOM     28  C   UNL     1       2.223  -0.014   1.271  0.00  0.00    -0.047 A 
ATOM     29  C   UNL     1       1.060  -0.748   1.407  0.00  0.00    +0.003 A 
ATOM     30  C   UNL     1      -0.136  -0.105   1.671  0.00  0.00    +0.000 A 
ENDBRANCH  24  28
ENDBRANCH  23  24
ENDBRANCH   1  23
TORSDOF 5
