REMARK  Name = CHEMBL67003
REMARK  7 active torsions:
REMARK  status: ('A' for Active; 'I' for Inactive)
REMARK    1  A    between atoms: C_1  and  C_2
REMARK    2  A    between atoms: C_4  and  C_36
REMARK    3  A    between atoms: C_7  and  C_8
REMARK    4  A    between atoms: C_15  and  N_16
REMARK    5  A    between atoms: N_16  and  C_17
REMARK    6  A    between atoms: N_25  and  C_26
REMARK    7  A    between atoms: C_26  and  C_27
REMARK                            x       y       z     vdW  Elec       q    Type
REMARK                         _______ _______ _______ _____ _____    ______ ____
ROOT
ATOM      1  C   UNL     1       1.961  -0.062   2.015  0.00  0.00    +0.039 C 
ATOM      2  C   UNL     1       2.073  -1.246   2.711  0.00  0.00    +0.053 C 
ATOM      3  C   UNL     1       1.963  -1.448   4.168  0.00  0.00    +0.067 A 
ATOM      4  C   UNL     1       2.149  -2.820   4.395  0.00  0.00    +0.138 A 
ATOM      5  N   UNL     1       2.095  -3.262   5.651  0.00  0.00    -0.220 NA
ATOM      6  C   UNL     1       1.874  -2.434   6.651  0.00  0.00    +0.225 A 
ATOM      7  N   UNL     1       1.695  -1.140   6.478  0.00  0.00    -0.220 NA
ATOM      8  C   UNL     1       1.731  -0.604   5.259  0.00  0.00    +0.136 A 
ATOM      9  N   UNL     1       2.361  -3.457   3.190  0.00  0.00    -0.266 N 
ATOM     10  C   UNL     1       2.323  -2.592   2.161  0.00  0.00    +0.250 C 
ATOM     11  O   UNL     1       2.472  -2.869   0.985  0.00  0.00    -0.270 OA
ATOM     12  H   UNL     1       2.514  -4.410   3.096  0.00  0.00    +0.157 HD
ENDROOT
BRANCH   1  19
ATOM     13  C   UNL     1       3.083   2.226   0.232  0.00  0.00    +0.046 C 
ATOM     14  C   UNL     1       2.452   0.935  -0.221  0.00  0.00    -0.025 A 
ATOM     15  C   UNL     1       2.262   0.529  -1.538  0.00  0.00    +0.036 A 
ATOM     16  C   UNL     1       1.653  -0.711  -1.509  0.00  0.00    +0.103 A 
ATOM     17  N   UNL     1       1.468  -1.069  -0.199  0.00  0.00    -0.351 N 
ATOM     18  H   UNL     1       1.061  -1.893   0.111  0.00  0.00    +0.166 HD
ATOM     19  C   UNL     1       1.959  -0.070   0.600  0.00  0.00    +0.043 A 
BRANCH  16  20
ATOM     20  C   UNL     1       1.269  -1.509  -2.683  0.00  0.00    +0.263 C 
ATOM     21  O   UNL     1       1.898  -1.409  -3.719  0.00  0.00    -0.268 OA
ATOM     22  N   UNL     1       0.220  -2.352  -2.611  0.00  0.00    -0.292 N 
ATOM     23  C   UNL     1      -0.623  -2.411  -1.406  0.00  0.00    +0.136 C 
ATOM     24  C   UNL     1      -2.089  -2.287  -1.835  0.00  0.00    +0.179 C 
ATOM     25  O   UNL     1      -2.366  -3.254  -2.851  0.00  0.00    -0.377 OA
ATOM     26  C   UNL     1      -1.608  -3.076  -4.050  0.00  0.00    +0.179 C 
ATOM     27  C   UNL     1      -0.121  -3.236  -3.737  0.00  0.00    +0.136 C 
ENDBRANCH  16  20
ENDBRANCH   1  19
BRANCH   8  28
ATOM     28  N   UNL     1       1.544   0.756   5.076  0.00  0.00    -0.299 N 
ATOM     29  H   UNL     1       1.528   1.127   4.180  0.00  0.00    +0.154 HD
BRANCH  28  30
ATOM     30  C   UNL     1       1.377   1.595   6.185  0.00  0.00    +0.033 A 
ATOM     31  C   UNL     1       2.058   1.320   7.372  0.00  0.00    +0.025 A 
ATOM     32  C   UNL     1       1.909   2.125   8.464  0.00  0.00    +0.030 A 
ATOM     33  C   UNL     1       1.071   3.236   8.404  0.00  0.00    +0.069 A 
ATOM     34  C   UNL     1       0.380   3.523   7.211  0.00  0.00    +0.021 A 
ATOM     35  C   UNL     1       0.545   2.693   6.096  0.00  0.00    +0.034 A 
ATOM     36  C   UNL     1      -0.400   4.729   7.469  0.00  0.00    +0.143 A 
ATOM     37  N   UNL     1      -0.172   5.096   8.697  0.00  0.00    -0.178 NA
ATOM     38  N   UNL     1       0.723   4.209   9.306  0.00  0.00    -0.259 N 
BRANCH  38  39
ATOM     39  C   UNL     1       1.209   4.305  10.684  0.00  0.00    +0.179 C 
BRANCH  39  40
ATOM     40  C   UNL     1       2.466   5.136  10.717  0.00  0.00    -0.026 A 
ATOM     41  C   UNL     1       3.699   4.531  10.562  0.00  0.00    +0.005 A 
ATOM     42  C   UNL     1       4.852   5.293  10.592  0.00  0.00    +0.000 A 
ATOM     43  C   UNL     1       4.771   6.661  10.776  0.00  0.00    +0.000 A 
ATOM     44  C   UNL     1       3.538   7.266  10.930  0.00  0.00    +0.000 A 
ATOM     45  C   UNL     1       2.385   6.504  10.895  0.00  0.00    +0.005 A 
ENDBRANCH  39  40
ENDBRANCH  38  39
ENDBRANCH  28  30
ENDBRANCH   8  28
TORSDOF 6
