REMARK  Name = CHEMBL279334
REMARK  13 active torsions:
REMARK  status: ('A' for Active; 'I' for Inactive)
REMARK    1  A    between atoms: C_1  and  S_2
REMARK    2  A    between atoms: S_2  and  C_5
REMARK    3  A    between atoms: C_5  and  N_6
REMARK    4  A    between atoms: N_6  and  C_7
REMARK    5  A    between atoms: C_7  and  C_8
REMARK    6  A    between atoms: C_8  and  C_9
REMARK    7  A    between atoms: C_9  and  C_10
REMARK    8  A    between atoms: C_10  and  O_11
REMARK    9  A    between atoms: O_11  and  C_12
REMARK   10  A    between atoms: C_18  and  N_22
REMARK   11  A    between atoms: N_22  and  C_23
REMARK   12  A    between atoms: C_26  and  S_29
REMARK   13  A    between atoms: S_29  and  C_32
REMARK                            x       y       z     vdW  Elec       q    Type
REMARK                         _______ _______ _______ _____ _____    ______ ____
ROOT
ATOM      1  C   UNL     1       9.113  -1.593   0.823  0.00  0.00    +0.121 A 
ATOM      2  C   UNL     1       9.544  -0.294   0.545  0.00  0.00    +0.048 A 
ATOM      3  C   UNL     1      10.871   0.000   0.457  0.00  0.00    +0.032 A 
ATOM      4  C   UNL     1      11.823  -1.011   0.646  0.00  0.00    +0.076 A 
ATOM      5  C   UNL     1      11.392  -2.330   0.928  0.00  0.00    +0.044 A 
ATOM      6  C   UNL     1      10.024  -2.608   1.020  0.00  0.00    +0.059 A 
ATOM      7  C   UNL     1      12.377  -3.330   1.116  0.00  0.00    +0.134 A 
ATOM      8  N   UNL     1      13.652  -2.980   1.017  0.00  0.00    -0.220 NA
ATOM      9  C   UNL     1      14.008  -1.734   0.752  0.00  0.00    +0.223 A 
ATOM     10  N   UNL     1      13.140  -0.767   0.569  0.00  0.00    -0.235 NA
ENDROOT
BRANCH   7  11
ATOM     11  N   UNL     1      12.019  -4.634   1.393  0.00  0.00    -0.299 N 
ATOM     12  H   UNL     1      11.084  -4.894   1.380  0.00  0.00    +0.154 HD
BRANCH  11  13
ATOM     13  C   UNL     1      13.003  -5.580   1.694  0.00  0.00    +0.032 A 
ATOM     14  C   UNL     1      14.139  -5.203   2.399  0.00  0.00    +0.025 A 
ATOM     15  C   UNL     1      15.109  -6.140   2.695  0.00  0.00    +0.029 A 
ATOM     16  C   UNL     1      14.951  -7.453   2.289  0.00  0.00    +0.094 A 
ATOM     17  C   UNL     1      13.822  -7.832   1.587  0.00  0.00    +0.029 A 
ATOM     18  C   UNL     1      12.845  -6.901   1.293  0.00  0.00    +0.025 A 
BRANCH  16  19
ATOM     19  S   UNL     1      16.192  -8.645   2.668  0.00  0.00    +0.025 S 
ATOM     20  O   UNL     1      16.065  -9.683   1.706  0.00  0.00    -0.164 OA
ATOM     21  O   UNL     1      17.402  -7.926   2.857  0.00  0.00    -0.164 OA
BRANCH  19  22
ATOM     22  C   UNL     1      15.777  -9.351   4.229  0.00  0.00    +0.094 A 
ATOM     23  C   UNL     1      16.252  -8.780   5.394  0.00  0.00    +0.027 A 
ATOM     24  C   UNL     1      15.927  -9.334   6.618  0.00  0.00    +0.002 A 
ATOM     25  C   UNL     1      15.125 -10.458   6.676  0.00  0.00    +0.000 A 
ATOM     26  C   UNL     1      14.649 -11.029   5.511  0.00  0.00    +0.002 A 
ATOM     27  C   UNL     1      14.971 -10.473   4.287  0.00  0.00    +0.027 A 
ENDBRANCH  19  22
ENDBRANCH  16  19
ENDBRANCH  11  13
ENDBRANCH   7  11
BRANCH   1  28
ATOM     28  O   UNL     1       7.782  -1.857   0.906  0.00  0.00    -0.492 OA
BRANCH  28  29
ATOM     29  C   UNL     1       6.889  -0.762   0.692  0.00  0.00    +0.229 C 
BRANCH  29  30
ATOM     30  C   UNL     1       5.445  -1.250   0.824  0.00  0.00    +0.042 C 
BRANCH  30  31
ATOM     31  C   UNL     1       4.488  -0.077   0.595  0.00  0.00    +0.018 C 
BRANCH  31  32
ATOM     32  C   UNL     1       3.044  -0.564   0.727  0.00  0.00    +0.082 C 
BRANCH  32  33
ATOM     33  N   UNL     1       2.126   0.561   0.507  0.00  0.00    -0.298 NA
ATOM     34  H   UNL     1       2.295   0.996  -0.387  0.00  0.00    +0.123 HD
BRANCH  33  35
ATOM     35  C   UNL     1       0.727   0.130   0.627  0.00  0.00    +0.249 C 
BRANCH  35  37
ATOM     36  C   UNL     1       0.190   2.254   2.425  0.00  0.00    +0.195 C 
ATOM     37  S   UNL     1       0.139   0.445   2.314  0.00  0.00    -0.021 S 
ATOM     38  O   UNL     1       1.087  -0.089   3.227  0.00  0.00    -0.173 OA
ATOM     39  O   UNL     1      -1.217   0.027   2.403  0.00  0.00    -0.173 OA
ENDBRANCH  35  37
ENDBRANCH  33  35
ENDBRANCH  32  33
ENDBRANCH  31  32
ENDBRANCH  30  31
ENDBRANCH  29  30
ENDBRANCH  28  29
ENDBRANCH   1  28
TORSDOF 12
