REMARK  Name = CHEMBL332906
REMARK  3 active torsions:
REMARK  status: ('A' for Active; 'I' for Inactive)
REMARK    1  A    between atoms: C_3  and  N_8
REMARK    2  A    between atoms: C_11  and  C_19
REMARK    3  A    between atoms: C_22  and  N_25
REMARK                            x       y       z     vdW  Elec       q    Type
REMARK                         _______ _______ _______ _____ _____    ______ ____
ROOT
ATOM      1  N   UNL     1       3.601   2.180   0.773  0.00  0.00    -0.299 N 
ATOM      2  C   UNL     1       4.799   1.500   0.722  0.00  0.00    +0.138 A 
ATOM      3  C   UNL     1       6.010   2.180   0.464  0.00  0.00    +0.086 A 
ATOM      4  C   UNL     1       6.381   3.499   0.217  0.00  0.00    +0.078 A 
ATOM      5  N   UNL     1       7.719   3.516   0.042  0.00  0.00    -0.274 N 
ATOM      6  H   UNL     1       8.246   4.309  -0.145  0.00  0.00    +0.189 HD
ATOM      7  N   UNL     1       8.232   2.221   0.172  0.00  0.00    -0.153 NA
ATOM      8  C   UNL     1       7.248   1.384   0.425  0.00  0.00    +0.186 A 
ATOM      9  N   UNL     1       7.149   0.057   0.639  0.00  0.00    -0.214 NA
ATOM     10  C   UNL     1       5.983  -0.491   0.871  0.00  0.00    +0.225 A 
ATOM     11  N   UNL     1       4.848   0.188   0.920  0.00  0.00    -0.220 NA
ATOM     12  H   UNL     1       3.591   3.148   0.713  0.00  0.00    +0.154 HD
ENDROOT
BRANCH   1  15
ATOM     13  C   UNL     1       0.126   1.375   1.662  0.00  0.00    +0.003 A 
ATOM     14  C   UNL     1       1.310   2.074   1.527  0.00  0.00    +0.023 A 
ATOM     15  C   UNL     1       2.402   1.475   0.912  0.00  0.00    +0.034 A 
ATOM     16  C   UNL     1       2.300   0.174   0.435  0.00  0.00    +0.043 A 
ATOM     17  C   UNL     1       1.113  -0.519   0.574  0.00  0.00    +0.043 A 
ATOM     18  C   UNL     1       0.027   0.081   1.187  0.00  0.00    +0.020 A 
ATOM     19 CL   UNL     1       0.984  -2.145  -0.022  0.00  0.00    -0.083 Cl
ENDBRANCH   1  15
BRANCH   4  20
ATOM     20  C   UNL     1       5.477   4.663   0.156  0.00  0.00    +0.001 A 
ATOM     21  C   UNL     1       4.379   4.653  -0.708  0.00  0.00    +0.012 A 
ATOM     22  C   UNL     1       3.537   5.741  -0.762  0.00  0.00    +0.023 A 
ATOM     23  C   UNL     1       3.779   6.851   0.042  0.00  0.00    +0.025 A 
ATOM     24  C   UNL     1       4.872   6.865   0.903  0.00  0.00    +0.023 A 
ATOM     25  C   UNL     1       5.714   5.777   0.966  0.00  0.00    +0.012 A 
BRANCH  23  26
ATOM     26  N   UNL     1       2.925   7.951  -0.015  0.00  0.00    -0.358 N 
ATOM     27  H   UNL     1       2.163   7.943  -0.615  0.00  0.00    +0.142 HD
ATOM     28  H   UNL     1       3.093   8.725   0.544  0.00  0.00    +0.142 HD
ENDBRANCH  23  26
ENDBRANCH   4  20
TORSDOF 3
