REMARK  Name = CHEMBL204467
REMARK  8 active torsions:
REMARK  status: ('A' for Active; 'I' for Inactive)
REMARK    1  A    between atoms: C_3  and  C_8
REMARK    2  A    between atoms: C_8  and  O_9
REMARK    3  A    between atoms: O_9  and  C_10
REMARK    4  A    between atoms: C_13  and  N_17
REMARK    5  A    between atoms: C_19  and  C_24
REMARK    6  A    between atoms: C_25  and  C_26
REMARK    7  A    between atoms: C_29  and  C_31
REMARK    8  A    between atoms: C_31  and  O_32
REMARK                            x       y       z     vdW  Elec       q    Type
REMARK                         _______ _______ _______ _____ _____    ______ ____
ROOT
ATOM      1  N   UNL     1       8.806   5.231   2.017  0.00  0.00    -0.298 N 
ATOM      2  C   UNL     1       9.244   6.100   1.033  0.00  0.00    +0.142 A 
ATOM      3  C   UNL     1      10.498   6.739   1.145  0.00  0.00    +0.083 A 
ATOM      4  C   UNL     1      10.887   7.605   0.119  0.00  0.00    +0.132 A 
ATOM      5  N   UNL     1      10.071   7.790  -0.907  0.00  0.00    -0.242 NA
ATOM      6  C   UNL     1       8.908   7.174  -0.974  0.00  0.00    +0.223 A 
ATOM      7  N   UNL     1       8.496   6.344  -0.036  0.00  0.00    -0.219 NA
ATOM      8  H   UNL     1       9.323   5.118   2.830  0.00  0.00    +0.154 HD
ENDROOT
BRANCH   1  12
ATOM      9  C   UNL     1       5.262   3.100   1.486  0.00  0.00    +0.139 A 
ATOM     10  C   UNL     1       6.059   3.403   0.393  0.00  0.00    +0.049 A 
ATOM     11  C   UNL     1       7.233   4.109   0.568  0.00  0.00    +0.027 A 
ATOM     12  C   UNL     1       7.616   4.516   1.839  0.00  0.00    +0.034 A 
ATOM     13  C   UNL     1       6.817   4.213   2.934  0.00  0.00    +0.047 A 
ATOM     14  C   UNL     1       5.640   3.511   2.757  0.00  0.00    +0.084 A 
ATOM     15 CL   UNL     1       4.638   3.137   4.124  0.00  0.00    -0.080 Cl
BRANCH   9  16
ATOM     16  O   UNL     1       4.106   2.404   1.313  0.00  0.00    -0.486 OA
BRANCH  16  17
ATOM     17  C   UNL     1       3.779   2.013  -0.022  0.00  0.00    +0.264 C 
BRANCH  17  20
ATOM     18  C   UNL     1       0.084   1.248  -0.169  0.00  0.00    +0.003 A 
ATOM     19  C   UNL     1       1.281   1.939  -0.172  0.00  0.00    +0.007 A 
ATOM     20  C   UNL     1       2.474   1.258  -0.018  0.00  0.00    -0.008 A 
ATOM     21  C   UNL     1       2.471  -0.115   0.138  0.00  0.00    +0.045 A 
ATOM     22  C   UNL     1       1.273  -0.808   0.141  0.00  0.00    +0.124 A 
ATOM     23  C   UNL     1       0.078  -0.125  -0.012  0.00  0.00    +0.038 A 
ATOM     24  F   UNL     1       1.269  -2.151   0.294  0.00  0.00    -0.205 F 
ENDBRANCH  17  20
ENDBRANCH  16  17
ENDBRANCH   9  16
ENDBRANCH   1  12
BRANCH   3  25
ATOM     25  C   UNL     1      11.347   6.507   2.275  0.00  0.00    -0.053 C 
ATOM     26  C   UNL     1      12.042   6.317   3.201  0.00  0.00    -0.023 C 
BRANCH  26  27
ATOM     27  C   UNL     1      12.890   6.085   4.332  0.00  0.00    +0.178 A 
ATOM     28  C   UNL     1      12.616   5.260   5.385  0.00  0.00    +0.059 A 
ATOM     29  C   UNL     1      13.718   5.337   6.257  0.00  0.00    +0.048 A 
ATOM     30  C   UNL     1      14.601   6.194   5.705  0.00  0.00    +0.132 A 
ATOM     31  O   UNL     1      14.101   6.639   4.540  0.00  0.00    -0.449 OA
BRANCH  30  32
ATOM     32  C   UNL     1      15.932   6.583   6.294  0.00  0.00    +0.230 C 
BRANCH  32  33
ATOM     33  O   UNL     1      16.940   5.682   5.831  0.00  0.00    -0.387 OA
ATOM     34  H   UNL     1      17.825   5.872   6.172  0.00  0.00    +0.210 HD
ENDBRANCH  32  33
ENDBRANCH  30  32
ENDBRANCH  26  27
ENDBRANCH   3  25
TORSDOF 8
