REMARK  Name = CHEMBL179607
REMARK  13 active torsions:
REMARK  status: ('A' for Active; 'I' for Inactive)
REMARK    1  A    between atoms: C_1  and  C_2
REMARK    2  A    between atoms: C_2  and  O_3
REMARK    3  A    between atoms: O_3  and  C_4
REMARK    4  A    between atoms: C_9  and  N_10
REMARK    5  A    between atoms: C_11  and  C_13
REMARK    6  A    between atoms: C_13  and  C_15
REMARK    7  A    between atoms: C_15  and  N_16
REMARK    8  A    between atoms: C_22  and  N_28
REMARK    9  A    between atoms: C_23  and  C_26
REMARK   10  A    between atoms: N_28  and  C_29
REMARK   11  A    between atoms: C_32  and  O_36
REMARK   12  A    between atoms: O_36  and  C_37
REMARK   13  A    between atoms: C_37  and  C_38
REMARK                            x       y       z     vdW  Elec       q    Type
REMARK                         _______ _______ _______ _____ _____    ______ ____
ROOT
ATOM      1  C   UNL     1       1.678  -3.758  -1.543  0.00  0.00    +0.144 A 
ATOM      2  C   UNL     1       0.369  -4.110  -1.310  0.00  0.00    +0.076 A 
ATOM      3  C   UNL     1       0.024  -4.781  -0.127  0.00  0.00    +0.076 A 
ATOM      4  C   UNL     1       1.036  -5.087   0.815  0.00  0.00    +0.025 A 
ATOM      5  C   UNL     1       2.365  -4.721   0.560  0.00  0.00    +0.039 A 
ATOM      6  C   UNL     1       2.680  -4.067  -0.610  0.00  0.00    +0.077 A 
ATOM      7  C   UNL     1       0.683  -5.764   2.006  0.00  0.00    +0.060 A 
ATOM      8  C   UNL     1      -0.666  -6.100   2.193  0.00  0.00    +0.091 A 
ATOM      9  C   UNL     1      -1.603  -5.756   1.205  0.00  0.00    +0.132 A 
ATOM     10  N   UNL     1      -1.248  -5.130   0.112  0.00  0.00    -0.253 NA
ENDROOT
BRANCH   6  11
ATOM     11  N   UNL     1       4.007  -3.706  -0.870  0.00  0.00    -0.279 N 
ATOM     12  C   UNL     1       4.848  -3.450   0.152  0.00  0.00    +0.245 C 
ATOM     13  O   UNL     1       4.485  -3.632   1.299  0.00  0.00    -0.270 OA
ATOM     14  H   UNL     1       4.322  -3.639  -1.785  0.00  0.00    +0.155 HD
BRANCH  12  15
ATOM     15  C   UNL     1       6.204  -2.950  -0.119  0.00  0.00    +0.022 C 
ATOM     16  C   UNL     1       7.034  -2.697   0.890  0.00  0.00    +0.019 C 
BRANCH  15  17
ATOM     17  C   UNL     1       6.654  -2.723  -1.539  0.00  0.00    +0.124 C 
BRANCH  17  18
ATOM     18  N   UNL     1       7.159  -3.984  -2.099  0.00  0.00    -0.294 NA
ATOM     19  C   UNL     1       8.388  -4.410  -1.414  0.00  0.00    +0.113 C 
ATOM     20  C   UNL     1       8.845  -5.754  -1.987  0.00  0.00    +0.175 C 
ATOM     21  O   UNL     1       9.029  -5.627  -3.400  0.00  0.00    -0.377 OA
ATOM     22  C   UNL     1       7.852  -5.213  -4.099  0.00  0.00    +0.175 C 
ATOM     23  C   UNL     1       7.385  -3.864  -3.547  0.00  0.00    +0.113 C 
ENDBRANCH  17  18
ENDBRANCH  15  17
ENDBRANCH  12  15
ENDBRANCH   6  11
BRANCH   8  24
ATOM     24  C   UNL     1      -1.084  -6.785   3.379  0.00  0.00    +0.103 C 
ATOM     25  N   UNL     1      -1.415  -7.330   4.320  0.00  0.00    -0.191 NA
ENDBRANCH   8  24
BRANCH   7  26
ATOM     26  N   UNL     1       1.635  -6.084   2.953  0.00  0.00    -0.313 N 
ATOM     27  H   UNL     1       1.945  -5.408   3.577  0.00  0.00    +0.152 HD
BRANCH  26  28
ATOM     28  C   UNL     1       2.153  -7.382   3.014  0.00  0.00    +0.033 A 
ATOM     29  C   UNL     1       2.010  -8.239   1.930  0.00  0.00    +0.027 A 
ATOM     30  C   UNL     1       2.522  -9.520   1.990  0.00  0.00    +0.049 A 
ATOM     31  C   UNL     1       3.178  -9.953   3.132  0.00  0.00    +0.139 A 
ATOM     32  C   UNL     1       3.321  -9.098   4.217  0.00  0.00    +0.084 A 
ATOM     33  C   UNL     1       2.815  -7.813   4.156  0.00  0.00    +0.047 A 
ATOM     34 CL   UNL     1       4.142  -9.641   5.647  0.00  0.00    -0.080 Cl
BRANCH  31  35
ATOM     35  O   UNL     1       3.681 -11.215   3.191  0.00  0.00    -0.486 OA
BRANCH  35  36
ATOM     36  C   UNL     1       3.497 -12.040   2.039  0.00  0.00    +0.264 C 
BRANCH  36  37
ATOM     37  C   UNL     1       4.115 -13.392   2.286  0.00  0.00    -0.010 A 
ATOM     38  C   UNL     1       5.439 -13.617   1.956  0.00  0.00    +0.007 A 
ATOM     39  C   UNL     1       6.006 -14.857   2.183  0.00  0.00    +0.000 A 
ATOM     40  C   UNL     1       5.250 -15.872   2.739  0.00  0.00    +0.000 A 
ATOM     41  C   UNL     1       3.927 -15.647   3.069  0.00  0.00    +0.000 A 
ATOM     42  C   UNL     1       3.361 -14.405   2.846  0.00  0.00    +0.007 A 
ENDBRANCH  36  37
ENDBRANCH  35  36
ENDBRANCH  31  35
ENDBRANCH  26  28
ENDBRANCH   7  26
BRANCH   1  43
ATOM     43  O   UNL     1       2.005  -3.108  -2.690  0.00  0.00    -0.490 OA
BRANCH  43  45
ATOM     44  C   UNL     1       1.499  -2.093  -4.824  0.00  0.00    +0.048 C 
ATOM     45  C   UNL     1       0.941  -2.821  -3.600  0.00  0.00    +0.226 C 
ENDBRANCH  43  45
ENDBRANCH   1  43
TORSDOF 12
