REMARK  Name = CHEMBL53552
REMARK  2 active torsions:
REMARK  status: ('A' for Active; 'I' for Inactive)
REMARK    1  A    between atoms: C_4  and  C_7
REMARK    2  A    between atoms: C_7  and  N_8
REMARK                            x       y       z     vdW  Elec       q    Type
REMARK                         _______ _______ _______ _____ _____    ______ ____
ROOT
ATOM      1  N   UNL     1       4.152  -0.952   1.338  0.00  0.00    -0.323 N 
ATOM      2  C   UNL     1       5.338  -1.615   1.574  0.00  0.00    +0.148 A 
ATOM      3  C   UNL     1       5.779  -1.868   2.899  0.00  0.00    +0.129 A 
ATOM      4  C   UNL     1       7.005  -2.554   3.068  0.00  0.00    +0.094 A 
ATOM      5  C   UNL     1       7.464  -2.816   4.370  0.00  0.00    +0.031 A 
ATOM      6  C   UNL     1       6.697  -2.392   5.420  0.00  0.00    +0.022 A 
ATOM      7  C   UNL     1       5.499  -1.722   5.180  0.00  0.00    +0.111 A 
ATOM      8  N   UNL     1       5.077  -1.480   3.961  0.00  0.00    -0.250 NA
ATOM      9  N   UNL     1       7.693  -2.933   1.982  0.00  0.00    -0.234 NA
ATOM     10  C   UNL     1       7.235  -2.671   0.781  0.00  0.00    +0.224 A 
ATOM     11  N   UNL     1       6.092  -2.038   0.570  0.00  0.00    -0.219 NA
ATOM     12  H   UNL     1       3.610  -0.648   2.082  0.00  0.00    +0.148 HD
ENDROOT
BRANCH   1  13
ATOM     13  C   UNL     1       3.711  -0.707  -0.038  0.00  0.00    +0.138 C 
BRANCH  13  17
ATOM     14  C   UNL     1      -0.017   1.378   0.010  0.00  0.00    +0.000 A 
ATOM     15  C   UNL     1       1.171   2.086   0.002  0.00  0.00    +0.000 A 
ATOM     16  C   UNL     1       2.377   1.411  -0.013  0.00  0.00    +0.005 A 
ATOM     17  C   UNL     1       2.396   0.029  -0.020  0.00  0.00    -0.030 A 
ATOM     18  C   UNL     1       1.208  -0.679  -0.012  0.00  0.00    +0.005 A 
ATOM     19  C   UNL     1       0.002  -0.004   0.002  0.00  0.00    +0.000 A 
ENDBRANCH  13  17
ENDBRANCH   1  13
TORSDOF 2
