REMARK  Name = CHEMBL75177
REMARK  1 active torsions:
REMARK  status: ('A' for Active; 'I' for Inactive)
REMARK    1  A    between atoms: C_3  and  N_8
REMARK                            x       y       z     vdW  Elec       q    Type
REMARK                         _______ _______ _______ _____ _____    ______ ____
ROOT
ATOM      1  N   UNL     1       3.583   2.124  -0.021  0.00  0.00    -0.299 N 
ATOM      2  C   UNL     1       4.789   1.451   0.068  0.00  0.00    +0.136 A 
ATOM      3  C   UNL     1       5.999   2.156   0.172  0.00  0.00    +0.062 A 
ATOM      4  C   UNL     1       6.381   3.560   0.220  0.00  0.00    -0.014 A 
ATOM      5  C   UNL     1       7.724   3.603   0.326  0.00  0.00    +0.022 A 
ATOM      6  N   UNL     1       8.222   2.329   0.350  0.00  0.00    -0.343 N 
ATOM      7  C   UNL     1       7.199   1.423   0.260  0.00  0.00    +0.144 A 
ATOM      8  N   UNL     1       7.136   0.093   0.240  0.00  0.00    -0.218 NA
ATOM      9  C   UNL     1       5.978  -0.524   0.141  0.00  0.00    +0.225 A 
ATOM     10  N   UNL     1       4.829   0.123   0.063  0.00  0.00    -0.220 NA
ATOM     11  C   UNL     1       8.517   4.887   0.402  0.00  0.00    +0.053 C 
ATOM     12  C   UNL     1       7.627   6.039  -0.077  0.00  0.00    +0.006 C 
ATOM     13  C   UNL     1       6.284   5.986   0.656  0.00  0.00    +0.005 C 
ATOM     14  C   UNL     1       5.487   4.771   0.166  0.00  0.00    +0.038 C 
ATOM     15  H   UNL     1       3.571   3.092  -0.094  0.00  0.00    +0.154 HD
ATOM     16  H   UNL     1       9.162   2.100   0.421  0.00  0.00    +0.167 HD
ENDROOT
BRANCH   1  19
ATOM     17  C   UNL     1       1.089  -0.466   0.744  0.00  0.00    +0.003 A 
ATOM     18  C   UNL     1       2.278   0.238   0.731  0.00  0.00    +0.023 A 
ATOM     19  C   UNL     1       2.381   1.410  -0.007  0.00  0.00    +0.034 A 
ATOM     20  C   UNL     1       1.288   1.872  -0.729  0.00  0.00    +0.043 A 
ATOM     21  C   UNL     1       0.102   1.163  -0.712  0.00  0.00    +0.043 A 
ATOM     22  C   UNL     1       0.003  -0.005   0.024  0.00  0.00    +0.020 A 
ATOM     23 CL   UNL     1      -1.265   1.739  -1.614  0.00  0.00    -0.083 Cl
ENDBRANCH   1  19
TORSDOF 1
