REMARK  Name = CHEMBL515082
REMARK  12 active torsions:
REMARK  status: ('A' for Active; 'I' for Inactive)
REMARK    1  A    between atoms: C_1  and  S_2
REMARK    2  A    between atoms: S_2  and  C_5
REMARK    3  A    between atoms: C_5  and  C_6
REMARK    4  A    between atoms: C_6  and  N_7
REMARK    5  A    between atoms: N_7  and  C_8
REMARK    6  A    between atoms: C_8  and  C_9
REMARK    7  A    between atoms: C_11  and  C_14
REMARK    8  A    between atoms: C_20  and  N_24
REMARK    9  A    between atoms: N_24  and  C_25
REMARK   10  A    between atoms: C_28  and  O_32
REMARK   11  A    between atoms: O_32  and  C_33
REMARK   12  A    between atoms: C_33  and  C_34
REMARK                            x       y       z     vdW  Elec       q    Type
REMARK                         _______ _______ _______ _____ _____    ______ ____
ROOT
ATOM      1  C   UNL     1       5.912  -3.829  -6.134  0.00  0.00    +0.002 A 
ATOM      2  C   UNL     1       6.393  -4.099  -7.424  0.00  0.00    +0.012 A 
ATOM      3  C   UNL     1       7.683  -4.481  -7.623  0.00  0.00    +0.029 A 
ATOM      4  C   UNL     1       8.552  -4.608  -6.529  0.00  0.00    +0.076 A 
ATOM      5  C   UNL     1       8.076  -4.337  -5.223  0.00  0.00    +0.041 A 
ATOM      6  C   UNL     1       6.749  -3.941  -5.035  0.00  0.00    +0.023 A 
ATOM      7  C   UNL     1       8.978  -4.474  -4.139  0.00  0.00    +0.134 A 
ATOM      8  N   UNL     1      10.223  -4.850  -4.404  0.00  0.00    -0.220 NA
ATOM      9  C   UNL     1      10.622  -5.092  -5.642  0.00  0.00    +0.223 A 
ATOM     10  N   UNL     1       9.831  -4.981  -6.683  0.00  0.00    -0.235 NA
ENDROOT
BRANCH   1  13
ATOM     11  C   UNL     1       2.761  -2.781  -4.588  0.00  0.00    +0.093 A 
ATOM     12  N   UNL     1       4.007  -3.146  -4.745  0.00  0.00    -0.243 NA
ATOM     13  C   UNL     1       4.500  -3.416  -5.945  0.00  0.00    +0.078 A 
ATOM     14  C   UNL     1       3.638  -3.292  -7.002  0.00  0.00    +0.075 A 
ATOM     15  S   UNL     1       2.149  -2.791  -6.155  0.00  0.00    -0.079 S 
BRANCH  11  16
ATOM     16  C   UNL     1       2.043  -2.440  -3.308  0.00  0.00    +0.144 C 
BRANCH  16  17
ATOM     17  N   UNL     1       2.173  -1.001  -3.042  0.00  0.00    -0.309 NA
ATOM     18  H   UNL     1       1.832  -0.457  -3.820  0.00  0.00    +0.122 HD
BRANCH  17  19
ATOM     19  C   UNL     1       1.484  -0.631  -1.798  0.00  0.00    +0.104 C 
BRANCH  19  20
ATOM     20  C   UNL     1       1.641   0.871  -1.555  0.00  0.00    +0.180 C 
BRANCH  20  22
ATOM     21  C   UNL     1       1.089   3.114   0.088  0.00  0.00    +0.194 C 
ATOM     22  S   UNL     1       0.790   1.327  -0.020  0.00  0.00    -0.033 S 
ATOM     23  O   UNL     1       1.452   0.695   1.067  0.00  0.00    -0.175 OA
ATOM     24  O   UNL     1      -0.604   1.115  -0.198  0.00  0.00    -0.175 OA
ENDBRANCH  20  22
ENDBRANCH  19  20
ENDBRANCH  17  19
ENDBRANCH  16  17
ENDBRANCH  11  16
ENDBRANCH   1  13
BRANCH   7  25
ATOM     25  N   UNL     1       8.574  -4.224  -2.844  0.00  0.00    -0.299 N 
ATOM     26  H   UNL     1       7.642  -4.032  -2.656  0.00  0.00    +0.154 HD
BRANCH  25  27
ATOM     27  C   UNL     1       9.509  -4.248  -1.802  0.00  0.00    +0.034 A 
ATOM     28  C   UNL     1       9.143  -4.728  -0.552  0.00  0.00    +0.027 A 
ATOM     29  C   UNL     1      10.065  -4.751   0.476  0.00  0.00    +0.049 A 
ATOM     30  C   UNL     1      11.357  -4.295   0.260  0.00  0.00    +0.139 A 
ATOM     31  C   UNL     1      11.724  -3.816  -0.990  0.00  0.00    +0.084 A 
ATOM     32  C   UNL     1      10.804  -3.797  -2.021  0.00  0.00    +0.047 A 
ATOM     33 CL   UNL     1      13.341  -3.244  -1.260  0.00  0.00    -0.080 Cl
BRANCH  30  34
ATOM     34  O   UNL     1      12.265  -4.318   1.272  0.00  0.00    -0.486 OA
BRANCH  34  35
ATOM     35  C   UNL     1      11.818  -4.825   2.532  0.00  0.00    +0.264 C 
BRANCH  35  36
ATOM     36  C   UNL     1      12.952  -4.773   3.524  0.00  0.00    -0.010 A 
ATOM     37  C   UNL     1      13.809  -5.849   3.650  0.00  0.00    +0.007 A 
ATOM     38  C   UNL     1      14.849  -5.802   4.561  0.00  0.00    +0.000 A 
ATOM     39  C   UNL     1      15.031  -4.678   5.344  0.00  0.00    +0.000 A 
ATOM     40  C   UNL     1      14.173  -3.601   5.217  0.00  0.00    +0.000 A 
ATOM     41  C   UNL     1      13.137  -3.647   4.304  0.00  0.00    +0.007 A 
ENDBRANCH  35  36
ENDBRANCH  34  35
ENDBRANCH  30  34
ENDBRANCH  25  27
ENDBRANCH   7  25
TORSDOF 11
