REMARK  Name = CHEMBL92356
REMARK  8 active torsions:
REMARK  status: ('A' for Active; 'I' for Inactive)
REMARK    1  A    between atoms: C_1  and  C_2
REMARK    2  A    between atoms: C_2  and  N_3
REMARK    3  A    between atoms: N_6  and  C_9
REMARK    4  A    between atoms: C_9  and  C_10
REMARK    5  A    between atoms: C_11  and  C_12
REMARK    6  A    between atoms: N_14  and  C_15
REMARK    7  A    between atoms: C_21  and  N_25
REMARK    8  A    between atoms: N_25  and  C_26
REMARK                            x       y       z     vdW  Elec       q    Type
REMARK                         _______ _______ _______ _____ _____    ______ ____
ROOT
ATOM      1  C   UNL     1       3.336  -8.686   2.224  0.00  0.00    +0.035 A 
ATOM      2  C   UNL     1       3.553  -9.475   3.357  0.00  0.00    +0.025 A 
ATOM      3  C   UNL     1       3.868 -10.794   3.243  0.00  0.00    +0.030 A 
ATOM      4  C   UNL     1       3.979 -11.377   1.972  0.00  0.00    +0.076 A 
ATOM      5  C   UNL     1       3.760 -10.583   0.819  0.00  0.00    +0.042 A 
ATOM      6  C   UNL     1       3.432  -9.231   0.960  0.00  0.00    +0.036 A 
ATOM      7  C   UNL     1       3.879 -11.200  -0.450  0.00  0.00    +0.134 A 
ATOM      8  N   UNL     1       4.188 -12.489  -0.494  0.00  0.00    -0.220 NA
ATOM      9  C   UNL     1       4.383 -13.191   0.611  0.00  0.00    +0.223 A 
ATOM     10  N   UNL     1       4.287 -12.673   1.812  0.00  0.00    -0.235 NA
ENDROOT
BRANCH   1  13
ATOM     11  C   UNL     1       3.572  -6.611   3.364  0.00  0.00    +0.293 C 
ATOM     12  O   UNL     1       4.291  -7.155   4.180  0.00  0.00    -0.260 OA
ATOM     13  N   UNL     1       3.012  -7.333   2.373  0.00  0.00    -0.275 N 
ATOM     14  H   UNL     1       2.385  -6.914   1.762  0.00  0.00    +0.156 HD
BRANCH  11  16
ATOM     15  C   UNL     1       3.115  -4.051   3.530  0.00  0.00    -0.077 C 
ATOM     16  C   UNL     1       3.321  -5.205   3.455  0.00  0.00    -0.006 C 
BRANCH  15  17
ATOM     17  C   UNL     1       2.856  -2.605   3.624  0.00  0.00    +0.174 C 
BRANCH  17  21
ATOM     18  N   UNL     1      -0.350  -0.927   1.440  0.00  0.00    +0.381 N 
ATOM     19  C   UNL     1       0.987  -0.344   1.261  0.00  0.00    -0.063 C 
ATOM     20  C   UNL     1       1.874  -0.730   2.447  0.00  0.00    +0.067 C 
ATOM     21  N   UNL     1       1.966  -2.195   2.530  0.00  0.00    -0.295 NA
ATOM     22  C   UNL     1       0.632  -2.794   2.684  0.00  0.00    +0.067 C 
ATOM     23  C   UNL     1      -0.245  -2.391   1.496  0.00  0.00    -0.063 C 
ATOM     24  H   UNL     1      -0.753  -0.585   2.299  0.00  0.00    -0.082 HD
BRANCH  18  26
ATOM     25  C   UNL     1      -1.418   0.974   0.325  0.00  0.00    -0.017 C 
ATOM     26  C   UNL     1      -1.206  -0.541   0.310  0.00  0.00    -0.082 C 
ENDBRANCH  18  26
ENDBRANCH  17  21
ENDBRANCH  15  17
ENDBRANCH  11  16
ENDBRANCH   1  13
BRANCH   7  27
ATOM     27  N   UNL     1       3.677 -10.479  -1.610  0.00  0.00    -0.299 N 
ATOM     28  H   UNL     1       3.527  -9.522  -1.566  0.00  0.00    +0.154 HD
BRANCH  27  29
ATOM     29  C   UNL     1       3.690 -11.129  -2.847  0.00  0.00    +0.033 A 
ATOM     30  C   UNL     1       4.162 -10.469  -3.975  0.00  0.00    +0.023 A 
ATOM     31  C   UNL     1       4.173 -11.113  -5.197  0.00  0.00    +0.003 A 
ATOM     32  C   UNL     1       3.715 -12.414  -5.298  0.00  0.00    +0.015 A 
ATOM     33  C   UNL     1       3.244 -13.075  -4.178  0.00  0.00    +0.020 A 
ATOM     34  C   UNL     1       3.236 -12.437  -2.951  0.00  0.00    +0.038 A 
ATOM     35 BR   UNL     1       2.618 -14.853  -4.322  0.00  0.00    -0.050 Br
ENDBRANCH  27  29
ENDBRANCH   7  27
TORSDOF 7
