REMARK  Name = CHEMBL401054
REMARK  10 active torsions:
REMARK  status: ('A' for Active; 'I' for Inactive)
REMARK    1  A    between atoms: C_1  and  O_2
REMARK    2  A    between atoms: O_2  and  C_3
REMARK    3  A    between atoms: C_8  and  O_9
REMARK    4  A    between atoms: O_9  and  C_10
REMARK    5  A    between atoms: C_10  and  C_11
REMARK    6  A    between atoms: C_11  and  N_12
REMARK    7  A    between atoms: C_18  and  N_24
REMARK    8  A    between atoms: C_19  and  C_22
REMARK    9  A    between atoms: N_24  and  C_25
REMARK   10  A    between atoms: C_28  and  C_30
REMARK                            x       y       z     vdW  Elec       q    Type
REMARK                         _______ _______ _______ _____ _____    ______ ____
ROOT
ATOM      1  C   UNL     1       3.959  -1.051  -1.994  0.00  0.00    +0.164 A 
ATOM      2  C   UNL     1       3.451  -0.381  -3.083  0.00  0.00    +0.077 A 
ATOM      3  C   UNL     1       2.857  -1.103  -4.130  0.00  0.00    +0.076 A 
ATOM      4  C   UNL     1       2.791  -2.514  -4.045  0.00  0.00    +0.026 A 
ATOM      5  C   UNL     1       3.317  -3.173  -2.924  0.00  0.00    +0.061 A 
ATOM      6  C   UNL     1       3.895  -2.450  -1.920  0.00  0.00    +0.163 A 
ATOM      7  C   UNL     1       2.192  -3.239  -5.101  0.00  0.00    +0.056 A 
ATOM      8  C   UNL     1       1.688  -2.512  -6.190  0.00  0.00    +0.091 A 
ATOM      9  C   UNL     1       1.796  -1.112  -6.191  0.00  0.00    +0.132 A 
ATOM     10  N   UNL     1       2.356  -0.467  -5.199  0.00  0.00    -0.253 NA
ENDROOT
BRANCH   1  12
ATOM     11  C   UNL     1       4.569   1.071  -1.116  0.00  0.00    +0.277 C 
ATOM     12  O   UNL     1       4.535  -0.351  -0.982  0.00  0.00    -0.491 OA
ENDBRANCH   1  12
BRANCH   8  13
ATOM     13  C   UNL     1       1.070  -3.190  -7.289  0.00  0.00    +0.103 C 
ATOM     14  N   UNL     1       0.580  -3.729  -8.161  0.00  0.00    -0.191 NA
ENDBRANCH   8  13
BRANCH   7  15
ATOM     15  N   UNL     1       2.106  -4.615  -5.062  0.00  0.00    -0.339 N 
ATOM     16  H   UNL     1       1.442  -5.044  -4.500  0.00  0.00    +0.146 HD
BRANCH  15  17
ATOM     17  C   UNL     1       3.017  -5.429  -5.870  0.00  0.00    +0.078 C 
ATOM     18  C   UNL     1       2.432  -6.653  -6.579  0.00  0.00    +0.032 C 
ATOM     19  C   UNL     1       3.346  -6.835  -5.364  0.00  0.00    +0.041 C 
BRANCH  19  20
ATOM     20  C   UNL     1       4.737  -7.357  -5.613  0.00  0.00    -0.042 A 
ATOM     21  C   UNL     1       5.210  -7.477  -6.907  0.00  0.00    +0.004 A 
ATOM     22  C   UNL     1       6.487  -7.955  -7.135  0.00  0.00    +0.000 A 
ATOM     23  C   UNL     1       7.291  -8.313  -6.070  0.00  0.00    +0.000 A 
ATOM     24  C   UNL     1       6.819  -8.192  -4.776  0.00  0.00    +0.000 A 
ATOM     25  C   UNL     1       5.544  -7.710  -4.548  0.00  0.00    +0.004 A 
ENDBRANCH  19  20
ENDBRANCH  15  17
ENDBRANCH   7  15
BRANCH   6  26
ATOM     26  O   UNL     1       4.409  -3.091  -0.837  0.00  0.00    -0.490 OA
BRANCH  26  27
ATOM     27  C   UNL     1       4.313  -4.517  -0.822  0.00  0.00    +0.211 C 
BRANCH  27  28
ATOM     28  C   UNL     1       4.940  -5.057   0.466  0.00  0.00    -0.037 C 
BRANCH  28  29
ATOM     29  N   UNL     1       4.172  -4.578   1.623  0.00  0.00    +0.385 N 
ATOM     30  C   UNL     1       4.829  -5.015   2.862  0.00  0.00    -0.050 C 
ATOM     31  C   UNL     1       4.027  -4.516   4.066  0.00  0.00    +0.141 C 
ATOM     32  O   UNL     1       2.688  -5.011   3.978  0.00  0.00    -0.383 OA
ATOM     33  C   UNL     1       2.013  -4.631   2.776  0.00  0.00    +0.141 C 
ATOM     34  C   UNL     1       2.811  -5.131   1.570  0.00  0.00    -0.050 C 
ATOM     35  H   UNL     1       4.126  -3.571   1.603  0.00  0.00    -0.081 HD
ENDBRANCH  28  29
ENDBRANCH  27  28
ENDBRANCH  26  27
ENDBRANCH   6  26
TORSDOF 9
