REMARK  Name = CHEMBL380972
REMARK  6 active torsions:
REMARK  status: ('A' for Active; 'I' for Inactive)
REMARK    1  A    between atoms: C_1  and  O_2
REMARK    2  A    between atoms: O_2  and  C_3
REMARK    3  A    between atoms: C_8  and  O_9
REMARK    4  A    between atoms: O_9  and  C_10
REMARK    5  A    between atoms: C_14  and  N_18
REMARK    6  A    between atoms: N_18  and  C_19
REMARK                            x       y       z     vdW  Elec       q    Type
REMARK                         _______ _______ _______ _____ _____    ______ ____
ROOT
ATOM      1  C   UNL     1      -0.108  -1.021  -1.824  0.00  0.00    +0.162 A 
ATOM      2  C   UNL     1       0.539  -0.211  -2.735  0.00  0.00    +0.058 A 
ATOM      3  C   UNL     1       1.370  -0.747  -3.720  0.00  0.00    +0.016 A 
ATOM      4  C   UNL     1       1.543  -2.110  -3.784  0.00  0.00    +0.139 A 
ATOM      5  C   UNL     1       0.890  -2.933  -2.857  0.00  0.00    +0.096 A 
ATOM      6  C   UNL     1       0.075  -2.399  -1.881  0.00  0.00    +0.165 A 
ATOM      7  O   UNL     1       2.302  -2.762  -4.692  0.00  0.00    -0.436 OA
ATOM      8  C   UNL     1       3.559  -2.398  -5.004  0.00  0.00    +0.247 A 
ATOM      9  C   UNL     1       3.739  -1.183  -5.642  0.00  0.00    +0.131 A 
ATOM     10  C   UNL     1       5.024  -0.824  -6.049  0.00  0.00    +0.151 A 
ATOM     11  N   UNL     1       6.029  -1.652  -5.766  0.00  0.00    -0.218 NA
ATOM     12  C   UNL     1       5.819  -2.779  -5.117  0.00  0.00    +0.227 A 
ATOM     13  N   UNL     1       4.612  -3.159  -4.738  0.00  0.00    -0.199 NA
ATOM     14  N   UNL     1       2.653  -0.320  -5.795  0.00  0.00    -0.333 N 
ATOM     15  C   UNL     1       2.010   0.268  -4.633  0.00  0.00    +0.141 C 
ATOM     16  H   UNL     1       2.325  -0.112  -6.684  0.00  0.00    +0.147 HD
ENDROOT
BRANCH   1  18
ATOM     17  C   UNL     1      -1.053   0.947  -0.879  0.00  0.00    +0.277 C 
ATOM     18  O   UNL     1      -0.915  -0.475  -0.874  0.00  0.00    -0.491 OA
ENDBRANCH   1  18
BRANCH   6  19
ATOM     19  O   UNL     1      -0.548  -3.212  -0.987  0.00  0.00    -0.491 OA
ATOM     20  C   UNL     1      -0.311  -4.616  -1.110  0.00  0.00    +0.277 C 
ENDBRANCH   6  19
BRANCH  10  21
ATOM     21  N   UNL     1       5.249   0.366  -6.732  0.00  0.00    -0.298 N 
ATOM     22  H   UNL     1       4.524   0.998  -6.858  0.00  0.00    +0.154 HD
BRANCH  21  23
ATOM     23  C   UNL     1       6.521   0.651  -7.237  0.00  0.00    +0.033 A 
ATOM     24  C   UNL     1       7.333  -0.377  -7.699  0.00  0.00    +0.023 A 
ATOM     25  C   UNL     1       8.589  -0.091  -8.198  0.00  0.00    +0.003 A 
ATOM     26  C   UNL     1       9.039   1.216  -8.238  0.00  0.00    +0.015 A 
ATOM     27  C   UNL     1       8.232   2.242  -7.779  0.00  0.00    +0.020 A 
ATOM     28  C   UNL     1       6.973   1.964  -7.283  0.00  0.00    +0.038 A 
ATOM     29 BR   UNL     1       8.853   4.028  -7.835  0.00  0.00    -0.050 Br
ENDBRANCH  21  23
ENDBRANCH  10  21
TORSDOF 4
