REMARK  Name = CHEMBL248221
REMARK  11 active torsions:
REMARK  status: ('A' for Active; 'I' for Inactive)
REMARK    1  A    between atoms: C_1  and  O_2
REMARK    2  A    between atoms: O_2  and  C_3
REMARK    3  A    between atoms: C_8  and  O_9
REMARK    4  A    between atoms: O_9  and  C_10
REMARK    5  A    between atoms: C_10  and  C_11
REMARK    6  A    between atoms: C_11  and  C_12
REMARK    7  A    between atoms: C_12  and  N_13
REMARK    8  A    between atoms: C_19  and  N_25
REMARK    9  A    between atoms: C_20  and  C_23
REMARK   10  A    between atoms: N_25  and  C_26
REMARK   11  A    between atoms: C_29  and  C_31
REMARK                            x       y       z     vdW  Elec       q    Type
REMARK                         _______ _______ _______ _____ _____    ______ ____
ROOT
ATOM      1  C   UNL     1      -0.022  -0.457   1.740  0.00  0.00    +0.164 A 
ATOM      2  C   UNL     1       0.940   0.244   2.432  0.00  0.00    +0.077 A 
ATOM      3  C   UNL     1       1.847  -0.443   3.253  0.00  0.00    +0.076 A 
ATOM      4  C   UNL     1       1.754  -1.852   3.355  0.00  0.00    +0.026 A 
ATOM      5  C   UNL     1       0.764  -2.542   2.640  0.00  0.00    +0.061 A 
ATOM      6  C   UNL     1      -0.110  -1.851   1.851  0.00  0.00    +0.163 A 
ATOM      7  C   UNL     1       2.669  -2.542   4.184  0.00  0.00    +0.056 A 
ATOM      8  C   UNL     1       3.631  -1.785   4.868  0.00  0.00    +0.091 A 
ATOM      9  C   UNL     1       3.650  -0.390   4.707  0.00  0.00    +0.132 A 
ATOM     10  N   UNL     1       2.791   0.223   3.934  0.00  0.00    -0.253 NA
ENDROOT
BRANCH   1  12
ATOM     11  C   UNL     1      -0.758   1.631   0.874  0.00  0.00    +0.277 C 
ATOM     12  O   UNL     1      -0.899   0.211   0.946  0.00  0.00    -0.491 OA
ENDBRANCH   1  12
BRANCH   8  13
ATOM     13  C   UNL     1       4.585  -2.428   5.722  0.00  0.00    +0.103 C 
ATOM     14  N   UNL     1       5.341  -2.938   6.399  0.00  0.00    -0.191 NA
ENDBRANCH   8  13
BRANCH   7  15
ATOM     15  N   UNL     1       2.617  -3.915   4.315  0.00  0.00    -0.339 N 
ATOM     16  H   UNL     1       2.263  -4.458   3.593  0.00  0.00    +0.146 HD
BRANCH  15  17
ATOM     17  C   UNL     1       3.096  -4.552   5.544  0.00  0.00    +0.078 C 
ATOM     18  C   UNL     1       4.170  -5.633   5.406  0.00  0.00    +0.032 C 
ATOM     19  C   UNL     1       2.734  -6.022   5.765  0.00  0.00    +0.041 C 
BRANCH  19  20
ATOM     20  C   UNL     1       2.466  -6.468   7.179  0.00  0.00    -0.042 A 
ATOM     21  C   UNL     1       3.450  -6.340   8.142  0.00  0.00    +0.004 A 
ATOM     22  C   UNL     1       3.205  -6.749   9.440  0.00  0.00    +0.000 A 
ATOM     23  C   UNL     1       1.975  -7.284   9.775  0.00  0.00    +0.000 A 
ATOM     24  C   UNL     1       0.991  -7.411   8.812  0.00  0.00    +0.000 A 
ATOM     25  C   UNL     1       1.235  -6.999   7.516  0.00  0.00    +0.004 A 
ENDBRANCH  19  20
ENDBRANCH  15  17
ENDBRANCH   7  15
BRANCH   6  26
ATOM     26  O   UNL     1      -1.073  -2.522   1.164  0.00  0.00    -0.488 OA
BRANCH  26  27
ATOM     27  C   UNL     1      -1.110  -3.942   1.319  0.00  0.00    +0.227 C 
BRANCH  27  28
ATOM     28  C   UNL     1      -2.250  -4.518   0.476  0.00  0.00    +0.022 C 
BRANCH  28  29
ATOM     29  C   UNL     1      -2.290  -6.038   0.642  0.00  0.00    -0.075 C 
BRANCH  29  30
ATOM     30  N   UNL     1      -3.384  -6.591  -0.168  0.00  0.00    +0.383 N 
ATOM     31  C   UNL     1      -4.671  -6.109   0.354  0.00  0.00    -0.050 C 
ATOM     32  C   UNL     1      -5.809  -6.686  -0.491  0.00  0.00    +0.141 C 
ATOM     33  O   UNL     1      -5.735  -8.114  -0.471  0.00  0.00    -0.383 OA
ATOM     34  C   UNL     1      -4.489  -8.631  -0.948  0.00  0.00    +0.141 C 
ATOM     35  C   UNL     1      -3.349  -8.058  -0.103  0.00  0.00    -0.050 C 
ATOM     36  H   UNL     1      -3.277  -6.293  -1.126  0.00  0.00    -0.082 HD
ENDBRANCH  29  30
ENDBRANCH  28  29
ENDBRANCH  27  28
ENDBRANCH  26  27
ENDBRANCH   6  26
TORSDOF 10
