REMARK  Name = CHEMBL379001
REMARK  7 active torsions:
REMARK  status: ('A' for Active; 'I' for Inactive)
REMARK    1  A    between atoms: C_1  and  C_2
REMARK    2  A    between atoms: C_2  and  C_4
REMARK    3  A    between atoms: C_2  and  N_10
REMARK    4  A    between atoms: C_20  and  O_28
REMARK    5  A    between atoms: C_21  and  O_26
REMARK    6  A    between atoms: O_26  and  C_27
REMARK    7  A    between atoms: O_28  and  C_29
REMARK                            x       y       z     vdW  Elec       q    Type
REMARK                         _______ _______ _______ _____ _____    ______ ____
ROOT
ATOM      1  N   UNL     1       0.688  -0.476  -1.203  0.00  0.00    -0.321 N 
ATOM      2  C   UNL     1      -0.015  -0.612  -2.394  0.00  0.00    +0.145 A 
ATOM      3  C   UNL     1       0.617  -1.065  -3.551  0.00  0.00    +0.108 A 
ATOM      4  C   UNL     1      -0.133  -1.204  -4.707  0.00  0.00    +0.149 A 
ATOM      5  N   UNL     1      -1.415  -0.863  -4.704  0.00  0.00    -0.219 NA
ATOM      6  C   UNL     1      -1.981  -0.428  -3.592  0.00  0.00    +0.225 A 
ATOM      7  N   UNL     1      -1.314  -0.318  -2.461  0.00  0.00    -0.219 NA
ATOM      8  N   UNL     1       0.489  -1.758  -5.810  0.00  0.00    -0.297 N 
ATOM      9  C   UNL     1       1.563  -1.167  -6.473  0.00  0.00    +0.041 A 
ATOM     10  C   UNL     1       1.474  -1.152  -7.870  0.00  0.00    +0.073 A 
ATOM     11  C   UNL     1       2.477  -0.599  -8.639  0.00  0.00    +0.163 A 
ATOM     12  C   UNL     1       3.592  -0.048  -8.012  0.00  0.00    +0.162 A 
ATOM     13  C   UNL     1       3.676  -0.062  -6.636  0.00  0.00    +0.056 A 
ATOM     14  C   UNL     1       2.663  -0.620  -5.851  0.00  0.00    -0.006 A 
ATOM     15  C   UNL     1       2.902  -0.549  -4.365  0.00  0.00    +0.139 C 
ATOM     16  N   UNL     1       1.983  -1.352  -3.582  0.00  0.00    -0.334 N 
ATOM     17  H   UNL     1       1.632  -0.695  -1.170  0.00  0.00    +0.148 HD
ATOM     18  H   UNL     1       0.158  -2.607  -6.142  0.00  0.00    +0.154 HD
ATOM     19  H   UNL     1       2.324  -2.102  -3.070  0.00  0.00    +0.147 HD
ENDROOT
BRANCH   1  21
ATOM     20  C   UNL     1      -0.019   1.526   0.010  0.00  0.00    +0.033 C 
ATOM     21  C   UNL     1       0.002  -0.004   0.002  0.00  0.00    +0.099 C 
BRANCH  21  22
ATOM     22  C   UNL     1       0.731  -0.503   1.223  0.00  0.00    -0.028 A 
ATOM     23  C   UNL     1       2.113  -0.514   1.247  0.00  0.00    +0.005 A 
ATOM     24  C   UNL     1       2.782  -0.972   2.366  0.00  0.00    +0.000 A 
ATOM     25  C   UNL     1       2.068  -1.419   3.463  0.00  0.00    +0.000 A 
ATOM     26  C   UNL     1       0.686  -1.407   3.439  0.00  0.00    +0.000 A 
ATOM     27  C   UNL     1       0.017  -0.945   2.321  0.00  0.00    +0.005 A 
ENDBRANCH  21  22
ENDBRANCH   1  21
BRANCH  12  28
ATOM     28  O   UNL     1       4.592   0.501  -8.753  0.00  0.00    -0.491 OA
ATOM     29  C   UNL     1       5.704   1.046  -8.040  0.00  0.00    +0.277 C 
ENDBRANCH  12  28
BRANCH  11  30
ATOM     30  O   UNL     1       2.378  -0.591  -9.996  0.00  0.00    -0.491 OA
ATOM     31  C   UNL     1       1.204  -1.175 -10.564  0.00  0.00    +0.277 C 
ENDBRANCH  11  30
TORSDOF 4
