REMARK  Name = CHEMBL602728
REMARK  7 active torsions:
REMARK  status: ('A' for Active; 'I' for Inactive)
REMARK    1  A    between atoms: C_10  and  N_11
REMARK    2  A    between atoms: C_12  and  C_14
REMARK    3  A    between atoms: C_17  and  N_20
REMARK    4  A    between atoms: N_20  and  C_21
REMARK    5  A    between atoms: N_20  and  C_24
REMARK    6  A    between atoms: C_21  and  C_22
REMARK    7  A    between atoms: C_24  and  C_25
REMARK                            x       y       z     vdW  Elec       q    Type
REMARK                         _______ _______ _______ _____ _____    ______ ____
ROOT
ATOM      1  N   UNL     1       4.871   0.097  -0.044  0.00  0.00    -0.281 N 
ATOM      2  C   UNL     1       6.046  -0.556   0.043  0.00  0.00    +0.248 C 
ATOM      3  O   UNL     1       6.068  -1.772   0.038  0.00  0.00    -0.270 OA
ATOM      4  H   UNL     1       4.858   1.064  -0.120  0.00  0.00    +0.155 HD
ENDROOT
BRANCH   1  14
ATOM      5  C   UNL     1       0.203   0.947  -1.765  0.00  0.00    +0.001 A 
ATOM      6  C   UNL     1       1.389   1.677  -1.795  0.00  0.00    +0.001 A 
ATOM      7  C   UNL     1       2.529   1.185  -1.234  0.00  0.00    +0.010 A 
ATOM      8  C   UNL     1       2.511  -0.075  -0.617  0.00  0.00    +0.003 A 
ATOM      9  C   UNL     1       1.306  -0.819  -0.586  0.00  0.00    -0.016 A 
ATOM     10  C   UNL     1       0.149  -0.279  -1.175  0.00  0.00    +0.008 A 
ATOM     11  C   UNL     1       1.286  -2.080   0.033  0.00  0.00    +0.008 A 
ATOM     12  C   UNL     1       2.421  -2.578   0.597  0.00  0.00    +0.002 A 
ATOM     13  C   UNL     1       3.611  -1.857   0.573  0.00  0.00    +0.024 A 
ATOM     14  C   UNL     1       3.672  -0.617  -0.025  0.00  0.00    +0.041 A 
ENDBRANCH   1  14
BRANCH   2  15
ATOM     15  C   UNL     1       7.306   0.203   0.146  0.00  0.00    +0.037 A 
ATOM     16  C   UNL     1       7.283   1.601   0.159  0.00  0.00    +0.015 A 
ATOM     17  C   UNL     1       8.460   2.307   0.255  0.00  0.00    +0.024 A 
ATOM     18  C   UNL     1       9.674   1.630   0.339  0.00  0.00    +0.030 A 
ATOM     19  C   UNL     1       9.701   0.238   0.327  0.00  0.00    +0.024 A 
ATOM     20  C   UNL     1       8.526  -0.473   0.237  0.00  0.00    +0.015 A 
BRANCH  18  21
ATOM     21  N   UNL     1      10.862   2.346   0.436  0.00  0.00    -0.328 N 
BRANCH  21  22
ATOM     22  C   UNL     1      12.140   1.636   0.525  0.00  0.00    +0.121 C 
BRANCH  22  23
ATOM     23  C   UNL     1      12.694   1.403  -0.882  0.00  0.00    +0.127 C 
ATOM     24 CL   UNL     1      14.267   0.529  -0.773  0.00  0.00    -0.124 Cl
ENDBRANCH  22  23
ENDBRANCH  21  22
BRANCH  21  25
ATOM     25  C   UNL     1      10.836   3.811   0.449  0.00  0.00    +0.121 C 
BRANCH  25  26
ATOM     26  C   UNL     1      10.718   4.306   1.892  0.00  0.00    +0.127 C 
ATOM     27 CL   UNL     1      10.685   6.109   1.908  0.00  0.00    -0.124 Cl
ENDBRANCH  25  26
ENDBRANCH  21  25
ENDBRANCH  18  21
ENDBRANCH   2  15
TORSDOF 7
