REMARK  Name = CHEMBL179633
REMARK  14 active torsions:
REMARK  status: ('A' for Active; 'I' for Inactive)
REMARK    1  A    between atoms: C_1  and  N_2
REMARK    2  A    between atoms: N_2  and  C_3
REMARK    3  A    between atoms: N_2  and  C_4
REMARK    4  A    between atoms: C_4  and  C_5
REMARK    5  A    between atoms: C_6  and  C_7
REMARK    6  A    between atoms: N_9  and  C_10
REMARK    7  A    between atoms: C_15  and  O_16
REMARK    8  A    between atoms: O_16  and  C_17
REMARK    9  A    between atoms: C_20  and  C_38
REMARK   10  A    between atoms: C_21  and  N_22
REMARK   11  A    between atoms: N_22  and  C_23
REMARK   12  A    between atoms: C_26  and  N_30
REMARK   13  A    between atoms: N_30  and  C_31
REMARK   14  A    between atoms: C_31  and  C_32
REMARK                            x       y       z     vdW  Elec       q    Type
REMARK                         _______ _______ _______ _____ _____    ______ ____
ROOT
ATOM      1  C   UNL     1      -6.871  -0.583  -7.226  0.00  0.00    +0.077 A 
ATOM      2  C   UNL     1      -6.028   0.487  -7.024  0.00  0.00    +0.039 A 
ATOM      3  C   UNL     1      -5.021   0.764  -7.959  0.00  0.00    +0.025 A 
ATOM      4  C   UNL     1      -4.875  -0.054  -9.105  0.00  0.00    +0.076 A 
ATOM      5  C   UNL     1      -5.746  -1.138  -9.290  0.00  0.00    +0.076 A 
ATOM      6  C   UNL     1      -6.725  -1.398  -8.359  0.00  0.00    +0.143 A 
ATOM      7  N   UNL     1      -3.912   0.207 -10.002  0.00  0.00    -0.253 NA
ATOM      8  C   UNL     1      -3.083   1.209  -9.860  0.00  0.00    +0.132 A 
ATOM      9  C   UNL     1      -3.155   2.071  -8.754  0.00  0.00    +0.091 A 
ATOM     10  C   UNL     1      -4.139   1.856  -7.777  0.00  0.00    +0.060 A 
ENDROOT
BRANCH   1  13
ATOM     11  C   UNL     1      -7.740  -0.459  -5.015  0.00  0.00    +0.241 C 
ATOM     12  O   UNL     1      -6.700   0.051  -4.645  0.00  0.00    -0.271 OA
ATOM     13  N   UNL     1      -7.877  -0.862  -6.294  0.00  0.00    -0.279 N 
ATOM     14  H   UNL     1      -8.672  -1.345  -6.568  0.00  0.00    +0.155 HD
BRANCH  11  16
ATOM     15  C   UNL     1      -8.715  -0.240  -2.803  0.00  0.00    -0.007 C 
ATOM     16  C   UNL     1      -8.850  -0.637  -4.065  0.00  0.00    +0.064 C 
BRANCH  15  17
ATOM     17  C   UNL     1      -9.852  -0.422  -1.831  0.00  0.00    +0.111 C 
BRANCH  17  19
ATOM     18  C   UNL     1      -8.389  -0.401   0.099  0.00  0.00    +0.104 C 
ATOM     19  N   UNL     1      -9.379  -1.175  -0.661  0.00  0.00    -0.305 NA
ATOM     20  C   UNL     1     -10.504  -1.577   0.195  0.00  0.00    +0.104 C 
ENDBRANCH  17  19
ENDBRANCH  15  17
ENDBRANCH  11  16
ENDBRANCH   1  13
BRANCH   6  21
ATOM     21  O   UNL     1      -7.562  -2.453  -8.540  0.00  0.00    -0.493 OA
ATOM     22  C   UNL     1      -7.362  -3.245  -9.713  0.00  0.00    +0.277 C 
ENDBRANCH   6  21
BRANCH  10  23
ATOM     23  N   UNL     1      -4.244   2.681  -6.676  0.00  0.00    -0.313 N 
ATOM     24  H   UNL     1      -4.052   2.334  -5.790  0.00  0.00    +0.152 HD
BRANCH  23  25
ATOM     25  C   UNL     1      -4.626   4.018  -6.837  0.00  0.00    +0.033 A 
ATOM     26  C   UNL     1      -5.524   4.368  -7.838  0.00  0.00    +0.025 A 
ATOM     27  C   UNL     1      -5.901   5.686  -7.997  0.00  0.00    +0.026 A 
ATOM     28  C   UNL     1      -5.384   6.663  -7.156  0.00  0.00    +0.046 A 
ATOM     29  C   UNL     1      -4.486   6.313  -6.154  0.00  0.00    +0.064 A 
ATOM     30  C   UNL     1      -4.113   4.993  -5.992  0.00  0.00    +0.045 A 
ATOM     31 CL   UNL     1      -3.839   7.534  -5.104  0.00  0.00    -0.082 Cl
BRANCH  28  32
ATOM     32  N   UNL     1      -5.766   8.000  -7.318  0.00  0.00    -0.339 N 
ATOM     33  H   UNL     1      -5.404   8.682  -6.731  0.00  0.00    +0.146 HD
BRANCH  32  34
ATOM     34  C   UNL     1      -6.712   8.369  -8.375  0.00  0.00    +0.138 C 
BRANCH  34  35
ATOM     35  C   UNL     1      -6.954   9.856  -8.336  0.00  0.00    -0.012 A 
ATOM     36  C   UNL     1      -7.974  10.380  -7.556  0.00  0.00    +0.008 A 
ATOM     37  C   UNL     1      -8.160  11.754  -7.551  0.00  0.00    +0.020 A 
ATOM     38  C   UNL     1      -7.329  12.549  -8.317  0.00  0.00    +0.111 A 
ATOM     39  N   UNL     1      -6.369  12.016  -9.047  0.00  0.00    -0.263 NA
ATOM     40  C   UNL     1      -6.159  10.714  -9.071  0.00  0.00    +0.115 A 
ENDBRANCH  34  35
ENDBRANCH  32  34
ENDBRANCH  28  32
ENDBRANCH  23  25
ENDBRANCH  10  23
BRANCH   9  41
ATOM     41  C   UNL     1      -2.233   3.160  -8.624  0.00  0.00    +0.103 C 
ATOM     42  N   UNL     1      -1.502   4.023  -8.521  0.00  0.00    -0.191 NA
ENDBRANCH   9  41
TORSDOF 11
