REMARK  Name = CHEMBL307209
REMARK  3 active torsions:
REMARK  status: ('A' for Active; 'I' for Inactive)
REMARK    1  A    between atoms: C_4  and  C_7
REMARK    2  A    between atoms: C_15  and  C_16
REMARK    3  A    between atoms: N_22  and  C_23
REMARK                            x       y       z     vdW  Elec       q    Type
REMARK                         _______ _______ _______ _____ _____    ______ ____
ROOT
ATOM      1  C   UNL     1       3.791  -0.740   0.126  0.00  0.00    +0.020 A 
ATOM      2  C   UNL     1       4.149  -1.506  -1.072  0.00  0.00    +0.067 A 
ATOM      3  C   UNL     1       3.444  -1.987  -2.186  0.00  0.00    +0.136 A 
ATOM      4  N   UNL     1       4.114  -2.667  -3.112  0.00  0.00    -0.220 NA
ATOM      5  C   UNL     1       5.410  -2.887  -2.989  0.00  0.00    +0.225 A 
ATOM      6  N   UNL     1       6.111  -2.456  -1.962  0.00  0.00    -0.218 NA
ATOM      7  C   UNL     1       5.529  -1.764  -0.982  0.00  0.00    +0.144 A 
ATOM      8  N   UNL     1       5.987  -1.201   0.179  0.00  0.00    -0.338 N 
ATOM      9  C   UNL     1       4.956  -0.580   0.847  0.00  0.00    +0.057 A 
ATOM     10  N   UNL     1       2.086  -1.758  -2.317  0.00  0.00    -0.299 N 
ATOM     11  H   UNL     1       1.624  -1.196  -1.676  0.00  0.00    +0.154 HD
ATOM     12  H   UNL     1       6.907  -1.231   0.485  0.00  0.00    +0.167 HD
ENDROOT
BRANCH  10  13
ATOM     13  C   UNL     1       1.379  -2.339  -3.375  0.00  0.00    +0.034 A 
ATOM     14  C   UNL     1       1.754  -3.584  -3.863  0.00  0.00    +0.023 A 
ATOM     15  C   UNL     1       1.055  -4.155  -4.907  0.00  0.00    +0.003 A 
ATOM     16  C   UNL     1      -0.019  -3.489  -5.468  0.00  0.00    +0.020 A 
ATOM     17  C   UNL     1      -0.397  -2.248  -4.985  0.00  0.00    +0.043 A 
ATOM     18  C   UNL     1       0.296  -1.674  -3.936  0.00  0.00    +0.043 A 
ATOM     19 CL   UNL     1      -1.745  -1.415  -5.693  0.00  0.00    -0.083 Cl
ENDBRANCH  10  13
BRANCH   1  23
ATOM     20  C   UNL     1      -0.065   0.716   1.160  0.00  0.00    +0.000 A 
ATOM     21  C   UNL     1       0.522  -0.280   1.920  0.00  0.00    +0.001 A 
ATOM     22  C   UNL     1       1.773  -0.757   1.589  0.00  0.00    +0.008 A 
ATOM     23  C   UNL     1       2.447  -0.233   0.486  0.00  0.00    -0.015 A 
ATOM     24  C   UNL     1       1.850   0.771  -0.277  0.00  0.00    +0.008 A 
ATOM     25  C   UNL     1       0.598   1.240   0.064  0.00  0.00    +0.001 A 
ENDBRANCH   1  23
BRANCH   9  26
ATOM     26  C   UNL     1       5.077   0.138   2.131  0.00  0.00    -0.001 A 
ATOM     27  C   UNL     1       4.478   1.389   2.294  0.00  0.00    +0.010 A 
ATOM     28  C   UNL     1       4.595   2.055   3.497  0.00  0.00    +0.001 A 
ATOM     29  C   UNL     1       5.304   1.486   4.540  0.00  0.00    +0.000 A 
ATOM     30  C   UNL     1       5.900   0.246   4.385  0.00  0.00    +0.001 A 
ATOM     31  C   UNL     1       5.786  -0.433   3.190  0.00  0.00    +0.010 A 
ENDBRANCH   9  26
TORSDOF 3
