REMARK  Name = CHEMBL510845
REMARK  7 active torsions:
REMARK  status: ('A' for Active; 'I' for Inactive)
REMARK    1  A    between atoms: C_3  and  C_8
REMARK    2  A    between atoms: C_8  and  N_9
REMARK    3  A    between atoms: C_13  and  N_18
REMARK    4  A    between atoms: C_23  and  C_25
REMARK    5  A    between atoms: C_26  and  C_27
REMARK    6  A    between atoms: C_30  and  O_34
REMARK    7  A    between atoms: O_34  and  C_35
REMARK                            x       y       z     vdW  Elec       q    Type
REMARK                         _______ _______ _______ _____ _____    ______ ____
ROOT
ATOM      1  N   UNL     1       3.262   6.401   5.099  0.00  0.00    -0.298 N 
ATOM      2  C   UNL     1       2.564   7.564   4.813  0.00  0.00    +0.141 A 
ATOM      3  C   UNL     1       2.474   8.585   5.744  0.00  0.00    +0.079 A 
ATOM      4  C   UNL     1       1.764   9.773   5.458  0.00  0.00    +0.084 A 
ATOM      5  C   UNL     1       1.747  10.728   6.483  0.00  0.00    +0.053 A 
ATOM      6  C   UNL     1       2.390  10.475   7.657  0.00  0.00    +0.065 A 
ATOM      7  S   UNL     1       3.073   8.847   7.392  0.00  0.00    -0.075 S 
ATOM      8  N   UNL     1       1.192   9.831   4.228  0.00  0.00    -0.235 NA
ATOM      9  C   UNL     1       1.302   8.843   3.378  0.00  0.00    +0.224 A 
ATOM     10  N   UNL     1       1.968   7.731   3.632  0.00  0.00    -0.219 NA
ATOM     11  H   UNL     1       3.626   6.260   5.987  0.00  0.00    +0.154 HD
ENDROOT
BRANCH   1  16
ATOM     12  N   UNL     1       3.978   2.765   1.006  0.00  0.00    -0.259 N 
ATOM     13  C   UNL     1       3.796   3.477   2.165  0.00  0.00    +0.069 A 
ATOM     14  C   UNL     1       3.660   3.118   3.503  0.00  0.00    +0.030 A 
ATOM     15  C   UNL     1       3.486   4.080   4.456  0.00  0.00    +0.025 A 
ATOM     16  C   UNL     1       3.442   5.430   4.107  0.00  0.00    +0.033 A 
ATOM     17  C   UNL     1       3.574   5.814   2.787  0.00  0.00    +0.034 A 
ATOM     18  C   UNL     1       3.754   4.837   1.801  0.00  0.00    +0.021 A 
ATOM     19  C   UNL     1       3.922   4.880   0.352  0.00  0.00    +0.143 A 
ATOM     20  N   UNL     1       4.055   3.655  -0.070  0.00  0.00    -0.178 NA
BRANCH  12  21
ATOM     21  C   UNL     1       4.081   1.306   0.912  0.00  0.00    +0.179 C 
BRANCH  21  24
ATOM     22  C   UNL     1       7.369   0.242   2.435  0.00  0.00    +0.003 A 
ATOM     23  C   UNL     1       6.045   0.620   2.304  0.00  0.00    +0.005 A 
ATOM     24  C   UNL     1       5.524   0.895   1.053  0.00  0.00    -0.023 A 
ATOM     25  C   UNL     1       6.326   0.792  -0.068  0.00  0.00    +0.043 A 
ATOM     26  C   UNL     1       7.651   0.414   0.062  0.00  0.00    +0.124 A 
ATOM     27  C   UNL     1       8.172   0.139   1.315  0.00  0.00    +0.038 A 
ATOM     28  F   UNL     1       8.436   0.313  -1.033  0.00  0.00    -0.205 F 
ENDBRANCH  21  24
ENDBRANCH  12  21
ENDBRANCH   1  16
BRANCH   6  29
ATOM     29  C   UNL     1       2.493  11.307   8.818  0.00  0.00    -0.057 C 
ATOM     30  C   UNL     1       2.577  11.990   9.769  0.00  0.00    -0.078 C 
BRANCH  30  31
ATOM     31  C   UNL     1       2.682  12.847  10.962  0.00  0.00    +0.134 C 
ATOM     32  C   UNL     1       1.272  13.201  11.497  0.00  0.00    +0.077 C 
ATOM     33  C   UNL     1       0.871  14.378  10.570  0.00  0.00    +0.194 C 
ATOM     34  C   UNL     1       2.209  15.115  10.345  0.00  0.00    +0.126 C 
ATOM     35  N   UNL     1       3.292  14.146  10.610  0.00  0.00    -0.300 NA
ATOM     36  H   UNL     1       3.898  14.473  11.348  0.00  0.00    +0.123 HD
BRANCH  33  37
ATOM     37  O   UNL     1      -0.076  15.230  11.217  0.00  0.00    -0.446 OA
BRANCH  37  38
ATOM     38  C   UNL     1      -0.957  15.874  10.428  0.00  0.00    +0.403 C 
ATOM     39  O   UNL     1      -0.922  15.717   9.223  0.00  0.00    -0.226 OA
ATOM     40  N   UNL     1      -1.878  16.694  10.974  0.00  0.00    -0.263 N 
ATOM     41  C   UNL     1      -1.936  16.904  12.429  0.00  0.00    +0.139 C 
ATOM     42  C   UNL     1      -1.958  18.413  12.698  0.00  0.00    +0.179 C 
ATOM     43  O   UNL     1      -3.002  19.014  11.928  0.00  0.00    -0.377 OA
ATOM     44  C   UNL     1      -2.831  18.888  10.514  0.00  0.00    +0.179 C 
ATOM     45  C   UNL     1      -2.850  17.408  10.132  0.00  0.00    +0.139 C 
ENDBRANCH  37  38
ENDBRANCH  33  37
ENDBRANCH  30  31
ENDBRANCH   6  29
TORSDOF 7
