REMARK  Name = CHEMBL165508
REMARK  4 active torsions:
REMARK  status: ('A' for Active; 'I' for Inactive)
REMARK    1  A    between atoms: C_3  and  N_8
REMARK    2  A    between atoms: C_12  and  N_19
REMARK    3  A    between atoms: N_19  and  C_20
REMARK    4  A    between atoms: C_20  and  C_21
REMARK                            x       y       z     vdW  Elec       q    Type
REMARK                         _______ _______ _______ _____ _____    ______ ____
ROOT
ATOM      1  N   UNL     1       3.583   2.124  -0.021  0.00  0.00    -0.299 N 
ATOM      2  C   UNL     1       4.785   1.453   0.068  0.00  0.00    +0.134 A 
ATOM      3  C   UNL     1       6.050   2.173   0.177  0.00  0.00    +0.045 A 
ATOM      4  C   UNL     1       6.137   3.567   0.199  0.00  0.00    +0.057 A 
ATOM      5  C   UNL     1       7.390   4.145   0.306  0.00  0.00    +0.120 A 
ATOM      6  N   UNL     1       8.490   3.404   0.385  0.00  0.00    -0.238 NA
ATOM      7  C   UNL     1       8.466   2.091   0.369  0.00  0.00    +0.141 A 
ATOM      8  C   UNL     1       7.244   1.413   0.264  0.00  0.00    +0.094 A 
ATOM      9  N   UNL     1       7.154   0.076   0.243  0.00  0.00    -0.234 NA
ATOM     10  C   UNL     1       5.991  -0.518   0.143  0.00  0.00    +0.224 A 
ATOM     11  N   UNL     1       4.837   0.126   0.064  0.00  0.00    -0.220 NA
ATOM     12  H   UNL     1       3.571   3.091  -0.094  0.00  0.00    +0.154 HD
ENDROOT
BRANCH   1  15
ATOM     13  C   UNL     1       1.090  -0.468   0.740  0.00  0.00    +0.003 A 
ATOM     14  C   UNL     1       2.278   0.235   0.727  0.00  0.00    +0.023 A 
ATOM     15  C   UNL     1       2.381   1.410  -0.007  0.00  0.00    +0.033 A 
ATOM     16  C   UNL     1       1.287   1.874  -0.727  0.00  0.00    +0.038 A 
ATOM     17  C   UNL     1       0.101   1.166  -0.710  0.00  0.00    +0.020 A 
ATOM     18  C   UNL     1       0.002  -0.004   0.023  0.00  0.00    +0.015 A 
ATOM     19 BR   UNL     1      -1.389   1.796  -1.688  0.00  0.00    -0.050 Br
ENDBRANCH   1  15
BRANCH   5  20
ATOM     20  N   UNL     1       7.500   5.534   0.330  0.00  0.00    -0.325 N 
ATOM     21  H   UNL     1       8.373   5.949   0.404  0.00  0.00    +0.148 HD
BRANCH  20  22
ATOM     22  C   UNL     1       6.298   6.365   0.243  0.00  0.00    +0.139 C 
BRANCH  22  23
ATOM     23  C   UNL     1       6.688   7.820   0.290  0.00  0.00    -0.012 A 
ATOM     24  C   UNL     1       6.781   8.483   1.504  0.00  0.00    +0.008 A 
ATOM     25  C   UNL     1       7.144   9.821   1.500  0.00  0.00    +0.020 A 
ATOM     26  C   UNL     1       7.400  10.445   0.293  0.00  0.00    +0.111 A 
ATOM     27  N   UNL     1       7.302   9.783  -0.843  0.00  0.00    -0.263 NA
ATOM     28  C   UNL     1       6.965   8.508  -0.876  0.00  0.00    +0.115 A 
ENDBRANCH  22  23
ENDBRANCH  20  22
ENDBRANCH   5  20
TORSDOF 4
