REMARK  Name = CHEMBL79215
REMARK  8 active torsions:
REMARK  status: ('A' for Active; 'I' for Inactive)
REMARK    1  A    between atoms: C_4  and  N_7
REMARK    2  A    between atoms: N_7  and  C_8
REMARK    3  A    between atoms: C_8  and  C_9
REMARK    4  A    between atoms: C_9  and  N_10
REMARK    5  A    between atoms: N_10  and  C_11
REMARK    6  A    between atoms: N_10  and  N_31
REMARK    7  A    between atoms: C_16  and  N_20
REMARK    8  A    between atoms: N_20  and  C_21
REMARK                            x       y       z     vdW  Elec       q    Type
REMARK                         _______ _______ _______ _____ _____    ______ ____
ROOT
ATOM      1  C   UNL     1       4.977  -4.820  -1.446  0.00  0.00    +0.090 A 
ATOM      2  C   UNL     1       4.682  -4.273  -2.653  0.00  0.00    +0.061 A 
ATOM      3  C   UNL     1       4.664  -5.079  -3.801  0.00  0.00    +0.085 A 
ATOM      4  C   UNL     1       4.966  -6.443  -3.592  0.00  0.00    +0.079 A 
ATOM      5  S   UNL     1       5.262  -6.536  -1.846  0.00  0.00    -0.067 S 
ATOM      6  C   UNL     1       4.981  -7.340  -4.641  0.00  0.00    +0.141 A 
ATOM      7  N   UNL     1       4.703  -6.888  -5.866  0.00  0.00    -0.219 NA
ATOM      8  C   UNL     1       4.422  -5.611  -6.051  0.00  0.00    +0.224 A 
ATOM      9  N   UNL     1       4.397  -4.729  -5.085  0.00  0.00    -0.235 NA
ENDROOT
BRANCH   6  10
ATOM     10  N   UNL     1       5.279  -8.678  -4.428  0.00  0.00    -0.298 N 
ATOM     11  H   UNL     1       5.405  -9.009  -3.525  0.00  0.00    +0.154 HD
BRANCH  10  12
ATOM     12  C   UNL     1       5.399  -9.551  -5.517  0.00  0.00    +0.033 A 
ATOM     13  C   UNL     1       5.892  -9.080  -6.733  0.00  0.00    +0.025 A 
ATOM     14  C   UNL     1       6.017  -9.925  -7.813  0.00  0.00    +0.028 A 
ATOM     15  C   UNL     1       5.648 -11.261  -7.697  0.00  0.00    +0.047 A 
ATOM     16  C   UNL     1       5.150 -11.740  -6.472  0.00  0.00    +0.001 A 
ATOM     17  C   UNL     1       5.033 -10.876  -5.381  0.00  0.00    +0.033 A 
ATOM     18  C   UNL     1       4.859 -13.161  -6.679  0.00  0.00    +0.027 A 
ATOM     19  C   UNL     1       5.181 -13.446  -7.951  0.00  0.00    +0.083 A 
ATOM     20  N   UNL     1       5.654 -12.325  -8.575  0.00  0.00    -0.361 N 
ATOM     21  H   UNL     1       5.950 -12.283  -9.498  0.00  0.00    +0.165 HD
ENDBRANCH  10  12
ENDBRANCH   6  10
BRANCH   1  22
ATOM     22  N   UNL     1       5.045  -4.198  -0.208  0.00  0.00    -0.232 N 
BRANCH  22  23
ATOM     23  N   UNL     1       5.257  -4.960   0.948  0.00  0.00    -0.273 N 
ATOM     24  C   UNL     1       5.228  -4.488   2.227  0.00  0.00    +0.108 A 
ATOM     25  C   UNL     1       5.475  -5.517   3.062  0.00  0.00    +0.021 A 
ATOM     26  C   UNL     1       5.663  -6.667   2.270  0.00  0.00    +0.021 A 
ATOM     27  C   UNL     1       5.519  -6.297   0.981  0.00  0.00    +0.108 A 
ENDBRANCH  22  23
BRANCH  22  28
ATOM     28  C   UNL     1       4.897  -2.744  -0.110  0.00  0.00    +0.149 C 
BRANCH  28  29
ATOM     29  C   UNL     1       3.420  -2.394   0.082  0.00  0.00    +0.122 C 
BRANCH  29  30
ATOM     30  N   UNL     1       3.271  -0.940   0.180  0.00  0.00    -0.342 N 
ATOM     31  H   UNL     1       4.052  -0.367   0.120  0.00  0.00    +0.146 HD
BRANCH  30  35
ATOM     32  C   UNL     1      -0.503   0.736   0.712  0.00  0.00    +0.000 A 
ATOM     33  C   UNL     1       0.609   1.554   0.628  0.00  0.00    +0.002 A 
ATOM     34  C   UNL     1       1.863   1.001   0.452  0.00  0.00    +0.023 A 
ATOM     35  C   UNL     1       2.005  -0.377   0.358  0.00  0.00    +0.027 A 
ATOM     36  C   UNL     1       0.886  -1.196   0.443  0.00  0.00    +0.023 A 
ATOM     37  C   UNL     1      -0.365  -0.636   0.619  0.00  0.00    +0.002 A 
ENDBRANCH  30  35
ENDBRANCH  29  30
ENDBRANCH  28  29
ENDBRANCH  22  28
ENDBRANCH   1  22
TORSDOF 8
