REMARK  Name = CHEMBL475761
REMARK  9 active torsions:
REMARK  status: ('A' for Active; 'I' for Inactive)
REMARK    1  A    between atoms: C_1  and  N_2
REMARK    2  A    between atoms: N_5  and  C_8
REMARK    3  A    between atoms: C_8  and  C_9
REMARK    4  A    between atoms: C_12  and  C_14
REMARK    5  A    between atoms: C_19  and  N_23
REMARK    6  A    between atoms: N_23  and  C_24
REMARK    7  A    between atoms: C_27  and  O_31
REMARK    8  A    between atoms: O_31  and  C_32
REMARK    9  A    between atoms: C_32  and  C_33
REMARK                            x       y       z     vdW  Elec       q    Type
REMARK                         _______ _______ _______ _____ _____    ______ ____
ROOT
ATOM      1  C   UNL     1       2.701  -4.876   4.972  0.00  0.00    +0.057 A 
ATOM      2  C   UNL     1       3.927  -5.082   4.410  0.00  0.00    +0.047 A 
ATOM      3  C   UNL     1       4.943  -5.691   5.158  0.00  0.00    +0.084 A 
ATOM      4  C   UNL     1       4.595  -6.052   6.480  0.00  0.00    +0.078 A 
ATOM      5  S   UNL     1       2.906  -5.532   6.620  0.00  0.00    -0.080 S 
ATOM      6  C   UNL     1       5.510  -6.660   7.319  0.00  0.00    +0.141 A 
ATOM      7  N   UNL     1       6.737  -6.899   6.851  0.00  0.00    -0.219 NA
ATOM      8  C   UNL     1       7.051  -6.558   5.615  0.00  0.00    +0.224 A 
ATOM      9  N   UNL     1       6.217  -5.982   4.789  0.00  0.00    -0.235 NA
ENDROOT
BRANCH   1  13
ATOM     10  C   UNL     1       0.177  -3.294   2.916  0.00  0.00    +0.120 A 
ATOM     11  C   UNL     1      -0.539  -3.456   4.046  0.00  0.00    +0.046 A 
ATOM     12  C   UNL     1       0.307  -4.076   4.986  0.00  0.00    +0.051 A 
ATOM     13  C   UNL     1       1.508  -4.261   4.370  0.00  0.00    +0.142 A 
ATOM     14  O   UNL     1       1.411  -3.786   3.113  0.00  0.00    -0.458 OA
BRANCH  10  15
ATOM     15  C   UNL     1      -0.326  -2.670   1.639  0.00  0.00    +0.158 C 
BRANCH  15  20
ATOM     16  C   UNL     1       1.181   2.672   0.671  0.00  0.00    -0.096 C 
ATOM     17  N   UNL     1       0.945   1.224   0.596  0.00  0.00    +0.379 N 
ATOM     18  C   UNL     1      -0.499   0.960   0.651  0.00  0.00    -0.064 C 
ATOM     19  C   UNL     1      -0.747  -0.547   0.554  0.00  0.00    +0.066 C 
ATOM     20  N   UNL     1      -0.065  -1.225   1.665  0.00  0.00    -0.299 NA
ATOM     21  C   UNL     1       1.379  -0.950   1.637  0.00  0.00    +0.066 C 
ATOM     22  C   UNL     1       1.609   0.560   1.726  0.00  0.00    -0.064 C 
ATOM     23  H   UNL     1       1.319   0.867  -0.271  0.00  0.00    -0.082 HD
ENDBRANCH  15  20
ENDBRANCH  10  15
ENDBRANCH   1  13
BRANCH   6  24
ATOM     24  N   UNL     1       5.163  -7.011   8.615  0.00  0.00    -0.298 N 
ATOM     25  H   UNL     1       4.246  -6.908   8.916  0.00  0.00    +0.154 HD
BRANCH  24  26
ATOM     26  C   UNL     1       6.134  -7.514   9.488  0.00  0.00    +0.034 A 
ATOM     27  C   UNL     1       5.795  -8.490  10.417  0.00  0.00    +0.027 A 
ATOM     28  C   UNL     1       6.754  -8.985  11.278  0.00  0.00    +0.049 A 
ATOM     29  C   UNL     1       8.055  -8.509  11.217  0.00  0.00    +0.139 A 
ATOM     30  C   UNL     1       8.395  -7.533  10.291  0.00  0.00    +0.084 A 
ATOM     31  C   UNL     1       7.438  -7.041   9.423  0.00  0.00    +0.047 A 
ATOM     32 CL   UNL     1      10.023  -6.936  10.216  0.00  0.00    -0.080 Cl
BRANCH  29  33
ATOM     33  O   UNL     1       8.998  -8.998  12.067  0.00  0.00    -0.486 OA
BRANCH  33  34
ATOM     34  C   UNL     1       8.579 -10.000  12.995  0.00  0.00    +0.264 C 
BRANCH  34  35
ATOM     35  C   UNL     1       9.750 -10.417  13.847  0.00  0.00    -0.008 A 
ATOM     36  C   UNL     1      10.565 -11.457  13.439  0.00  0.00    +0.007 A 
ATOM     37  C   UNL     1      11.639 -11.841  14.219  0.00  0.00    +0.003 A 
ATOM     38  C   UNL     1      11.900 -11.186  15.409  0.00  0.00    +0.038 A 
ATOM     39  C   UNL     1      11.084 -10.145  15.818  0.00  0.00    +0.124 A 
ATOM     40  C   UNL     1      10.012  -9.757  15.032  0.00  0.00    +0.045 A 
ATOM     41  F   UNL     1      11.338  -9.505  16.980  0.00  0.00    -0.205 F 
ENDBRANCH  34  35
ENDBRANCH  33  34
ENDBRANCH  29  33
ENDBRANCH  24  26
ENDBRANCH   6  24
TORSDOF 8
