REMARK  Name = CHEMBL205284
REMARK  6 active torsions:
REMARK  status: ('A' for Active; 'I' for Inactive)
REMARK    1  A    between atoms: C_3  and  C_8
REMARK    2  A    between atoms: C_8  and  O_9
REMARK    3  A    between atoms: O_9  and  C_10
REMARK    4  A    between atoms: C_13  and  N_17
REMARK    5  A    between atoms: C_19  and  C_24
REMARK    6  A    between atoms: C_25  and  C_26
REMARK                            x       y       z     vdW  Elec       q    Type
REMARK                         _______ _______ _______ _____ _____    ______ ____
ROOT
ATOM      1  C   UNL     1       5.262   3.100   1.486  0.00  0.00    +0.139 A 
ATOM      2  C   UNL     1       6.059   3.403   0.393  0.00  0.00    +0.049 A 
ATOM      3  C   UNL     1       7.233   4.109   0.568  0.00  0.00    +0.027 A 
ATOM      4  C   UNL     1       7.616   4.516   1.839  0.00  0.00    +0.034 A 
ATOM      5  C   UNL     1       6.817   4.213   2.934  0.00  0.00    +0.047 A 
ATOM      6  C   UNL     1       5.640   3.511   2.757  0.00  0.00    +0.084 A 
ATOM      7 CL   UNL     1       4.638   3.137   4.125  0.00  0.00    -0.080 Cl
ENDROOT
BRANCH   4   8
ATOM      8  N   UNL     1       8.806   5.231   2.017  0.00  0.00    -0.298 N 
ATOM      9  C   UNL     1       9.245   6.099   1.033  0.00  0.00    +0.142 A 
ATOM     10  C   UNL     1      10.498   6.737   1.145  0.00  0.00    +0.083 A 
ATOM     11  C   UNL     1      10.887   7.603   0.119  0.00  0.00    +0.132 A 
ATOM     12  N   UNL     1      10.073   7.789  -0.907  0.00  0.00    -0.242 NA
ATOM     13  C   UNL     1       8.909   7.174  -0.974  0.00  0.00    +0.223 A 
ATOM     14  N   UNL     1       8.497   6.344  -0.037  0.00  0.00    -0.219 NA
ATOM     15  H   UNL     1       9.323   5.118   2.830  0.00  0.00    +0.154 HD
BRANCH  10  16
ATOM     16  C   UNL     1      11.346   6.505   2.275  0.00  0.00    -0.055 C 
ATOM     17  C   UNL     1      12.041   6.315   3.202  0.00  0.00    -0.039 C 
BRANCH  17  18
ATOM     18  C   UNL     1      12.889   6.083   4.332  0.00  0.00    +0.135 A 
ATOM     19  C   UNL     1      12.608   5.230   5.422  0.00  0.00    +0.057 A 
ATOM     20  C   UNL     1      13.654   5.287   6.273  0.00  0.00    +0.106 A 
ATOM     21  N   UNL     1      14.568   6.138   5.756  0.00  0.00    -0.284 N 
ATOM     22  H   UNL     1      15.420   6.369   6.158  0.00  0.00    +0.188 HD
ATOM     23  N   UNL     1      14.075   6.623   4.538  0.00  0.00    -0.165 NA
ENDBRANCH  17  18
ENDBRANCH  10  16
ENDBRANCH   4   8
BRANCH   1  24
ATOM     24  O   UNL     1       4.106   2.404   1.313  0.00  0.00    -0.486 OA
BRANCH  24  25
ATOM     25  C   UNL     1       3.779   2.012  -0.022  0.00  0.00    +0.264 C 
BRANCH  25  28
ATOM     26  C   UNL     1       0.084   1.248  -0.169  0.00  0.00    +0.003 A 
ATOM     27  C   UNL     1       1.281   1.939  -0.172  0.00  0.00    +0.007 A 
ATOM     28  C   UNL     1       2.474   1.258  -0.018  0.00  0.00    -0.008 A 
ATOM     29  C   UNL     1       2.471  -0.116   0.139  0.00  0.00    +0.045 A 
ATOM     30  C   UNL     1       1.273  -0.809   0.142  0.00  0.00    +0.124 A 
ATOM     31  C   UNL     1       0.078  -0.125  -0.012  0.00  0.00    +0.038 A 
ATOM     32  F   UNL     1       1.269  -2.151   0.295  0.00  0.00    -0.205 F 
ENDBRANCH  25  28
ENDBRANCH  24  25
ENDBRANCH   1  24
TORSDOF 6
