REMARK  Name = CHEMBL510597
REMARK  8 active torsions:
REMARK  status: ('A' for Active; 'I' for Inactive)
REMARK    1  A    between atoms: C_2  and  C_3
REMARK    2  A    between atoms: C_3  and  C_5
REMARK    3  A    between atoms: C_5  and  C_6
REMARK    4  A    between atoms: C_5  and  C_15
REMARK    5  A    between atoms: C_6  and  C_7
REMARK    6  A    between atoms: C_7  and  C_8
REMARK    7  A    between atoms: C_8  and  N_9
REMARK    8  A    between atoms: N_25  and  C_26
REMARK                            x       y       z     vdW  Elec       q    Type
REMARK                         _______ _______ _______ _____ _____    ______ ____
ROOT
ATOM      1  C   UNL     1      -1.688  -3.116  -1.394  0.00  0.00    +0.053 A 
ATOM      2  C   UNL     1      -2.123  -2.302  -2.401  0.00  0.00    +0.037 A 
ATOM      3  C   UNL     1      -1.825  -2.655  -3.722  0.00  0.00    +0.044 A 
ATOM      4  C   UNL     1      -1.084  -3.841  -3.956  0.00  0.00    +0.094 A 
ATOM      5  C   UNL     1      -0.684  -4.608  -2.853  0.00  0.00    +0.139 A 
ATOM      6  N   UNL     1      -0.994  -4.217  -1.638  0.00  0.00    -0.257 NA
ATOM      7  N   UNL     1      -0.796  -4.180  -5.219  0.00  0.00    -0.234 NA
ATOM      8  C   UNL     1      -1.194  -3.425  -6.216  0.00  0.00    +0.224 A 
ATOM      9  N   UNL     1      -1.886  -2.310  -6.046  0.00  0.00    -0.220 NA
ATOM     10  C   UNL     1      -2.227  -1.882  -4.838  0.00  0.00    +0.134 A 
ATOM     11  N   UNL     1      -2.949  -0.719  -4.673  0.00  0.00    -0.299 N 
ATOM     12  H   UNL     1      -3.117  -0.374  -3.781  0.00  0.00    +0.154 HD
ENDROOT
BRANCH  11  13
ATOM     13  C   UNL     1      -3.440  -0.037  -5.790  0.00  0.00    +0.033 A 
ATOM     14  C   UNL     1      -3.856  -0.744  -6.910  0.00  0.00    +0.023 A 
ATOM     15  C   UNL     1      -4.340  -0.068  -8.012  0.00  0.00    +0.003 A 
ATOM     16  C   UNL     1      -4.411   1.313  -8.002  0.00  0.00    +0.015 A 
ATOM     17  C   UNL     1      -3.998   2.022  -6.887  0.00  0.00    +0.020 A 
ATOM     18  C   UNL     1      -3.518   1.350  -5.779  0.00  0.00    +0.038 A 
ATOM     19 BR   UNL     1      -4.096   3.910  -6.878  0.00  0.00    -0.050 Br
ENDBRANCH  11  13
BRANCH   1  20
ATOM     20  C   UNL     1      -2.002  -2.749   0.033  0.00  0.00    +0.108 C 
BRANCH  20  21
ATOM     21  C   UNL     1      -1.978  -1.249   0.183  0.00  0.00    +0.164 C 
ATOM     22  O   UNL     1      -3.009  -0.615   0.098  0.00  0.00    -0.292 OA
BRANCH  21  24
ATOM     23  C   UNL     1      -0.691   0.768   0.563  0.00  0.00    +0.012 C 
ATOM     24  C   UNL     1      -0.713  -0.559   0.431  0.00  0.00    +0.039 C 
ENDBRANCH  21  24
ENDBRANCH  20  21
BRANCH  20  25
ATOM     25  C   UNL     1      -3.390  -3.276   0.402  0.00  0.00    +0.016 C 
BRANCH  25  26
ATOM     26  C   UNL     1      -3.658  -3.013   1.886  0.00  0.00    -0.018 C 
BRANCH  26  27
ATOM     27  C   UNL     1      -5.046  -3.540   2.255  0.00  0.00    -0.079 C 
BRANCH  27  28
ATOM     28  N   UNL     1      -5.303  -3.287   3.679  0.00  0.00    +0.383 N 
ATOM     29  C   UNL     1      -4.362  -4.069   4.493  0.00  0.00    -0.050 C 
ATOM     30  C   UNL     1      -4.632  -3.804   5.976  0.00  0.00    +0.141 C 
ATOM     31  O   UNL     1      -5.990  -4.139   6.276  0.00  0.00    -0.383 OA
ATOM     32  C   UNL     1      -6.945  -3.420   5.490  0.00  0.00    +0.141 C 
ATOM     33  C   UNL     1      -6.679  -3.684   4.006  0.00  0.00    -0.050 C 
ATOM     34  H   UNL     1      -5.181  -2.305   3.873  0.00  0.00    -0.082 HD
ENDBRANCH  27  28
ENDBRANCH  26  27
ENDBRANCH  25  26
ENDBRANCH  20  25
ENDBRANCH   1  20
TORSDOF 8
