REMARK  Name = CHEMBL53711
REMARK  3 active torsions:
REMARK  status: ('A' for Active; 'I' for Inactive)
REMARK    1  A    between atoms: C_1  and  N_2
REMARK    2  A    between atoms: N_2  and  C_3
REMARK    3  A    between atoms: N_14  and  C_15
REMARK                            x       y       z     vdW  Elec       q    Type
REMARK                         _______ _______ _______ _____ _____    ______ ____
ROOT
ATOM      1  C   UNL     1      -0.855   1.529  -0.112  0.00  0.00    +0.130 C 
ATOM      2  N   UNL     1      -0.866   0.064  -0.103  0.00  0.00    -0.321 N 
ATOM      3  C   UNL     1      -1.073  -0.660   1.153  0.00  0.00    +0.130 C 
ATOM      4  C   UNL     1      -0.681  -0.641  -1.290  0.00  0.00    +0.122 A 
ATOM      5  C   UNL     1      -0.378   0.053  -2.450  0.00  0.00    +0.057 A 
ATOM      6  C   UNL     1      -0.195  -0.674  -3.628  0.00  0.00    +0.045 A 
ATOM      7  C   UNL     1      -0.328  -2.086  -3.587  0.00  0.00    +0.094 A 
ATOM      8  C   UNL     1      -0.637  -2.696  -2.365  0.00  0.00    +0.141 A 
ATOM      9  N   UNL     1      -0.793  -1.964  -1.285  0.00  0.00    -0.238 NA
ATOM     10  N   UNL     1      -0.151  -2.777  -4.721  0.00  0.00    -0.234 NA
ATOM     11  C   UNL     1       0.137  -2.167  -5.844  0.00  0.00    +0.224 A 
ATOM     12  N   UNL     1       0.277  -0.855  -5.956  0.00  0.00    -0.220 NA
ATOM     13  C   UNL     1       0.127  -0.052  -4.909  0.00  0.00    +0.134 A 
ATOM     14  N   UNL     1       0.272   1.315  -5.026  0.00  0.00    -0.299 N 
ATOM     15  H   UNL     1       0.242   1.875  -4.236  0.00  0.00    +0.154 HD
ENDROOT
BRANCH  14  16
ATOM     16  C   UNL     1       0.462   1.891  -6.285  0.00  0.00    +0.033 A 
ATOM     17  C   UNL     1      -0.132   1.326  -7.407  0.00  0.00    +0.023 A 
ATOM     18  C   UNL     1       0.057   1.899  -8.649  0.00  0.00    +0.003 A 
ATOM     19  C   UNL     1       0.838   3.033  -8.778  0.00  0.00    +0.015 A 
ATOM     20  C   UNL     1       1.431   3.599  -7.664  0.00  0.00    +0.020 A 
ATOM     21  C   UNL     1       1.241   3.034  -6.417  0.00  0.00    +0.038 A 
ATOM     22 BR   UNL     1       2.497   5.150  -7.846  0.00  0.00    -0.050 Br
ENDBRANCH  14  16
TORSDOF 1
