REMARK  Name = CHEMBL251125
REMARK  9 active torsions:
REMARK  status: ('A' for Active; 'I' for Inactive)
REMARK    1  A    between atoms: C_1  and  C_2
REMARK    2  A    between atoms: C_2  and  O_3
REMARK    3  A    between atoms: O_3  and  C_4
REMARK    4  A    between atoms: C_9  and  O_10
REMARK    5  A    between atoms: O_10  and  C_11
REMARK    6  A    between atoms: C_11  and  C_12
REMARK    7  A    between atoms: C_16  and  C_17
REMARK    8  A    between atoms: C_18  and  C_19
REMARK    9  A    between atoms: C_24  and  C_25
REMARK                            x       y       z     vdW  Elec       q    Type
REMARK                         _______ _______ _______ _____ _____    ______ ____
ROOT
ATOM      1  C   UNL     1       1.563  -0.074  -4.528  0.00  0.00    +0.163 A 
ATOM      2  C   UNL     1       2.420  -1.016  -4.030  0.00  0.00    +0.062 A 
ATOM      3  C   UNL     1       2.886  -2.035  -4.863  0.00  0.00    +0.038 A 
ATOM      4  C   UNL     1       2.472  -2.091  -6.218  0.00  0.00    +0.079 A 
ATOM      5  C   UNL     1       1.594  -1.116  -6.708  0.00  0.00    +0.077 A 
ATOM      6  C   UNL     1       1.144  -0.124  -5.865  0.00  0.00    +0.164 A 
ATOM      7  N   UNL     1       2.938  -3.083  -6.992  0.00  0.00    -0.235 NA
ATOM      8  C   UNL     1       3.759  -3.986  -6.514  0.00  0.00    +0.223 A 
ATOM      9  N   UNL     1       4.189  -4.002  -5.266  0.00  0.00    -0.226 NA
ATOM     10  C   UNL     1       3.805  -3.072  -4.389  0.00  0.00    +0.125 A 
ENDROOT
BRANCH  10  11
ATOM     11  C   UNL     1       4.271  -3.089  -3.035  0.00  0.00    -0.040 C 
ATOM     12  C   UNL     1       4.654  -3.103  -1.925  0.00  0.00    -0.056 C 
BRANCH  12  13
ATOM     13  C   UNL     1       5.120  -3.120  -0.571  0.00  0.00    +0.070 A 
ATOM     14  C   UNL     1       6.002  -4.063   0.001  0.00  0.00    +0.151 A 
ATOM     15  N   UNL     1       6.190  -3.747   1.252  0.00  0.00    -0.181 NA
ATOM     16  H   UNL     1       5.417  -2.155   2.418  0.00  0.00    +0.189 HD
ATOM     17  N   UNL     1       5.451  -2.598   1.555  0.00  0.00    -0.276 N 
ATOM     18  C   UNL     1       4.794  -2.205   0.430  0.00  0.00    +0.081 A 
BRANCH  18  19
ATOM     19  C   UNL     1       3.904  -1.035   0.296  0.00  0.00    +0.001 A 
ATOM     20  C   UNL     1       4.237   0.004  -0.577  0.00  0.00    +0.013 A 
ATOM     21  C   UNL     1       3.402   1.093  -0.698  0.00  0.00    +0.039 A 
ATOM     22  C   UNL     1       2.233   1.160   0.045  0.00  0.00    +0.123 A 
ATOM     23  C   UNL     1       1.897   0.133   0.912  0.00  0.00    +0.039 A 
ATOM     24  C   UNL     1       2.721  -0.965   1.037  0.00  0.00    +0.013 A 
ATOM     25  F   UNL     1       1.418   2.231  -0.078  0.00  0.00    -0.205 F 
ENDBRANCH  18  19
ENDBRANCH  12  13
ENDBRANCH  10  11
BRANCH   1  26
ATOM     26  O   UNL     1       1.109   0.918  -3.717  0.00  0.00    -0.489 OA
BRANCH  26  28
ATOM     27  C   UNL     1      -0.222   1.789  -1.898  0.00  0.00    +0.048 C 
ATOM     28  C   UNL     1       0.149   0.555  -2.723  0.00  0.00    +0.226 C 
ENDBRANCH  26  28
ENDBRANCH   1  26
BRANCH   6  29
ATOM     29  O   UNL     1       0.287   0.819  -6.335  0.00  0.00    -0.489 OA
BRANCH  29  30
ATOM     30  C   UNL     1      -0.104   0.715  -7.706  0.00  0.00    +0.226 C 
ATOM     31  C   UNL     1      -1.063   1.856  -8.051  0.00  0.00    +0.048 C 
ENDBRANCH  29  30
ENDBRANCH   6  29
TORSDOF 7
