REMARK  Name = CHEMBL566350
REMARK  10 active torsions:
REMARK  status: ('A' for Active; 'I' for Inactive)
REMARK    1  A    between atoms: C_1  and  C_2
REMARK    2  A    between atoms: C_2  and  C_3
REMARK    3  A    between atoms: C_9  and  N_10
REMARK    4  A    between atoms: N_10  and  C_11
REMARK    5  A    between atoms: N_19  and  C_20
REMARK    6  A    between atoms: C_20  and  C_21
REMARK    7  A    between atoms: C_30  and  O_32
REMARK    8  A    between atoms: O_32  and  C_33
REMARK    9  A    between atoms: C_33  and  C_34
REMARK   10  A    between atoms: C_34  and  N_35
REMARK                            x       y       z     vdW  Elec       q    Type
REMARK                         _______ _______ _______ _____ _____    ______ ____
ROOT
ATOM      1  C   UNL     1      -1.490   0.210  -0.407  0.00  0.00    +0.003 C 
ATOM      2  C   UNL     1      -1.894  -0.433  -1.492  0.00  0.00    +0.047 C 
ATOM      3  C   UNL     1      -3.390  -0.680  -1.306  0.00  0.00    +0.258 C 
ATOM      4  N   UNL     1      -3.597  -2.077  -1.682  0.00  0.00    -0.241 NA
ATOM      5  C   UNL     1      -2.814  -2.626  -2.562  0.00  0.00    +0.220 C 
ATOM      6  N   UNL     1      -1.776  -2.054  -3.176  0.00  0.00    -0.219 NA
ATOM      7  C   UNL     1      -1.227  -0.927  -2.704  0.00  0.00    +0.152 C 
ATOM      8  N   UNL     1      -3.647  -0.375   0.093  0.00  0.00    -0.237 NA
ATOM      9  C   UNL     1      -2.574   0.176   0.592  0.00  0.00    +0.129 C 
ATOM     10  N   UNL     1      -2.469   0.667   1.883  0.00  0.00    -0.236 N 
ATOM     11  C   UNL     1      -3.521   0.589   2.722  0.00  0.00    +0.406 C 
ATOM     12  O   UNL     1      -4.562   0.088   2.345  0.00  0.00    -0.226 OA
ATOM     13  H   UNL     1      -1.638   1.068   2.184  0.00  0.00    +0.160 HD
ENDROOT
BRANCH   1  15
ATOM     14  C   UNL     1      -0.244   2.348  -0.571  0.00  0.00    +0.009 C 
ATOM     15  C   UNL     1      -0.143   0.861  -0.222  0.00  0.00    +0.036 C 
ENDBRANCH   1  15
BRANCH   7  16
ATOM     16  N   UNL     1      -0.155  -0.301  -3.290  0.00  0.00    -0.196 NA
BRANCH  16  17
ATOM     17  C   UNL     1       0.238  -0.652  -4.586  0.00  0.00    +0.056 A 
ATOM     18  C   UNL     1       1.563  -0.469  -4.984  0.00  0.00    +0.027 A 
ATOM     19  C   UNL     1       1.966  -0.805  -6.244  0.00  0.00    +0.030 A 
ATOM     20  C   UNL     1       1.053  -1.339  -7.150  0.00  0.00    +0.069 A 
ATOM     21  C   UNL     1      -0.286  -1.529  -6.759  0.00  0.00    +0.022 A 
ATOM     22  C   UNL     1      -0.686  -1.185  -5.463  0.00  0.00    +0.036 A 
ATOM     23  C   UNL     1      -0.975  -2.094  -7.915  0.00  0.00    +0.143 A 
ATOM     24  N   UNL     1      -0.105  -2.215  -8.877  0.00  0.00    -0.178 NA
ATOM     25  N   UNL     1       1.148  -1.764  -8.451  0.00  0.00    -0.259 N 
BRANCH  25  26
ATOM     26  C   UNL     1       2.367  -1.748  -9.264  0.00  0.00    +0.179 C 
BRANCH  26  27
ATOM     27  C   UNL     1       3.103  -3.052  -9.091  0.00  0.00    -0.026 A 
ATOM     28  C   UNL     1       4.044  -3.187  -8.088  0.00  0.00    +0.005 A 
ATOM     29  C   UNL     1       4.719  -4.383  -7.930  0.00  0.00    +0.000 A 
ATOM     30  C   UNL     1       4.452  -5.444  -8.775  0.00  0.00    +0.000 A 
ATOM     31  C   UNL     1       3.510  -5.309  -9.778  0.00  0.00    +0.000 A 
ATOM     32  C   UNL     1       2.833  -4.114  -9.933  0.00  0.00    +0.005 A 
ENDBRANCH  26  27
ENDBRANCH  25  26
ENDBRANCH  16  17
ENDBRANCH   7  16
BRANCH  11  33
ATOM     33  O   UNL     1      -3.419   1.066   3.977  0.00  0.00    -0.452 OA
BRANCH  33  34
ATOM     34  C   UNL     1      -4.574   0.950   4.811  0.00  0.00    +0.215 C 
BRANCH  34  35
ATOM     35  C   UNL     1      -4.270   1.541   6.188  0.00  0.00    -0.037 C 
BRANCH  35  36
ATOM     36  N   UNL     1      -3.985   2.976   6.053  0.00  0.00    +0.382 N 
ATOM     37  C   UNL     1      -3.550   3.512   7.348  0.00  0.00    -0.079 C 
ATOM     38  C   UNL     1      -3.175   4.987   7.195  0.00  0.00    -0.019 C 
ATOM     39  C   UNL     1      -4.395   5.770   6.701  0.00  0.00    -0.004 C 
ATOM     40  C   UNL     1      -4.886   5.156   5.387  0.00  0.00    -0.019 C 
ATOM     41  C   UNL     1      -5.197   3.674   5.607  0.00  0.00    -0.079 C 
ATOM     42  H   UNL     1      -3.252   3.110   5.372  0.00  0.00    -0.082 HD
ENDBRANCH  35  36
ENDBRANCH  34  35
ENDBRANCH  33  34
ENDBRANCH  11  33
TORSDOF 9
