REMARK  Name = CHEMBL583403
REMARK  9 active torsions:
REMARK  status: ('A' for Active; 'I' for Inactive)
REMARK    1  A    between atoms: C_1  and  C_2
REMARK    2  A    between atoms: C_2  and  C_3
REMARK    3  A    between atoms: C_9  and  N_10
REMARK    4  A    between atoms: N_10  and  C_11
REMARK    5  A    between atoms: N_19  and  C_20
REMARK    6  A    between atoms: C_20  and  C_21
REMARK    7  A    between atoms: C_31  and  O_33
REMARK    8  A    between atoms: O_33  and  C_34
REMARK    9  A    between atoms: C_34  and  C_35
REMARK                            x       y       z     vdW  Elec       q    Type
REMARK                         _______ _______ _______ _____ _____    ______ ____
ROOT
ATOM      1  C   UNL     1       0.507   0.422   1.226  0.00  0.00    +0.003 C 
ATOM      2  C   UNL     1       0.117  -0.233   2.309  0.00  0.00    +0.047 C 
ATOM      3  C   UNL     1       1.393  -0.695   3.008  0.00  0.00    +0.258 C 
ATOM      4  N   UNL     1       1.197  -0.368   4.420  0.00  0.00    -0.241 NA
ATOM      5  C   UNL     1      -0.005  -0.352   4.911  0.00  0.00    +0.220 C 
ATOM      6  N   UNL     1      -1.143  -0.581   4.251  0.00  0.00    -0.219 NA
ATOM      7  C   UNL     1      -1.188  -0.540   2.912  0.00  0.00    +0.152 C 
ATOM      8  N   UNL     1       2.464   0.037   2.351  0.00  0.00    -0.237 NA
ATOM      9  C   UNL     1       1.965   0.626   1.299  0.00  0.00    +0.129 C 
ATOM     10  N   UNL     1       2.705   1.350   0.378  0.00  0.00    -0.236 N 
ATOM     11  C   UNL     1       4.037   1.478   0.535  0.00  0.00    +0.406 C 
ATOM     12  O   UNL     1       4.590   0.959   1.484  0.00  0.00    -0.226 OA
ATOM     13  H   UNL     1       2.264   1.764  -0.381  0.00  0.00    +0.160 HD
ENDROOT
BRANCH   1  15
ATOM     14  C   UNL     1      -0.803   2.332   0.339  0.00  0.00    +0.009 C 
ATOM     15  C   UNL     1      -0.390   0.877   0.104  0.00  0.00    +0.036 C 
ENDBRANCH   1  15
BRANCH   7  16
ATOM     16  N   UNL     1      -2.329  -0.759   2.183  0.00  0.00    -0.196 NA
BRANCH  16  17
ATOM     17  C   UNL     1      -3.578  -0.731   2.814  0.00  0.00    +0.056 A 
ATOM     18  C   UNL     1      -4.646  -1.447   2.271  0.00  0.00    +0.027 A 
ATOM     19  C   UNL     1      -5.872  -1.432   2.870  0.00  0.00    +0.030 A 
ATOM     20  C   UNL     1      -6.071  -0.698   4.037  0.00  0.00    +0.069 A 
ATOM     21  C   UNL     1      -5.000   0.028   4.593  0.00  0.00    +0.022 A 
ATOM     22  C   UNL     1      -3.746   0.000   3.973  0.00  0.00    +0.036 A 
ATOM     23  C   UNL     1      -5.524   0.678   5.791  0.00  0.00    +0.143 A 
ATOM     24  N   UNL     1      -6.779   0.352   5.905  0.00  0.00    -0.178 NA
ATOM     25  N   UNL     1      -7.155  -0.489   4.852  0.00  0.00    -0.259 N 
BRANCH  25  26
ATOM     26  C   UNL     1      -8.491  -1.056   4.652  0.00  0.00    +0.179 C 
BRANCH  26  27
ATOM     27  C   UNL     1      -8.584  -2.384   5.358  0.00  0.00    -0.023 A 
ATOM     28  C   UNL     1      -8.238  -3.546   4.694  0.00  0.00    +0.005 A 
ATOM     29  C   UNL     1      -8.323  -4.765   5.341  0.00  0.00    +0.003 A 
ATOM     30  C   UNL     1      -8.754  -4.823   6.652  0.00  0.00    +0.038 A 
ATOM     31  C   UNL     1      -9.101  -3.660   7.319  0.00  0.00    +0.124 A 
ATOM     32  C   UNL     1      -9.010  -2.439   6.671  0.00  0.00    +0.043 A 
ATOM     33  F   UNL     1      -9.524  -3.716   8.601  0.00  0.00    -0.205 F 
ENDBRANCH  26  27
ENDBRANCH  25  26
ENDBRANCH  16  17
ENDBRANCH   7  16
BRANCH  11  34
ATOM     34  O   UNL     1       4.756   2.180  -0.360  0.00  0.00    -0.448 OA
BRANCH  34  35
ATOM     35  C   UNL     1       6.164   2.275  -0.131  0.00  0.00    +0.254 C 
BRANCH  35  36
ATOM     36  C   UNL     1       6.807   3.105  -1.244  0.00  0.00    +0.117 C 
ATOM     37  C   UNL     1       8.328   3.105  -1.068  0.00  0.00    +0.181 C 
ATOM     38  O   UNL     1       8.918   3.943  -2.066  0.00  0.00    -0.377 OA
ATOM     39  C   UNL     1       8.458   5.296  -2.026  0.00  0.00    +0.175 C 
ATOM     40  C   UNL     1       6.939   5.319  -2.212  0.00  0.00    +0.109 C 
ATOM     41  N   UNL     1       6.310   4.487  -1.175  0.00  0.00    -0.306 NA
ATOM     42  H   UNL     1       5.304   4.514  -1.250  0.00  0.00    +0.122 HD
ENDBRANCH  35  36
ENDBRANCH  34  35
ENDBRANCH  11  34
TORSDOF 8
