REMARK  Name = CHEMBL290389
REMARK  8 active torsions:
REMARK  status: ('A' for Active; 'I' for Inactive)
REMARK    1  A    between atoms: C_1  and  O_2
REMARK    2  A    between atoms: O_2  and  C_3
REMARK    3  A    between atoms: C_5  and  C_20
REMARK    4  A    between atoms: C_7  and  S_10
REMARK    5  A    between atoms: C_8  and  O_9
REMARK    6  A    between atoms: S_10  and  C_11
REMARK    7  A    between atoms: C_21  and  C_22
REMARK    8  A    between atoms: C_21  and  C_24
REMARK                            x       y       z     vdW  Elec       q    Type
REMARK                         _______ _______ _______ _____ _____    ______ ____
ROOT
ATOM      1  C   UNL     1       0.926  -0.721   0.943  0.00  0.00    +0.163 A 
ATOM      2  C   UNL     1       1.353   0.088   1.978  0.00  0.00    +0.057 A 
ATOM      3  C   UNL     1       1.792  -0.486   3.180  0.00  0.00    -0.019 A 
ATOM      4  C   UNL     1       1.794  -1.880   3.327  0.00  0.00    +0.027 A 
ATOM      5  C   UNL     1       1.364  -2.683   2.286  0.00  0.00    +0.060 A 
ATOM      6  C   UNL     1       0.923  -2.106   1.094  0.00  0.00    +0.173 A 
ENDROOT
BRANCH   1   8
ATOM      7  C   UNL     1       0.530   1.261  -0.309  0.00  0.00    +0.277 C 
ATOM      8  O   UNL     1       0.501  -0.165  -0.223  0.00  0.00    -0.491 OA
ENDBRANCH   1   8
BRANCH   6   9
ATOM      9  O   UNL     1       0.496  -2.898   0.076  0.00  0.00    -0.503 OA
ATOM     10  H   UNL     1       1.196  -3.163  -0.536  0.00  0.00    +0.292 HD
ENDBRANCH   6   9
BRANCH   3  11
ATOM     11  C   UNL     1       2.246   0.369   4.279  0.00  0.00    +0.032 C 
ATOM     12  C   UNL     1       2.086  -0.043   5.584  0.00  0.00    +0.114 C 
BRANCH  12  13
ATOM     13  C   UNL     1       2.684   0.735   6.680  0.00  0.00    +0.252 C 
ATOM     14  O   UNL     1       3.239   1.791   6.443  0.00  0.00    -0.270 OA
ATOM     15  N   UNL     1       2.616   0.278   7.946  0.00  0.00    -0.325 N 
ATOM     16  H   UNL     1       2.238  -0.597   8.126  0.00  0.00    +0.145 HD
ATOM     17  H   UNL     1       2.946   0.824   8.677  0.00  0.00    +0.145 HD
ENDBRANCH  12  13
BRANCH  12  18
ATOM     18  C   UNL     1       1.337  -1.229   5.873  0.00  0.00    +0.104 C 
ATOM     19  N   UNL     1       0.742  -2.169   6.103  0.00  0.00    -0.191 NA
ENDBRANCH  12  18
ENDBRANCH   3  11
BRANCH   5  20
ATOM     20  S   UNL     1       1.366  -4.436   2.468  0.00  0.00    -0.059 S 
BRANCH  20  21
ATOM     21  C   UNL     1      -0.329  -4.839   2.730  0.00  0.00    +0.140 A 
ATOM     22  N   UNL     1      -1.380  -4.050   2.693  0.00  0.00    -0.232 NA
ATOM     23  C   UNL     1      -2.633  -4.501   2.915  0.00  0.00    +0.079 A 
ATOM     24  C   UNL     1      -3.840  -3.764   2.905  0.00  0.00    +0.029 A 
ATOM     25  C   UNL     1      -5.039  -4.380   3.154  0.00  0.00    +0.002 A 
ATOM     26  C   UNL     1      -5.113  -5.739   3.423  0.00  0.00    +0.001 A 
ATOM     27  C   UNL     1      -3.952  -6.491   3.441  0.00  0.00    +0.017 A 
ATOM     28  C   UNL     1      -2.747  -5.882   3.193  0.00  0.00    +0.040 A 
ATOM     29  S   UNL     1      -1.058  -6.427   3.107  0.00  0.00    -0.061 S 
ENDBRANCH  20  21
ENDBRANCH   5  20
TORSDOF 7
