REMARK  Name = CHEMBL312818
REMARK  8 active torsions:
REMARK  status: ('A' for Active; 'I' for Inactive)
REMARK    1  A    between atoms: C_4  and  C_7
REMARK    2  A    between atoms: C_7  and  C_8
REMARK    3  A    between atoms: C_8  and  C_9
REMARK    4  A    between atoms: C_9  and  N_10
REMARK    5  A    between atoms: N_10  and  C_11
REMARK    6  A    between atoms: N_10  and  N_31
REMARK    7  A    between atoms: C_16  and  N_20
REMARK    8  A    between atoms: N_20  and  C_21
REMARK                            x       y       z     vdW  Elec       q    Type
REMARK                         _______ _______ _______ _____ _____    ______ ____
ROOT
ATOM      1  C   UNL     1       5.398  -3.230   3.531  0.00  0.00    +0.090 A 
ATOM      2  C   UNL     1       4.422  -4.077   3.115  0.00  0.00    +0.061 A 
ATOM      3  C   UNL     1       4.096  -5.203   3.885  0.00  0.00    +0.085 A 
ATOM      4  C   UNL     1       4.843  -5.362   5.075  0.00  0.00    +0.079 A 
ATOM      5  S   UNL     1       5.943  -3.972   5.060  0.00  0.00    -0.067 S 
ATOM      6  C   UNL     1       4.619  -6.430   5.921  0.00  0.00    +0.141 A 
ATOM      7  N   UNL     1       3.676  -7.315   5.588  0.00  0.00    -0.219 NA
ATOM      8  C   UNL     1       2.984  -7.157   4.475  0.00  0.00    +0.224 A 
ATOM      9  N   UNL     1       3.164  -6.160   3.647  0.00  0.00    -0.235 NA
ENDROOT
BRANCH   6  10
ATOM     10  N   UNL     1       5.356  -6.580   7.086  0.00  0.00    -0.298 N 
ATOM     11  H   UNL     1       5.984  -5.892   7.355  0.00  0.00    +0.154 HD
BRANCH  10  12
ATOM     12  C   UNL     1       5.193  -7.726   7.875  0.00  0.00    +0.033 A 
ATOM     13  C   UNL     1       4.889  -8.946   7.272  0.00  0.00    +0.025 A 
ATOM     14  C   UNL     1       4.726 -10.082   8.033  0.00  0.00    +0.028 A 
ATOM     15  C   UNL     1       4.864 -10.019   9.416  0.00  0.00    +0.047 A 
ATOM     16  C   UNL     1       5.170  -8.790  10.027  0.00  0.00    +0.001 A 
ATOM     17  C   UNL     1       5.339  -7.644   9.247  0.00  0.00    +0.033 A 
ATOM     18  C   UNL     1       5.244  -9.060  11.465  0.00  0.00    +0.027 A 
ATOM     19  C   UNL     1       4.992 -10.367  11.633  0.00  0.00    +0.083 A 
ATOM     20  N   UNL     1       4.762 -10.958  10.421  0.00  0.00    -0.361 N 
ATOM     21  H   UNL     1       4.558 -11.897  10.288  0.00  0.00    +0.165 HD
ENDBRANCH  10  12
ENDBRANCH   6  10
BRANCH   1  22
ATOM     22  N   UNL     1       5.860  -2.075   2.916  0.00  0.00    -0.232 N 
BRANCH  22  23
ATOM     23  N   UNL     1       6.803  -1.267   3.564  0.00  0.00    -0.253 N 
ATOM     24  C   UNL     1       7.438  -1.545   4.745  0.00  0.00    +0.129 A 
ATOM     25  C   UNL     1       8.256  -0.507   5.002  0.00  0.00    +0.132 A 
ATOM     26  N   UNL     1       8.125   0.381   4.006  0.00  0.00    -0.242 NA
ATOM     27  C   UNL     1       7.260  -0.069   3.138  0.00  0.00    +0.218 A 
ENDBRANCH  22  23
BRANCH  22  28
ATOM     28  C   UNL     1       5.363  -1.702   1.590  0.00  0.00    +0.131 C 
BRANCH  28  29
ATOM     29  C   UNL     1       4.123  -0.818   1.740  0.00  0.00    +0.025 C 
BRANCH  29  30
ATOM     30  C   UNL     1       3.604  -0.428   0.355  0.00  0.00    +0.037 C 
BRANCH  30  34
ATOM     31  C   UNL     1       0.142   2.039   0.773  0.00  0.00    +0.000 A 
ATOM     32  C   UNL     1       1.398   2.614   0.720  0.00  0.00    +0.000 A 
ATOM     33  C   UNL     1       2.518   1.816   0.585  0.00  0.00    +0.003 A 
ATOM     34  C   UNL     1       2.383   0.443   0.503  0.00  0.00    -0.047 A 
ATOM     35  C   UNL     1       1.127  -0.132   0.557  0.00  0.00    +0.003 A 
ATOM     36  C   UNL     1       0.006   0.666   0.691  0.00  0.00    +0.000 A 
ENDBRANCH  30  34
ENDBRANCH  29  30
ENDBRANCH  28  29
ENDBRANCH  22  28
ENDBRANCH   1  22
TORSDOF 8
