REMARK  Name = CHEMBL281543
REMARK  8 active torsions:
REMARK  status: ('A' for Active; 'I' for Inactive)
REMARK    1  A    between atoms: C_2  and  C_3
REMARK    2  A    between atoms: C_7  and  C_25
REMARK    3  A    between atoms: C_12  and  N_16
REMARK    4  A    between atoms: N_16  and  C_17
REMARK    5  A    between atoms: C_25  and  C_26
REMARK    6  A    between atoms: C_26  and  C_27
REMARK    7  A    between atoms: C_27  and  C_28
REMARK    8  A    between atoms: C_28  and  N_29
REMARK                            x       y       z     vdW  Elec       q    Type
REMARK                         _______ _______ _______ _____ _____    ______ ____
ROOT
ATOM      1  C   UNL     1      -1.341  -0.762   0.908  0.00  0.00    +0.242 C 
ATOM      2  O   UNL     1      -2.386  -0.167   0.726  0.00  0.00    -0.270 OA
ATOM      3  N   UNL     1      -1.321  -2.110   0.892  0.00  0.00    -0.267 N 
ATOM      4  C   UNL     1      -2.496  -2.820   0.668  0.00  0.00    +0.129 A 
ATOM      5  C   UNL     1      -2.459  -4.221   0.660  0.00  0.00    -0.005 A 
ATOM      6  C   UNL     1      -3.603  -4.931   0.443  0.00  0.00    +0.037 A 
ATOM      7  C   UNL     1      -4.797  -4.218   0.230  0.00  0.00    +0.095 A 
ATOM      8  C   UNL     1      -4.765  -2.804   0.250  0.00  0.00    +0.131 A 
ATOM      9  N   UNL     1      -3.620  -2.161   0.473  0.00  0.00    -0.227 NA
ATOM     10  C   UNL     1      -5.983  -2.110   0.033  0.00  0.00    +0.152 A 
ATOM     11  N   UNL     1      -7.082  -2.820  -0.176  0.00  0.00    -0.218 NA
ATOM     12  C   UNL     1      -7.060  -4.143  -0.185  0.00  0.00    +0.224 A 
ATOM     13  N   UNL     1      -5.964  -4.838   0.009  0.00  0.00    -0.234 NA
ATOM     14  H   UNL     1      -0.487  -2.584   1.037  0.00  0.00    +0.157 HD
ENDROOT
BRANCH   1  16
ATOM     15  C   UNL     1      -0.119   1.319   1.161  0.00  0.00    +0.013 C 
ATOM     16  C   UNL     1      -0.099  -0.011   1.145  0.00  0.00    +0.060 C 
ENDBRANCH   1  16
BRANCH  10  17
ATOM     17  N   UNL     1      -6.022  -0.730   0.041  0.00  0.00    -0.298 N 
ATOM     18  H   UNL     1      -5.199  -0.221   0.112  0.00  0.00    +0.154 HD
BRANCH  17  19
ATOM     19  C   UNL     1      -7.249  -0.065  -0.054  0.00  0.00    +0.034 A 
ATOM     20  C   UNL     1      -7.339   1.133  -0.753  0.00  0.00    +0.026 A 
ATOM     21  C   UNL     1      -8.551   1.788  -0.846  0.00  0.00    +0.041 A 
ATOM     22  C   UNL     1      -9.677   1.253  -0.243  0.00  0.00    +0.142 A 
ATOM     23  C   UNL     1      -9.590   0.059   0.455  0.00  0.00    +0.078 A 
ATOM     24  C   UNL     1      -8.380  -0.603   0.545  0.00  0.00    +0.046 A 
ATOM     25 CL   UNL     1     -11.003  -0.609   1.210  0.00  0.00    -0.081 Cl
ATOM     26  F   UNL     1     -10.861   1.897  -0.334  0.00  0.00    -0.204 F 
ENDBRANCH  17  19
ENDBRANCH  10  17
BRANCH   5  27
ATOM     27  C   UNL     1      -1.156  -4.943   0.893  0.00  0.00    +0.038 C 
BRANCH  27  28
ATOM     28  C   UNL     1      -0.916  -5.091   2.396  0.00  0.00    +0.003 C 
BRANCH  28  29
ATOM     29  C   UNL     1       0.407  -5.823   2.632  0.00  0.00    -0.018 C 
BRANCH  29  30
ATOM     30  C   UNL     1       0.647  -5.971   4.136  0.00  0.00    -0.079 C 
BRANCH  30  31
ATOM     31  N   UNL     1       1.917  -6.674   4.362  0.00  0.00    +0.383 N 
ATOM     32  C   UNL     1       1.815  -8.047   3.849  0.00  0.00    -0.050 C 
ATOM     33  C   UNL     1       3.139  -8.778   4.085  0.00  0.00    +0.141 C 
ATOM     34  O   UNL     1       3.444  -8.761   5.483  0.00  0.00    -0.383 OA
ATOM     35  C   UNL     1       3.530  -7.444   6.035  0.00  0.00    +0.141 C 
ATOM     36  C   UNL     1       2.206  -6.711   5.802  0.00  0.00    -0.050 C 
ATOM     37  H   UNL     1       2.660  -6.190   3.882  0.00  0.00    -0.082 HD
ENDBRANCH  30  31
ENDBRANCH  29  30
ENDBRANCH  28  29
ENDBRANCH  27  28
ENDBRANCH   5  27
TORSDOF 8
