REMARK  Name = CHEMBL55729
REMARK  1 active torsions:
REMARK  status: ('A' for Active; 'I' for Inactive)
REMARK    1  A    between atoms: C_10  and  N_11
REMARK                            x       y       z     vdW  Elec       q    Type
REMARK                         _______ _______ _______ _____ _____    ______ ____
ROOT
ATOM      1  C   UNL     1      -0.017   1.397   0.010  0.00  0.00    +0.023 A 
ATOM      2  C   UNL     1       1.141   2.110   0.003  0.00  0.00    +0.013 A 
ATOM      3  C   UNL     1       2.373   1.438  -0.013  0.00  0.00    +0.019 A 
ATOM      4  C   UNL     1       3.597   2.127  -0.020  0.00  0.00    +0.122 A 
ATOM      5  N   UNL     1       4.712   1.425  -0.034  0.00  0.00    -0.243 NA
ATOM      6  C   UNL     1       4.700   0.100  -0.041  0.00  0.00    +0.221 A 
ATOM      7  N   UNL     1       3.591  -0.600  -0.035  0.00  0.00    -0.235 NA
ATOM      8  C   UNL     1       2.402   0.018  -0.021  0.00  0.00    +0.076 A 
ATOM      9  C   UNL     1       1.198  -0.694  -0.014  0.00  0.00    +0.051 A 
ATOM     10  C   UNL     1       0.002  -0.004   0.002  0.00  0.00    +0.027 A 
ENDROOT
BRANCH  10  11
ATOM     11  N   UNL     1      -1.199  -0.709   0.010  0.00  0.00    -0.358 N 
ATOM     12  H   UNL     1      -2.042  -0.230   0.020  0.00  0.00    +0.142 HD
ATOM     13  H   UNL     1      -1.192  -1.679   0.004  0.00  0.00    +0.142 HD
ENDBRANCH  10  11
TORSDOF 1
