REMARK  Name = CHEMBL207815
REMARK  12 active torsions:
REMARK  status: ('A' for Active; 'I' for Inactive)
REMARK    1  A    between atoms: C_1  and  N_2
REMARK    2  A    between atoms: N_2  and  C_3
REMARK    3  A    between atoms: N_2  and  C_25
REMARK    4  A    between atoms: C_3  and  C_4
REMARK    5  A    between atoms: C_9  and  O_10
REMARK    6  A    between atoms: O_10  and  C_11
REMARK    7  A    between atoms: N_16  and  C_17
REMARK    8  A    between atoms: C_25  and  C_33
REMARK    9  A    between atoms: N_27  and  C_29
REMARK   10  A    between atoms: C_29  and  C_30
REMARK   11  A    between atoms: C_30  and  O_31
REMARK   12  A    between atoms: O_31  and  C_32
REMARK                            x       y       z     vdW  Elec       q    Type
REMARK                         _______ _______ _______ _____ _____    ______ ____
ROOT
ATOM      1  C   UNL     1      -2.098   0.131  -0.965  0.00  0.00    -0.021 A 
ATOM      2  C   UNL     1      -2.664   1.329  -0.647  0.00  0.00    +0.018 A 
ATOM      3  C   UNL     1      -3.481   1.979  -1.579  0.00  0.00    +0.041 A 
ATOM      4  C   UNL     1      -3.713   1.390  -2.846  0.00  0.00    +0.079 A 
ATOM      5  C   UNL     1      -3.121   0.160  -3.151  0.00  0.00    +0.074 A 
ATOM      6  C   UNL     1      -2.316  -0.455  -2.214  0.00  0.00    +0.123 A 
ATOM      7  N   UNL     1      -4.500   2.034  -3.723  0.00  0.00    -0.235 NA
ATOM      8  C   UNL     1      -5.041   3.188  -3.408  0.00  0.00    +0.223 A 
ATOM      9  N   UNL     1      -4.852   3.776  -2.237  0.00  0.00    -0.220 NA
ATOM     10  C   UNL     1      -4.093   3.225  -1.299  0.00  0.00    +0.134 A 
ATOM     11  N   UNL     1      -3.904   3.849  -0.083  0.00  0.00    -0.297 N 
ATOM     12  H   UNL     1      -3.280   3.479   0.560  0.00  0.00    +0.154 HD
ENDROOT
BRANCH  11  13
ATOM     13  C   UNL     1      -4.614   5.016   0.221  0.00  0.00    +0.070 A 
ATOM     14  C   UNL     1      -5.774   5.326  -0.476  0.00  0.00    +0.026 A 
ATOM     15  C   UNL     1      -6.474   6.479  -0.173  0.00  0.00    +0.003 A 
ATOM     16  C   UNL     1      -6.021   7.324   0.823  0.00  0.00    +0.023 A 
ATOM     17  C   UNL     1      -4.865   7.019   1.521  0.00  0.00    +0.078 A 
ATOM     18  C   UNL     1      -4.162   5.864   1.226  0.00  0.00    +0.163 A 
ATOM     19  F   UNL     1      -3.037   5.563   1.911  0.00  0.00    -0.202 F 
ATOM     20 CL   UNL     1      -4.300   8.084   2.770  0.00  0.00    -0.081 Cl
ENDBRANCH  11  13
BRANCH   6  21
ATOM     21  O   UNL     1      -1.735  -1.647  -2.507  0.00  0.00    -0.495 OA
ATOM     22  C   UNL     1      -1.997  -2.196  -3.801  0.00  0.00    +0.277 C 
ENDBRANCH   6  21
BRANCH   1  23
ATOM     23  C   UNL     1      -1.219  -0.567   0.041  0.00  0.00    -0.038 C 
BRANCH  23  25
ATOM     24  C   UNL     1       0.482   1.114  -0.149  0.00  0.00    -0.094 C 
ATOM     25  N   UNL     1       0.192  -0.319  -0.286  0.00  0.00    +0.392 N 
ATOM     26  H   UNL     1       0.373  -0.610  -1.235  0.00  0.00    -0.080 HD
BRANCH  25  27
ATOM     27  C   UNL     1       1.048  -1.082   0.632  0.00  0.00    +0.038 C 
ATOM     28  C   UNL     1       0.554  -2.516   0.893  0.00  0.00    +0.083 C 
ATOM     29  N   UNL     1      -0.199  -1.945   2.031  0.00  0.00    -0.302 NA
ATOM     30  C   UNL     1       0.753  -0.816   2.120  0.00  0.00    +0.083 C 
BRANCH  27  31
ATOM     31  C   UNL     1       2.511  -0.996   0.279  0.00  0.00    +0.202 C 
ATOM     32  O   UNL     1       3.346  -0.968   1.158  0.00  0.00    -0.277 OA
ATOM     33  N   UNL     1       2.890  -0.951  -1.013  0.00  0.00    -0.330 N 
ATOM     34  H   UNL     1       2.221  -0.898  -1.714  0.00  0.00    +0.145 HD
ATOM     35  H   UNL     1       3.832  -0.970  -1.243  0.00  0.00    +0.145 HD
ENDBRANCH  27  31
BRANCH  29  36
ATOM     36  C   UNL     1      -0.102  -2.810   3.214  0.00  0.00    +0.112 C 
BRANCH  36  37
ATOM     37  C   UNL     1      -1.084  -2.325   4.283  0.00  0.00    +0.174 C 
BRANCH  37  38
ATOM     38  O   UNL     1      -2.422  -2.484   3.807  0.00  0.00    -0.382 OA
ATOM     39  C   UNL     1      -3.422  -2.058   4.734  0.00  0.00    +0.194 C 
ENDBRANCH  37  38
ENDBRANCH  36  37
ENDBRANCH  29  36
ENDBRANCH  25  27
ENDBRANCH  23  25
ENDBRANCH   1  23
TORSDOF 9
