REMARK  Name = CHEMBL120069
REMARK  4 active torsions:
REMARK  status: ('A' for Active; 'I' for Inactive)
REMARK    1  A    between atoms: C_1  and  C_2
REMARK    2  A    between atoms: C_6  and  N_8
REMARK    3  A    between atoms: C_11  and  N_18
REMARK    4  A    between atoms: N_18  and  C_19
REMARK                            x       y       z     vdW  Elec       q    Type
REMARK                         _______ _______ _______ _____ _____    ______ ____
ROOT
ATOM      1  N   UNL     1       0.153  -2.845   2.391  0.00  0.00    -0.299 N 
ATOM      2  C   UNL     1      -0.133  -4.194   2.389  0.00  0.00    +0.139 A 
ATOM      3  C   UNL     1      -0.347  -4.892   3.596  0.00  0.00    +0.100 A 
ATOM      4  C   UNL     1      -0.352  -4.568   4.947  0.00  0.00    +0.131 A 
ATOM      5  N   UNL     1      -0.628  -5.692   5.632  0.00  0.00    -0.261 N 
ATOM      6  N   UNL     1      -0.805  -6.759   4.745  0.00  0.00    -0.152 NA
ATOM      7  C   UNL     1      -0.647  -6.332   3.512  0.00  0.00    +0.188 A 
ATOM      8  N   UNL     1      -0.698  -6.893   2.287  0.00  0.00    -0.214 NA
ATOM      9  C   UNL     1      -0.485  -6.167   1.218  0.00  0.00    +0.225 A 
ATOM     10  N   UNL     1      -0.219  -4.871   1.250  0.00  0.00    -0.220 NA
ATOM     11  H   UNL     1       0.288  -2.379   3.231  0.00  0.00    +0.154 HD
ATOM     12  H   UNL     1      -0.694  -5.754   6.598  0.00  0.00    +0.190 HD
ENDROOT
BRANCH   1  18
ATOM     13  C   UNL     1      -1.172  -2.337  -2.316  0.00  0.00    +0.044 C 
ATOM     14  C   UNL     1      -0.383  -1.880  -1.115  0.00  0.00    -0.049 A 
ATOM     15  C   UNL     1       0.437  -0.770  -1.209  0.00  0.00    +0.003 A 
ATOM     16  C   UNL     1       1.162  -0.348  -0.111  0.00  0.00    +0.002 A 
ATOM     17  C   UNL     1       1.070  -1.034   1.085  0.00  0.00    +0.023 A 
ATOM     18  C   UNL     1       0.248  -2.148   1.183  0.00  0.00    +0.033 A 
ATOM     19  C   UNL     1      -0.484  -2.567   0.078  0.00  0.00    +0.026 A 
ENDBRANCH   1  18
BRANCH   4  20
ATOM     20  N   UNL     1      -0.117  -3.317   5.489  0.00  0.00    -0.299 N 
ATOM     21  H   UNL     1       0.009  -2.552   4.907  0.00  0.00    +0.154 HD
BRANCH  20  22
ATOM     22  C   UNL     1      -0.062  -3.156   6.876  0.00  0.00    +0.034 A 
ATOM     23  C   UNL     1       0.453  -4.170   7.675  0.00  0.00    +0.023 A 
ATOM     24  C   UNL     1       0.507  -4.008   9.045  0.00  0.00    +0.003 A 
ATOM     25  C   UNL     1       0.049  -2.838   9.623  0.00  0.00    +0.020 A 
ATOM     26  C   UNL     1      -0.465  -1.826   8.832  0.00  0.00    +0.043 A 
ATOM     27  C   UNL     1      -0.516  -1.980   7.459  0.00  0.00    +0.043 A 
ATOM     28 CL   UNL     1      -1.040  -0.360   9.562  0.00  0.00    -0.083 Cl
ENDBRANCH  20  22
ENDBRANCH   4  20
TORSDOF 3
