REMARK  Name = CHEMBL105436
REMARK  12 active torsions:
REMARK  status: ('A' for Active; 'I' for Inactive)
REMARK    1  A    between atoms: C_1  and  N_2
REMARK    2  A    between atoms: N_2  and  C_3
REMARK    3  A    between atoms: N_2  and  C_29
REMARK    4  A    between atoms: C_3  and  C_4
REMARK    5  A    between atoms: C_4  and  C_5
REMARK    6  A    between atoms: C_8  and  N_11
REMARK    7  A    between atoms: C_13  and  C_21
REMARK    8  A    between atoms: C_19  and  N_20
REMARK    9  A    between atoms: C_25  and  O_27
REMARK   10  A    between atoms: O_27  and  C_28
REMARK   11  A    between atoms: C_29  and  C_30
REMARK   12  A    between atoms: C_30  and  O_31
REMARK                            x       y       z     vdW  Elec       q    Type
REMARK                         _______ _______ _______ _____ _____    ______ ____
ROOT
ATOM      1  N   UNL     1       2.270  -2.224   7.009  0.00  0.00    -0.300 N 
ATOM      2  C   UNL     1       1.611  -2.764   8.081  0.00  0.00    +0.102 A 
ATOM      3  C   UNL     1       2.510  -3.170   9.011  0.00  0.00    +0.013 A 
ATOM      4  C   UNL     1       3.840  -2.857   8.472  0.00  0.00    +0.066 A 
ATOM      5  C   UNL     1       3.625  -2.271   7.212  0.00  0.00    +0.151 A 
ATOM      6  N   UNL     1       4.683  -1.892   6.497  0.00  0.00    -0.217 NA
ATOM      7  C   UNL     1       5.903  -2.066   6.959  0.00  0.00    +0.225 A 
ATOM      8  N   UNL     1       6.149  -2.616   8.134  0.00  0.00    -0.220 NA
ATOM      9  C   UNL     1       5.156  -3.018   8.924  0.00  0.00    +0.129 A 
ENDROOT
BRANCH   1  13
ATOM     10  C   UNL     1       0.421  -0.676   3.609  0.00  0.00    -0.049 A 
ATOM     11  C   UNL     1       0.068  -1.928   4.077  0.00  0.00    +0.005 A 
ATOM     12  C   UNL     1       0.679  -2.444   5.203  0.00  0.00    +0.026 A 
ATOM     13  C   UNL     1       1.649  -1.704   5.866  0.00  0.00    +0.048 A 
ATOM     14  C   UNL     1       2.002  -0.446   5.394  0.00  0.00    +0.026 A 
ATOM     15  C   UNL     1       1.391   0.062   4.264  0.00  0.00    +0.005 A 
BRANCH  10  16
ATOM     16  C   UNL     1      -0.246  -0.117   2.380  0.00  0.00    +0.016 C 
BRANCH  16  17
ATOM     17  C   UNL     1       0.544  -0.530   1.137  0.00  0.00    -0.074 C 
BRANCH  17  19
ATOM     18  C   UNL     1      -0.042   1.483  -0.030  0.00  0.00    -0.096 C 
ATOM     19  N   UNL     1      -0.107   0.016  -0.062  0.00  0.00    +0.380 N 
ATOM     20  H   UNL     1      -1.072  -0.278  -0.083  0.00  0.00    -0.082 HD
BRANCH  19  21
ATOM     21  C   UNL     1       0.582  -0.479  -1.261  0.00  0.00    -0.051 C 
BRANCH  21  22
ATOM     22  C   UNL     1       0.378  -1.991  -1.380  0.00  0.00    +0.137 C 
BRANCH  22  23
ATOM     23  O   UNL     1      -1.008  -2.269  -1.591  0.00  0.00    -0.397 OA
ATOM     24  H   UNL     1      -1.212  -3.210  -1.676  0.00  0.00    +0.209 HD
ENDBRANCH  22  23
ENDBRANCH  21  22
ENDBRANCH  19  21
ENDBRANCH  17  19
ENDBRANCH  16  17
ENDBRANCH  10  16
ENDBRANCH   1  13
BRANCH   3  25
ATOM     25  C   UNL     1       2.210  -3.805  10.316  0.00  0.00    -0.012 A 
ATOM     26  C   UNL     1       2.867  -4.978  10.691  0.00  0.00    +0.009 A 
ATOM     27  C   UNL     1       2.586  -5.567  11.907  0.00  0.00    +0.004 A 
ATOM     28  C   UNL     1       1.654  -4.999  12.756  0.00  0.00    +0.045 A 
ATOM     29  C   UNL     1       0.996  -3.833  12.390  0.00  0.00    +0.121 A 
ATOM     30  C   UNL     1       1.276  -3.231  11.175  0.00  0.00    +0.054 A 
BRANCH  29  31
ATOM     31  O   UNL     1       0.080  -3.278  13.228  0.00  0.00    -0.495 OA
ATOM     32  C   UNL     1      -0.155  -3.949  14.468  0.00  0.00    +0.277 C 
ENDBRANCH  29  31
ENDBRANCH   3  25
BRANCH   9  33
ATOM     33  N   UNL     1       5.418  -3.594  10.154  0.00  0.00    -0.343 N 
ATOM     34  H   UNL     1       4.686  -3.893  10.715  0.00  0.00    +0.144 HD
ATOM     35  H   UNL     1       6.334  -3.700  10.455  0.00  0.00    +0.144 HD
ENDBRANCH   9  33
TORSDOF 10
