REMARK  Name = CHEMBL444619
REMARK  9 active torsions:
REMARK  status: ('A' for Active; 'I' for Inactive)
REMARK    1  A    between atoms: C_1  and  C_2
REMARK    2  A    between atoms: N_5  and  O_8
REMARK    3  A    between atoms: O_8  and  C_9
REMARK    4  A    between atoms: C_11  and  O_35
REMARK    5  A    between atoms: N_19  and  C_20
REMARK    6  A    between atoms: C_23  and  O_27
REMARK    7  A    between atoms: O_27  and  C_28
REMARK    8  A    between atoms: C_28  and  C_29
REMARK    9  A    between atoms: O_35  and  C_36
REMARK                            x       y       z     vdW  Elec       q    Type
REMARK                         _______ _______ _______ _____ _____    ______ ____
ROOT
ATOM      1  C   UNL     1      -1.344  -4.427   2.471  0.00  0.00    +0.164 A 
ATOM      2  C   UNL     1      -0.633  -4.593   3.640  0.00  0.00    +0.094 A 
ATOM      3  C   UNL     1      -1.254  -4.435   4.878  0.00  0.00    +0.126 A 
ATOM      4  C   UNL     1      -2.593  -4.108   4.962  0.00  0.00    +0.074 A 
ATOM      5  C   UNL     1      -3.338  -3.933   3.791  0.00  0.00    +0.083 A 
ATOM      6  C   UNL     1      -2.706  -4.090   2.532  0.00  0.00    +0.085 A 
ATOM      7  C   UNL     1      -3.483  -3.902   1.367  0.00  0.00    +0.138 A 
ATOM      8  N   UNL     1      -4.765  -3.584   1.511  0.00  0.00    -0.220 NA
ATOM      9  C   UNL     1      -5.312  -3.444   2.708  0.00  0.00    +0.223 A 
ATOM     10  N   UNL     1      -4.642  -3.616   3.823  0.00  0.00    -0.235 NA
ATOM     11  N   UNL     1      -2.926  -4.045   0.113  0.00  0.00    -0.299 N 
ATOM     12  H   UNL     1      -2.004  -4.332   0.022  0.00  0.00    +0.154 HD
ENDROOT
BRANCH  11  13
ATOM     13  C   UNL     1      -3.691  -3.775  -1.028  0.00  0.00    +0.034 A 
ATOM     14  C   UNL     1      -5.051  -4.058  -1.036  0.00  0.00    +0.027 A 
ATOM     15  C   UNL     1      -5.805  -3.791  -2.162  0.00  0.00    +0.049 A 
ATOM     16  C   UNL     1      -5.205  -3.241  -3.285  0.00  0.00    +0.139 A 
ATOM     17  C   UNL     1      -3.846  -2.958  -3.278  0.00  0.00    +0.084 A 
ATOM     18  C   UNL     1      -3.092  -3.218  -2.150  0.00  0.00    +0.047 A 
ATOM     19 CL   UNL     1      -3.096  -2.269  -4.684  0.00  0.00    -0.080 Cl
BRANCH  16  20
ATOM     20  O   UNL     1      -5.948  -2.980  -4.393  0.00  0.00    -0.484 OA
BRANCH  20  21
ATOM     21  C   UNL     1      -7.340  -3.297  -4.330  0.00  0.00    +0.284 C 
BRANCH  21  22
ATOM     22  C   UNL     1      -7.996  -2.942  -5.640  0.00  0.00    +0.078 A 
ATOM     23  C   UNL     1      -7.236  -2.402  -6.660  0.00  0.00    +0.027 A 
ATOM     24  C   UNL     1      -7.849  -2.079  -7.861  0.00  0.00    +0.003 A 
ATOM     25  C   UNL     1      -9.210  -2.311  -7.990  0.00  0.00    +0.020 A 
ATOM     26  C   UNL     1      -9.905  -2.853  -6.926  0.00  0.00    +0.111 A 
ATOM     27  N   UNL     1      -9.288  -3.153  -5.800  0.00  0.00    -0.256 NA
ENDBRANCH  21  22
ENDBRANCH  20  21
ENDBRANCH  16  20
ENDBRANCH  11  13
BRANCH   3  28
ATOM     28  O   UNL     1      -0.534  -4.604   6.017  0.00  0.00    -0.495 OA
ATOM     29  C   UNL     1      -1.226  -4.428   7.255  0.00  0.00    +0.277 C 
ENDBRANCH   3  28
BRANCH   1  30
ATOM     30  O   UNL     1      -0.731  -4.583   1.270  0.00  0.00    -0.403 OA
BRANCH  30  35
ATOM     31  C   UNL     1      -0.015  -9.651  -1.262  0.00  0.00    +0.007 C 
ATOM     32  C   UNL     1      -0.069  -8.147  -0.988  0.00  0.00    -0.011 C 
ATOM     33  C   UNL     1       0.870  -7.804   0.172  0.00  0.00    +0.022 C 
ATOM     34  C   UNL     1       0.765  -6.309   0.481  0.00  0.00    +0.127 C 
ATOM     35  N   UNL     1      -0.621  -5.976   0.835  0.00  0.00    -0.142 NA
ATOM     36  C   UNL     1      -1.534  -6.253  -0.281  0.00  0.00    +0.127 C 
ATOM     37  C   UNL     1      -1.499  -7.746  -0.613  0.00  0.00    +0.022 C 
ENDBRANCH  30  35
ENDBRANCH   1  30
TORSDOF 7
