REMARK  Name = CHEMBL570709
REMARK  8 active torsions:
REMARK  status: ('A' for Active; 'I' for Inactive)
REMARK    1  A    between atoms: C_1  and  N_2
REMARK    2  A    between atoms: N_2  and  N_15
REMARK    3  A    between atoms: C_3  and  O_5
REMARK    4  A    between atoms: O_5  and  C_6
REMARK    5  A    between atoms: C_9  and  N_12
REMARK    6  A    between atoms: N_16  and  C_17
REMARK    7  A    between atoms: C_23  and  N_27
REMARK    8  A    between atoms: N_27  and  C_28
REMARK                            x       y       z     vdW  Elec       q    Type
REMARK                         _______ _______ _______ _____ _____    ______ ____
ROOT
ATOM      1  C   UNL     1      -0.111  -0.687  -3.417  0.00  0.00    +0.088 A 
ATOM      2  C   UNL     1      -0.065  -2.091  -3.403  0.00  0.00    +0.032 A 
ATOM      3  C   UNL     1      -0.015  -2.799  -4.563  0.00  0.00    +0.030 A 
ATOM      4  C   UNL     1      -0.008  -2.126  -5.794  0.00  0.00    +0.076 A 
ATOM      5  C   UNL     1      -0.054  -0.710  -5.819  0.00  0.00    +0.042 A 
ATOM      6  C   UNL     1      -0.111   0.005  -4.620  0.00  0.00    +0.043 A 
ATOM      7  C   UNL     1      -0.047  -0.061  -7.079  0.00  0.00    +0.134 A 
ATOM      8  N   UNL     1       0.003  -0.814  -8.170  0.00  0.00    -0.220 NA
ATOM      9  C   UNL     1       0.046  -2.134  -8.097  0.00  0.00    +0.223 A 
ATOM     10  N   UNL     1       0.041  -2.788  -6.959  0.00  0.00    -0.235 NA
ENDROOT
BRANCH   1  12
ATOM     11  N   UNL     1      -0.162  -0.610  -1.156  0.00  0.00    -0.069 NA
ATOM     12  N   UNL     1      -0.162   0.004  -2.234  0.00  0.00    -0.133 NA
BRANCH  11  14
ATOM     13  C   UNL     1      -0.268   1.561   0.043  0.00  0.00    +0.166 C 
ATOM     14  N   UNL     1      -0.214   0.097   0.052  0.00  0.00    -0.143 N 
ATOM     15  C   UNL     1      -0.214  -0.570   1.223  0.00  0.00    +0.429 C 
ATOM     16  O   UNL     1      -0.259   0.042   2.272  0.00  0.00    -0.224 OA
BRANCH  15  17
ATOM     17  O   UNL     1      -0.165  -1.916   1.232  0.00  0.00    -0.410 OA
BRANCH  17  18
ATOM     18  C   UNL     1      -0.062  -2.544   2.433  0.00  0.00    +0.133 A 
ATOM     19  C   UNL     1       1.149  -3.090   2.831  0.00  0.00    +0.048 A 
ATOM     20  C   UNL     1       1.251  -3.727   4.052  0.00  0.00    +0.036 A 
ATOM     21  C   UNL     1       0.146  -3.821   4.878  0.00  0.00    +0.126 A 
ATOM     22  C   UNL     1      -1.063  -3.277   4.484  0.00  0.00    +0.036 A 
ATOM     23  C   UNL     1      -1.168  -2.634   3.266  0.00  0.00    +0.048 A 
BRANCH  21  24
ATOM     24  N   UNL     1       0.257  -4.504   6.186  0.00  0.00    +0.056 N 
ATOM     25  O   UNL     1       1.313  -4.980   6.532  0.00  0.00    -0.126 OA
ATOM     26  O   UNL     1      -0.708  -4.587   6.909  0.00  0.00    -0.126 OA
ENDBRANCH  21  24
ENDBRANCH  17  18
ENDBRANCH  15  17
ENDBRANCH  11  14
ENDBRANCH   1  12
BRANCH   7  27
ATOM     27  N   UNL     1      -0.091   1.314  -7.168  0.00  0.00    -0.299 N 
ATOM     28  H   UNL     1      -0.036   1.855  -6.364  0.00  0.00    +0.154 HD
BRANCH  27  29
ATOM     29  C   UNL     1      -0.214   1.930  -8.416  0.00  0.00    +0.034 A 
ATOM     30  C   UNL     1       0.278   3.215  -8.611  0.00  0.00    +0.023 A 
ATOM     31  C   UNL     1       0.154   3.821  -9.845  0.00  0.00    +0.003 A 
ATOM     32  C   UNL     1      -0.459   3.151 -10.889  0.00  0.00    +0.020 A 
ATOM     33  C   UNL     1      -0.950   1.871 -10.699  0.00  0.00    +0.043 A 
ATOM     34  C   UNL     1      -0.824   1.257  -9.467  0.00  0.00    +0.043 A 
ATOM     35 CL   UNL     1      -1.720   1.034 -12.011  0.00  0.00    -0.083 Cl
ENDBRANCH  27  29
ENDBRANCH   7  27
TORSDOF 7
