REMARK  Name = CHEMBL312753
REMARK  5 active torsions:
REMARK  status: ('A' for Active; 'I' for Inactive)
REMARK    1  A    between atoms: C_3  and  C_9
REMARK    2  A    between atoms: C_6  and  C_7
REMARK    3  A    between atoms: C_7  and  O_8
REMARK    4  A    between atoms: C_14  and  N_18
REMARK    5  A    between atoms: N_18  and  C_19
REMARK                            x       y       z     vdW  Elec       q    Type
REMARK                         _______ _______ _______ _____ _____    ______ ____
ROOT
ATOM      1  C   UNL     1       3.710   2.183  -0.693  0.00  0.00    +0.022 A 
ATOM      2  C   UNL     1       4.965   1.693  -0.506  0.00  0.00    +0.044 A 
ATOM      3  C   UNL     1       6.031   2.574  -0.274  0.00  0.00    +0.084 A 
ATOM      4  C   UNL     1       5.694   3.946  -0.254  0.00  0.00    +0.078 A 
ATOM      5  S   UNL     1       3.948   3.947  -0.560  0.00  0.00    -0.083 S 
ATOM      6  C   UNL     1       6.657   4.916  -0.035  0.00  0.00    +0.141 A 
ATOM      7  N   UNL     1       7.917   4.524   0.158  0.00  0.00    -0.219 NA
ATOM      8  C   UNL     1       8.220   3.238   0.137  0.00  0.00    +0.224 A 
ATOM      9  N   UNL     1       7.342   2.291  -0.066  0.00  0.00    -0.235 NA
ENDROOT
BRANCH   1  12
ATOM     10  C   UNL     1       0.092   1.424  -1.361  0.00  0.00    +0.006 A 
ATOM     11  C   UNL     1       1.256   2.125  -1.121  0.00  0.00    +0.009 A 
ATOM     12  C   UNL     1       2.458   1.438  -0.949  0.00  0.00    -0.011 A 
ATOM     13  C   UNL     1       2.474   0.044  -1.019  0.00  0.00    +0.009 A 
ATOM     14  C   UNL     1       1.303  -0.645  -1.258  0.00  0.00    +0.006 A 
ATOM     15  C   UNL     1       0.115   0.043  -1.429  0.00  0.00    -0.022 A 
BRANCH  15  16
ATOM     16  C   UNL     1      -1.161  -0.717  -1.690  0.00  0.00    +0.191 C 
BRANCH  16  17
ATOM     17  O   UNL     1      -1.333  -0.887  -3.099  0.00  0.00    -0.390 OA
ATOM     18  H   UNL     1      -2.136  -1.369  -3.341  0.00  0.00    +0.210 HD
ENDBRANCH  16  17
ENDBRANCH  15  16
ENDBRANCH   1  12
BRANCH   6  19
ATOM     19  N   UNL     1       6.320   6.260  -0.017  0.00  0.00    -0.298 N 
ATOM     20  H   UNL     1       5.389   6.528  -0.075  0.00  0.00    +0.154 HD
BRANCH  19  21
ATOM     21  C   UNL     1       7.323   7.232   0.086  0.00  0.00    +0.033 A 
ATOM     22  C   UNL     1       8.556   7.025  -0.532  0.00  0.00    +0.025 A 
ATOM     23  C   UNL     1       9.552   7.971  -0.441  0.00  0.00    +0.028 A 
ATOM     24  C   UNL     1       9.334   9.146   0.271  0.00  0.00    +0.047 A 
ATOM     25  C   UNL     1       8.092   9.358   0.895  0.00  0.00    +0.001 A 
ATOM     26  C   UNL     1       7.085   8.395   0.793  0.00  0.00    +0.033 A 
ATOM     27  C   UNL     1       8.185  10.665   1.550  0.00  0.00    +0.027 A 
ATOM     28  C   UNL     1       9.414  11.144   1.298  0.00  0.00    +0.083 A 
ATOM     29  N   UNL     1      10.115  10.251   0.535  0.00  0.00    -0.361 N 
ATOM     30  H   UNL     1      11.026  10.376   0.227  0.00  0.00    +0.165 HD
ENDBRANCH  19  21
ENDBRANCH   6  19
TORSDOF 5
