REMARK  Name = CHEMBL399372
REMARK  9 active torsions:
REMARK  status: ('A' for Active; 'I' for Inactive)
REMARK    1  A    between atoms: C_1  and  C_2
REMARK    2  A    between atoms: C_2  and  O_3
REMARK    3  A    between atoms: O_3  and  C_4
REMARK    4  A    between atoms: C_9  and  O_10
REMARK    5  A    between atoms: O_10  and  C_11
REMARK    6  A    between atoms: C_11  and  C_12
REMARK    7  A    between atoms: C_16  and  C_17
REMARK    8  A    between atoms: C_18  and  C_19
REMARK    9  A    between atoms: N_23  and  C_24
REMARK                            x       y       z     vdW  Elec       q    Type
REMARK                         _______ _______ _______ _____ _____    ______ ____
ROOT
ATOM      1  C   UNL     1       0.802  -1.825   1.306  0.00  0.00    +0.163 A 
ATOM      2  C   UNL     1       0.264  -2.653   0.360  0.00  0.00    +0.062 A 
ATOM      3  C   UNL     1       0.377  -4.037   0.510  0.00  0.00    +0.038 A 
ATOM      4  C   UNL     1       1.046  -4.578   1.639  0.00  0.00    +0.079 A 
ATOM      5  C   UNL     1       1.589  -3.711   2.595  0.00  0.00    +0.077 A 
ATOM      6  C   UNL     1       1.470  -2.350   2.422  0.00  0.00    +0.164 A 
ATOM      7  N   UNL     1       1.137  -5.910   1.753  0.00  0.00    -0.235 NA
ATOM      8  C   UNL     1       0.622  -6.705   0.846  0.00  0.00    +0.223 A 
ATOM      9  N   UNL     1      -0.014  -6.278  -0.230  0.00  0.00    -0.226 NA
ATOM     10  C   UNL     1      -0.176  -4.975  -0.467  0.00  0.00    +0.125 A 
ENDROOT
BRANCH  10  11
ATOM     11  C   UNL     1      -0.866  -4.513  -1.634  0.00  0.00    -0.037 C 
ATOM     12  C   UNL     1      -1.431  -4.133  -2.591  0.00  0.00    -0.021 C 
BRANCH  12  13
ATOM     13  C   UNL     1      -2.120  -3.671  -3.757  0.00  0.00    +0.191 A 
ATOM     14  N   UNL     1      -2.327  -2.409  -4.085  0.00  0.00    -0.228 NA
ATOM     15  C   UNL     1      -3.001  -2.358  -5.235  0.00  0.00    +0.132 A 
ATOM     16  C   UNL     1      -3.232  -3.623  -5.655  0.00  0.00    +0.113 A 
ATOM     17  N   UNL     1      -2.674  -4.462  -4.730  0.00  0.00    -0.293 N 
BRANCH  17  18
ATOM     18  C   UNL     1      -2.671  -5.862  -4.769  0.00  0.00    +0.049 A 
ATOM     19  C   UNL     1      -1.486  -6.561  -4.579  0.00  0.00    +0.026 A 
ATOM     20  C   UNL     1      -1.487  -7.941  -4.617  0.00  0.00    +0.002 A 
ATOM     21  C   UNL     1      -2.666  -8.627  -4.844  0.00  0.00    +0.000 A 
ATOM     22  C   UNL     1      -3.848  -7.934  -5.034  0.00  0.00    +0.002 A 
ATOM     23  C   UNL     1      -3.854  -6.554  -4.991  0.00  0.00    +0.026 A 
ENDBRANCH  17  18
ENDBRANCH  12  13
ENDBRANCH  10  11
BRANCH   1  24
ATOM     24  O   UNL     1       0.693  -0.477   1.160  0.00  0.00    -0.489 OA
BRANCH  24  26
ATOM     25  C   UNL     1      -0.019   1.526   0.010  0.00  0.00    +0.048 C 
ATOM     26  C   UNL     1       0.002  -0.004   0.002  0.00  0.00    +0.226 C 
ENDBRANCH  24  26
ENDBRANCH   1  24
BRANCH   6  27
ATOM     27  O   UNL     1       2.000  -1.506   3.345  0.00  0.00    -0.489 OA
BRANCH  27  28
ATOM     28  C   UNL     1       2.667  -2.101   4.460  0.00  0.00    +0.226 C 
ATOM     29  C   UNL     1       3.194  -1.002   5.385  0.00  0.00    +0.048 C 
ENDBRANCH  27  28
ENDBRANCH   6  27
TORSDOF 7
