REMARK  Name = CHEMBL76444
REMARK  5 active torsions:
REMARK  status: ('A' for Active; 'I' for Inactive)
REMARK    1  A    between atoms: C_1  and  C_2
REMARK    2  A    between atoms: C_3  and  C_21
REMARK    3  A    between atoms: C_10  and  N_12
REMARK    4  A    between atoms: N_12  and  C_13
REMARK    5  A    between atoms: N_12  and  C_14
REMARK                            x       y       z     vdW  Elec       q    Type
REMARK                         _______ _______ _______ _____ _____    ______ ____
ROOT
ATOM      1  C   UNL     1      -0.010   1.075   0.008  0.00  0.00    +0.046 C 
ATOM      2  C   UNL     1      -0.743   1.539  -1.224  0.00  0.00    -0.018 A 
ATOM      3  C   UNL     1      -2.073   1.671  -1.362  0.00  0.00    +0.018 A 
ATOM      4  N   UNL     1      -2.367   2.118  -2.624  0.00  0.00    -0.343 N 
ATOM      5  C   UNL     1      -1.214   2.287  -3.341  0.00  0.00    +0.144 A 
ATOM      6  N   UNL     1      -0.941   2.689  -4.581  0.00  0.00    -0.218 NA
ATOM      7  C   UNL     1       0.302   2.755  -5.008  0.00  0.00    +0.225 A 
ATOM      8  N   UNL     1       1.334   2.431  -4.250  0.00  0.00    -0.220 NA
ATOM      9  H   UNL     1      -3.261   2.288  -2.959  0.00  0.00    +0.167 HD
ATOM     10  C   UNL     1       1.163   2.018  -2.998  0.00  0.00    +0.138 A 
ATOM     11  C   UNL     1      -0.145   1.939  -2.496  0.00  0.00    +0.062 A 
ATOM     12  C   UNL     1      -3.089   1.372  -0.290  0.00  0.00    +0.063 C 
ENDROOT
BRANCH  10  13
ATOM     13  N   UNL     1       2.248   1.680  -2.207  0.00  0.00    -0.288 N 
ATOM     14  C   UNL     1       2.805   0.326  -2.267  0.00  0.00    +0.137 C 
BRANCH  13  15
ATOM     15  C   UNL     1       2.813   2.631  -1.352  0.00  0.00    +0.036 A 
ATOM     16  C   UNL     1       2.349   3.941  -1.365  0.00  0.00    +0.023 A 
ATOM     17  C   UNL     1       2.909   4.878  -0.519  0.00  0.00    +0.003 A 
ATOM     18  C   UNL     1       3.930   4.514   0.340  0.00  0.00    +0.020 A 
ATOM     19  C   UNL     1       4.394   3.211   0.355  0.00  0.00    +0.043 A 
ATOM     20  C   UNL     1       3.834   2.267  -0.485  0.00  0.00    +0.043 A 
ATOM     21 CL   UNL     1       5.677   2.760   1.435  0.00  0.00    -0.083 Cl
ENDBRANCH  13  15
ENDBRANCH  10  13
TORSDOF 2
