REMARK  Name = CHEMBL521601
REMARK  8 active torsions:
REMARK  status: ('A' for Active; 'I' for Inactive)
REMARK    1  A    between atoms: C_2  and  C_3
REMARK    2  A    between atoms: C_7  and  C_25
REMARK    3  A    between atoms: C_12  and  C_16
REMARK    4  A    between atoms: C_16  and  C_17
REMARK    5  A    between atoms: C_25  and  C_26
REMARK    6  A    between atoms: C_26  and  C_27
REMARK    7  A    between atoms: C_27  and  C_28
REMARK    8  A    between atoms: C_28  and  N_29
REMARK                            x       y       z     vdW  Elec       q    Type
REMARK                         _______ _______ _______ _____ _____    ______ ____
ROOT
ATOM      1  C   UNL     1       1.285  -0.722  -0.014  0.00  0.00    +0.242 C 
ATOM      2  O   UNL     1       2.330  -0.100  -0.021  0.00  0.00    -0.270 OA
ATOM      3  N   UNL     1       1.304  -2.070  -0.021  0.00  0.00    -0.267 N 
ATOM      4  C   UNL     1       2.517  -2.748  -0.037  0.00  0.00    +0.129 A 
ATOM      5  C   UNL     1       2.517  -4.151  -0.050  0.00  0.00    -0.005 A 
ATOM      6  C   UNL     1       3.698  -4.832  -0.065  0.00  0.00    +0.037 A 
ATOM      7  C   UNL     1       4.894  -4.088  -0.067  0.00  0.00    +0.093 A 
ATOM      8  C   UNL     1       4.824  -2.672  -0.053  0.00  0.00    +0.113 A 
ATOM      9  N   UNL     1       3.639  -2.059  -0.044  0.00  0.00    -0.228 NA
ATOM     10  C   UNL     1       6.034  -1.952  -0.055  0.00  0.00    +0.075 A 
ATOM     11  N   UNL     1       7.166  -2.625  -0.070  0.00  0.00    -0.238 NA
ATOM     12  C   UNL     1       7.187  -3.950  -0.083  0.00  0.00    +0.222 A 
ATOM     13  N   UNL     1       6.094  -4.676  -0.081  0.00  0.00    -0.234 NA
ATOM     14  H   UNL     1       0.470  -2.566  -0.016  0.00  0.00    +0.157 HD
ENDROOT
BRANCH   1  16
ATOM     15  C   UNL     1      -0.016   1.326   0.009  0.00  0.00    +0.013 C 
ATOM     16  C   UNL     1       0.002  -0.004   0.002  0.00  0.00    +0.060 C 
ENDBRANCH   1  16
BRANCH  10  17
ATOM     17  C   UNL     1       6.034  -0.445  -0.042  0.00  0.00    +0.093 C 
BRANCH  17  18
ATOM     18  C   UNL     1       6.044   0.045   1.384  0.00  0.00    -0.040 A 
ATOM     19  C   UNL     1       4.851   0.263   2.048  0.00  0.00    +0.007 A 
ATOM     20  C   UNL     1       4.859   0.712   3.355  0.00  0.00    +0.040 A 
ATOM     21  C   UNL     1       6.062   0.942   4.000  0.00  0.00    +0.142 A 
ATOM     22  C   UNL     1       7.257   0.723   3.334  0.00  0.00    +0.076 A 
ATOM     23  C   UNL     1       7.247   0.269   2.028  0.00  0.00    +0.027 A 
ATOM     24 CL   UNL     1       8.767   1.011   4.142  0.00  0.00    -0.081 Cl
ATOM     25  F   UNL     1       6.071   1.381   5.278  0.00  0.00    -0.204 F 
ENDBRANCH  17  18
ENDBRANCH  10  17
BRANCH   5  26
ATOM     26  C   UNL     1       1.212  -4.906  -0.047  0.00  0.00    +0.038 C 
BRANCH  26  27
ATOM     27  C   UNL     1       0.697  -5.038  -1.482  0.00  0.00    +0.003 C 
BRANCH  27  28
ATOM     28  C   UNL     1      -0.628  -5.804  -1.479  0.00  0.00    -0.018 C 
BRANCH  28  29
ATOM     29  C   UNL     1      -1.143  -5.937  -2.913  0.00  0.00    -0.079 C 
BRANCH  29  30
ATOM     30  N   UNL     1      -2.415  -6.672  -2.910  0.00  0.00    +0.383 N 
ATOM     31  C   UNL     1      -2.184  -8.049  -2.452  0.00  0.00    -0.050 C 
ATOM     32  C   UNL     1      -3.510  -8.813  -2.450  0.00  0.00    +0.141 C 
ATOM     33  O   UNL     1      -4.073  -8.784  -3.765  0.00  0.00    -0.383 OA
ATOM     34  C   UNL     1      -4.295  -7.462  -4.265  0.00  0.00    +0.141 C 
ATOM     35  C   UNL     1      -2.970  -6.696  -4.271  0.00  0.00    -0.050 C 
ATOM     36  H   UNL     1      -3.066  -6.215  -2.289  0.00  0.00    -0.082 HD
ENDBRANCH  29  30
ENDBRANCH  28  29
ENDBRANCH  27  28
ENDBRANCH  26  27
ENDBRANCH   5  26
TORSDOF 8
