REMARK  Name = CHEMBL225929
REMARK  11 active torsions:
REMARK  status: ('A' for Active; 'I' for Inactive)
REMARK    1  A    between atoms: C_4  and  C_7
REMARK    2  A    between atoms: C_7  and  N_8
REMARK    3  A    between atoms: N_8  and  C_9
REMARK    4  A    between atoms: N_8  and  C_32
REMARK    5  A    between atoms: C_9  and  C_10
REMARK    6  A    between atoms: C_10  and  N_11
REMARK    7  A    between atoms: N_11  and  N_12
REMARK    8  A    between atoms: N_13  and  C_14
REMARK    9  A    between atoms: C_20  and  N_24
REMARK   10  A    between atoms: N_24  and  C_25
REMARK   11  A    between atoms: C_32  and  C_33
REMARK                            x       y       z     vdW  Elec       q    Type
REMARK                         _______ _______ _______ _____ _____    ______ ____
ROOT
ATOM      1  C   UNL     1       9.913  -2.186   5.481  0.00  0.00    +0.088 A 
ATOM      2  C   UNL     1       9.235  -1.909   6.680  0.00  0.00    +0.032 A 
ATOM      3  C   UNL     1       9.919  -1.706   7.837  0.00  0.00    +0.030 A 
ATOM      4  C   UNL     1      11.320  -1.773   7.843  0.00  0.00    +0.076 A 
ATOM      5  C   UNL     1      12.013  -2.052   6.639  0.00  0.00    +0.042 A 
ATOM      6  C   UNL     1      11.297  -2.263   5.458  0.00  0.00    +0.043 A 
ATOM      7  C   UNL     1      13.428  -2.113   6.680  0.00  0.00    +0.134 A 
ATOM      8  N   UNL     1      14.031  -1.906   7.843  0.00  0.00    -0.220 NA
ATOM      9  C   UNL     1      13.341  -1.648   8.942  0.00  0.00    +0.223 A 
ATOM     10  N   UNL     1      12.031  -1.580   8.964  0.00  0.00    -0.235 NA
ENDROOT
BRANCH   1  12
ATOM     11  N   UNL     1       7.912  -2.316   4.343  0.00  0.00    -0.081 NA
ATOM     12  N   UNL     1       9.200  -2.387   4.326  0.00  0.00    -0.134 NA
BRANCH  11  13
ATOM     13  N   UNL     1       7.184  -2.521   3.163  0.00  0.00    -0.249 N 
ATOM     14  H   UNL     1       7.649  -2.717   2.334  0.00  0.00    +0.170 HD
BRANCH  13  15
ATOM     15  C   UNL     1       5.721  -2.441   3.182  0.00  0.00    +0.139 C 
BRANCH  15  16
ATOM     16  C   UNL     1       5.178  -2.703   1.775  0.00  0.00    +0.105 C 
BRANCH  16  17
ATOM     17  N   UNL     1       3.714  -2.589   1.787  0.00  0.00    -0.296 NA
BRANCH  17  18
ATOM     18  C   UNL     1       3.295  -1.181   1.816  0.00  0.00    +0.119 C 
BRANCH  18  22
ATOM     19  C   UNL     1      -0.908  -0.959   2.547  0.00  0.00    +0.000 A 
ATOM     20  C   UNL     1      -0.021  -0.959   3.607  0.00  0.00    +0.000 A 
ATOM     21  C   UNL     1       1.339  -1.031   3.371  0.00  0.00    +0.005 A 
ATOM     22  C   UNL     1       1.812  -1.104   2.074  0.00  0.00    -0.033 A 
ATOM     23  C   UNL     1       0.925  -1.105   1.014  0.00  0.00    +0.005 A 
ATOM     24  C   UNL     1      -0.435  -1.032   1.250  0.00  0.00    +0.000 A 
ENDBRANCH  18  22
ENDBRANCH  17  18
BRANCH  17  25
ATOM     25  C   UNL     1       3.122  -3.291   0.640  0.00  0.00    +0.100 C 
BRANCH  25  26
ATOM     26  C   UNL     1       3.207  -4.802   0.868  0.00  0.00    +0.124 C 
ATOM     27 CL   UNL     1       2.573  -5.665  -0.583  0.00  0.00    -0.124 Cl
ENDBRANCH  25  26
ENDBRANCH  17  25
ENDBRANCH  16  17
ENDBRANCH  15  16
ENDBRANCH  13  15
ENDBRANCH  11  13
ENDBRANCH   1  12
BRANCH   7  28
ATOM     28  N   UNL     1      14.159  -2.381   5.541  0.00  0.00    -0.299 N 
ATOM     29  H   UNL     1      13.708  -2.481   4.688  0.00  0.00    +0.154 HD
BRANCH  28  30
ATOM     30  C   UNL     1      15.549  -2.510   5.616  0.00  0.00    +0.034 A 
ATOM     31  C   UNL     1      16.347  -2.057   4.573  0.00  0.00    +0.023 A 
ATOM     32  C   UNL     1      17.720  -2.185   4.650  0.00  0.00    +0.003 A 
ATOM     33  C   UNL     1      18.301  -2.764   5.763  0.00  0.00    +0.020 A 
ATOM     34  C   UNL     1      17.509  -3.216   6.804  0.00  0.00    +0.043 A 
ATOM     35  C   UNL     1      16.135  -3.085   6.736  0.00  0.00    +0.043 A 
ATOM     36 CL   UNL     1      18.243  -3.942   8.200  0.00  0.00    -0.083 Cl
ENDBRANCH  28  30
ENDBRANCH   7  28
TORSDOF 11
