REMARK  Name = CHEMBL39320
REMARK  2 active torsions:
REMARK  status: ('A' for Active; 'I' for Inactive)
REMARK    1  A    between atoms: C_1  and  N_2
REMARK    2  A    between atoms: N_15  and  C_16
REMARK                            x       y       z     vdW  Elec       q    Type
REMARK                         _______ _______ _______ _____ _____    ______ ____
ROOT
ATOM      1  C   UNL     1       0.940   1.452  -0.083  0.00  0.00    +0.173 C 
ATOM      2  N   UNL     1       0.891  -0.012  -0.085  0.00  0.00    -0.267 N 
ATOM      3  C   UNL     1       0.655  -0.800  -1.185  0.00  0.00    +0.071 A 
ATOM      4  C   UNL     1       0.409  -0.516  -2.517  0.00  0.00    +0.056 A 
ATOM      5  C   UNL     1       0.203  -1.560  -3.419  0.00  0.00    +0.078 A 
ATOM      6  C   UNL     1       0.245  -2.907  -2.968  0.00  0.00    +0.041 A 
ATOM      7  C   UNL     1       0.492  -3.189  -1.628  0.00  0.00    +0.025 A 
ATOM      8  C   UNL     1       0.697  -2.142  -0.736  0.00  0.00    +0.021 A 
ATOM      9  C   UNL     1       0.974  -2.083   0.699  0.00  0.00    +0.143 A 
ATOM     10  N   UNL     1       1.085  -0.830   1.032  0.00  0.00    -0.179 NA
ATOM     11  C   UNL     1       0.030  -3.937  -3.920  0.00  0.00    +0.134 A 
ATOM     12  N   UNL     1      -0.199  -3.590  -5.179  0.00  0.00    -0.220 NA
ATOM     13  C   UNL     1      -0.229  -2.320  -5.553  0.00  0.00    +0.223 A 
ATOM     14  N   UNL     1      -0.038  -1.325  -4.721  0.00  0.00    -0.235 NA
ATOM     15  N   UNL     1       0.058  -5.264  -3.546  0.00  0.00    -0.299 N 
ATOM     16  H   UNL     1       0.145  -5.502  -2.610  0.00  0.00    +0.154 HD
ENDROOT
BRANCH  15  17
ATOM     17  C   UNL     1      -0.038  -6.266  -4.516  0.00  0.00    +0.033 A 
ATOM     18  C   UNL     1      -0.722  -7.442  -4.236  0.00  0.00    +0.023 A 
ATOM     19  C   UNL     1      -0.815  -8.430  -5.196  0.00  0.00    +0.003 A 
ATOM     20  C   UNL     1      -0.229  -8.250  -6.436  0.00  0.00    +0.015 A 
ATOM     21  C   UNL     1       0.454  -7.080  -6.718  0.00  0.00    +0.020 A 
ATOM     22  C   UNL     1       0.546  -6.085  -5.763  0.00  0.00    +0.038 A 
ATOM     23 BR   UNL     1       1.254  -6.838  -8.414  0.00  0.00    -0.050 Br
ENDBRANCH  15  17
TORSDOF 1
