REMARK  Name = CHEMBL213560
REMARK  5 active torsions:
REMARK  status: ('A' for Active; 'I' for Inactive)
REMARK    1  A    between atoms: C_4  and  C_7
REMARK    2  A    between atoms: C_7  and  C_8
REMARK    3  A    between atoms: C_8  and  N_9
REMARK    4  A    between atoms: C_11  and  C_12
REMARK    5  A    between atoms: C_15  and  O_18
REMARK                            x       y       z     vdW  Elec       q    Type
REMARK                         _______ _______ _______ _____ _____    ______ ____
ROOT
ATOM      1  N   UNL     1       5.473  -1.690   1.501  0.00  0.00    -0.249 N 
ATOM      2  C   UNL     1       5.614  -3.059   1.249  0.00  0.00    +0.102 C 
ATOM      3  C   UNL     1       4.655  -4.020   1.366  0.00  0.00    +0.036 C 
ATOM      4  C   UNL     1       6.963  -3.238   0.845  0.00  0.00    +0.286 C 
ATOM      5  O   UNL     1       7.547  -4.407   0.500  0.00  0.00    -0.267 OA
ATOM      6  N   UNL     1       7.542  -2.051   0.868  0.00  0.00    -0.122 NA
ATOM      7  C   UNL     1       6.667  -1.120   1.251  0.00  0.00    +0.333 C 
ATOM      8  O   UNL     1       6.912   0.070   1.361  0.00  0.00    -0.250 OA
ENDROOT
BRANCH   3   9
ATOM      9  C   UNL     1       5.017  -5.435   1.239  0.00  0.00    -0.023 A 
ATOM     10  C   UNL     1       4.186  -6.313   0.529  0.00  0.00    +0.011 A 
ATOM     11  C   UNL     1       4.531  -7.640   0.414  0.00  0.00    +0.046 A 
ATOM     12  C   UNL     1       5.701  -8.111   1.000  0.00  0.00    +0.117 A 
ATOM     13  C   UNL     1       6.529  -7.245   1.705  0.00  0.00    +0.046 A 
ATOM     14  C   UNL     1       6.198  -5.915   1.822  0.00  0.00    +0.011 A 
BRANCH  12  15
ATOM     15  O   UNL     1       6.035  -9.421   0.883  0.00  0.00    -0.507 OA
ATOM     16  H   UNL     1       6.576  -9.622   0.107  0.00  0.00    +0.292 HD
ENDBRANCH  12  15
ENDBRANCH   3   9
BRANCH   1  17
ATOM     17  C   UNL     1       4.256  -1.006   1.947  0.00  0.00    +0.120 C 
BRANCH  17  18
ATOM     18  C   UNL     1       3.446  -0.561   0.728  0.00  0.00    +0.054 C 
BRANCH  18  22
ATOM     19  C   UNL     1      -0.102   1.433   2.025  0.00  0.00    +0.000 A 
ATOM     20  C   UNL     1       1.057   2.155   1.810  0.00  0.00    +0.000 A 
ATOM     21  C   UNL     1       2.205   1.510   1.390  0.00  0.00    +0.004 A 
ATOM     22  C   UNL     1       2.194   0.143   1.186  0.00  0.00    -0.046 A 
ATOM     23  C   UNL     1       1.036  -0.579   1.403  0.00  0.00    +0.004 A 
ATOM     24  C   UNL     1      -0.113   0.066   1.821  0.00  0.00    +0.000 A 
ENDBRANCH  18  22
ENDBRANCH  17  18
ENDBRANCH   1  17
TORSDOF 5
