REMARK  Name = CHEMBL399735
REMARK  7 active torsions:
REMARK  status: ('A' for Active; 'I' for Inactive)
REMARK    1  A    between atoms: C_1  and  O_2
REMARK    2  A    between atoms: O_2  and  C_3
REMARK    3  A    between atoms: C_8  and  O_9
REMARK    4  A    between atoms: O_9  and  C_10
REMARK    5  A    between atoms: N_15  and  C_16
REMARK    6  A    between atoms: C_20  and  C_22
REMARK    7  A    between atoms: C_23  and  C_24
REMARK                            x       y       z     vdW  Elec       q    Type
REMARK                         _______ _______ _______ _____ _____    ______ ____
ROOT
ATOM      1  C   UNL     1       0.055  -0.613  -1.444  0.00  0.00    +0.162 A 
ATOM      2  C   UNL     1       0.785   0.153  -2.308  0.00  0.00    +0.062 A 
ATOM      3  C   UNL     1       1.607  -0.465  -3.257  0.00  0.00    +0.044 A 
ATOM      4  C   UNL     1       1.678  -1.879  -3.317  0.00  0.00    +0.080 A 
ATOM      5  C   UNL     1       0.921  -2.644  -2.422  0.00  0.00    +0.078 A 
ATOM      6  C   UNL     1       0.124  -2.012  -1.494  0.00  0.00    +0.164 A 
ATOM      7  N   UNL     1       2.474  -2.446  -4.236  0.00  0.00    -0.235 NA
ATOM      8  C   UNL     1       3.173  -1.703  -5.061  0.00  0.00    +0.223 A 
ATOM      9  N   UNL     1       3.139  -0.380  -5.042  0.00  0.00    -0.220 NA
ATOM     10  C   UNL     1       2.385   0.282  -4.174  0.00  0.00    +0.134 A 
ATOM     11  N   UNL     1       2.359   1.662  -4.166  0.00  0.00    -0.299 N 
ATOM     12  H   UNL     1       1.870   2.134  -3.474  0.00  0.00    +0.154 HD
ENDROOT
BRANCH  11  13
ATOM     13  C   UNL     1       3.038   2.380  -5.155  0.00  0.00    +0.034 A 
ATOM     14  C   UNL     1       3.659   3.583  -4.838  0.00  0.00    +0.023 A 
ATOM     15  C   UNL     1       4.332   4.297  -5.811  0.00  0.00    +0.003 A 
ATOM     16  C   UNL     1       4.392   3.822  -7.105  0.00  0.00    +0.017 A 
ATOM     17  C   UNL     1       3.772   2.614  -7.435  0.00  0.00    +0.027 A 
ATOM     18  C   UNL     1       3.097   1.889  -6.450  0.00  0.00    +0.040 A 
BRANCH  17  19
ATOM     19  C   UNL     1       3.832   2.118  -8.777  0.00  0.00    -0.061 C 
ATOM     20  C   UNL     1       3.881   1.711  -9.877  0.00  0.00    -0.061 C 
BRANCH  20  21
ATOM     21  C   UNL     1       3.941   1.215 -11.219  0.00  0.00    +0.025 A 
ATOM     22  C   UNL     1       4.625   1.933 -12.203  0.00  0.00    +0.017 A 
ATOM     23  C   UNL     1       4.679   1.449 -13.494  0.00  0.00    +0.001 A 
ATOM     24  C   UNL     1       4.058   0.255 -13.815  0.00  0.00    +0.000 A 
ATOM     25  C   UNL     1       3.378  -0.462 -12.845  0.00  0.00    +0.001 A 
ATOM     26  C   UNL     1       3.321   0.007 -11.550  0.00  0.00    +0.017 A 
ENDBRANCH  20  21
ENDBRANCH  17  19
ENDBRANCH  11  13
BRANCH   1  28
ATOM     27  C   UNL     1      -0.771   1.417  -0.522  0.00  0.00    +0.277 C 
ATOM     28  O   UNL     1      -0.744  -0.011  -0.522  0.00  0.00    -0.491 OA
ENDBRANCH   1  28
BRANCH   6  29
ATOM     29  O   UNL     1      -0.608  -2.752  -0.620  0.00  0.00    -0.491 OA
ATOM     30  C   UNL     1      -0.495  -4.173  -0.721  0.00  0.00    +0.277 C 
ENDBRANCH   6  29
TORSDOF 5
