REMARK  Name = CHEMBL135902
REMARK  6 active torsions:
REMARK  status: ('A' for Active; 'I' for Inactive)
REMARK    1  A    between atoms: C_1  and  O_2
REMARK    2  A    between atoms: O_2  and  C_3
REMARK    3  A    between atoms: C_8  and  O_9
REMARK    4  A    between atoms: O_9  and  C_10
REMARK    5  A    between atoms: C_14  and  S_15
REMARK    6  A    between atoms: S_15  and  C_16
REMARK                            x       y       z     vdW  Elec       q    Type
REMARK                         _______ _______ _______ _____ _____    ______ ____
ROOT
ATOM      1  C   UNL     1       0.622  -0.620   1.045  0.00  0.00    +0.162 A 
ATOM      2  C   UNL     1       1.188   0.135   2.034  0.00  0.00    +0.062 A 
ATOM      3  C   UNL     1       1.835  -0.497   3.103  0.00  0.00    +0.036 A 
ATOM      4  C   UNL     1       1.899  -1.911   3.154  0.00  0.00    +0.079 A 
ATOM      5  C   UNL     1       1.312  -2.664   2.130  0.00  0.00    +0.077 A 
ATOM      6  C   UNL     1       0.677  -2.019   1.091  0.00  0.00    +0.164 A 
ATOM      7  N   UNL     1       2.524  -2.492   4.190  0.00  0.00    -0.235 NA
ATOM      8  C   UNL     1       3.064  -1.760   5.136  0.00  0.00    +0.223 A 
ATOM      9  N   UNL     1       3.030  -0.437   5.130  0.00  0.00    -0.228 NA
ATOM     10  C   UNL     1       2.437   0.237   4.153  0.00  0.00    +0.113 A 
ENDROOT
BRANCH   1  12
ATOM     11  C   UNL     1      -0.028   1.424   0.016  0.00  0.00    +0.277 C 
ATOM     12  O   UNL     1      -0.006  -0.005   0.007  0.00  0.00    -0.491 OA
ENDBRANCH   1  12
BRANCH   6  13
ATOM     13  O   UNL     1       0.101  -2.747   0.099  0.00  0.00    -0.491 OA
ATOM     14  C   UNL     1       0.190  -4.170   0.203  0.00  0.00    +0.277 C 
ENDBRANCH   6  13
BRANCH  10  15
ATOM     15  S   UNL     1       2.401   1.999   4.162  0.00  0.00    -0.069 S 
BRANCH  15  16
ATOM     16  C   UNL     1       3.126   2.432   5.708  0.00  0.00    +0.016 A 
ATOM     17  C   UNL     1       4.481   2.733   5.782  0.00  0.00    +0.015 A 
ATOM     18  C   UNL     1       5.046   3.072   6.995  0.00  0.00    +0.003 A 
ATOM     19  C   UNL     1       4.266   3.113   8.137  0.00  0.00    +0.020 A 
ATOM     20  C   UNL     1       2.916   2.814   8.067  0.00  0.00    +0.042 A 
ATOM     21  C   UNL     1       2.343   2.480   6.854  0.00  0.00    +0.035 A 
ATOM     22 CL   UNL     1       1.941   2.867   9.502  0.00  0.00    -0.084 Cl
ENDBRANCH  15  16
ENDBRANCH  10  15
TORSDOF 4
