REMARK  Name = CHEMBL598007
REMARK  5 active torsions:
REMARK  status: ('A' for Active; 'I' for Inactive)
REMARK    1  A    between atoms: C_3  and  N_8
REMARK    2  A    between atoms: C_12  and  N_19
REMARK    3  A    between atoms: C_20  and  C_22
REMARK    4  A    between atoms: C_24  and  C_27
REMARK    5  A    between atoms: C_27  and  N_28
REMARK                            x       y       z     vdW  Elec       q    Type
REMARK                         _______ _______ _______ _____ _____    ______ ____
ROOT
ATOM      1  N   UNL     1      10.296   1.819   1.821  0.00  0.00    -0.299 N 
ATOM      2  C   UNL     1       9.267   1.251   1.099  0.00  0.00    +0.134 A 
ATOM      3  C   UNL     1       8.336   2.059   0.400  0.00  0.00    +0.042 A 
ATOM      4  C   UNL     1       8.413   3.455   0.407  0.00  0.00    +0.036 A 
ATOM      5  C   UNL     1       7.478   4.188  -0.293  0.00  0.00    +0.034 A 
ATOM      6  C   UNL     1       6.459   3.547  -1.005  0.00  0.00    +0.025 A 
ATOM      7  C   UNL     1       6.367   2.188  -1.025  0.00  0.00    +0.030 A 
ATOM      8  C   UNL     1       7.303   1.416  -0.324  0.00  0.00    +0.076 A 
ATOM      9  N   UNL     1       7.250   0.075  -0.316  0.00  0.00    -0.235 NA
ATOM     10  C   UNL     1       8.139  -0.622   0.350  0.00  0.00    +0.223 A 
ATOM     11  N   UNL     1       9.125  -0.066   1.036  0.00  0.00    -0.220 NA
ATOM     12  H   UNL     1      10.345   2.783   1.920  0.00  0.00    +0.154 HD
ENDROOT
BRANCH   1  15
ATOM     13  C   UNL     1      12.608  -0.983   2.382  0.00  0.00    +0.003 A 
ATOM     14  C   UNL     1      11.647  -0.181   1.798  0.00  0.00    +0.023 A 
ATOM     15  C   UNL     1      11.268   1.006   2.411  0.00  0.00    +0.033 A 
ATOM     16  C   UNL     1      11.858   1.384   3.611  0.00  0.00    +0.038 A 
ATOM     17  C   UNL     1      12.819   0.578   4.190  0.00  0.00    +0.020 A 
ATOM     18  C   UNL     1      13.194  -0.604   3.576  0.00  0.00    +0.015 A 
ATOM     19 BR   UNL     1      13.623   1.091   5.823  0.00  0.00    -0.050 Br
ENDBRANCH   1  15
BRANCH   5  20
ATOM     20  N   UNL     1       7.548   5.586  -0.291  0.00  0.00    -0.283 N 
ATOM     21  C   UNL     1       8.748   6.200  -0.296  0.00  0.00    +0.249 C 
ATOM     22  O   UNL     1       9.765   5.545  -0.216  0.00  0.00    -0.273 OA
ATOM     23  H   UNL     1       6.733   6.113  -0.286  0.00  0.00    +0.155 HD
BRANCH  21  24
ATOM     24  C   UNL     1       8.825   7.702  -0.400  0.00  0.00    +0.231 C 
ATOM     25  C   UNL     1       8.279   8.526   0.768  0.00  0.00    +0.141 C 
ATOM     26  O   UNL     1       9.681   8.389   0.515  0.00  0.00    -0.360 OA
BRANCH  25  27
ATOM     27  C   UNL     1       7.624   9.871   0.447  0.00  0.00    -0.044 C 
BRANCH  27  28
ATOM     28  N   UNL     1       7.169  10.504   1.692  0.00  0.00    +0.381 N 
ATOM     29  C   UNL     1       6.114   9.683   2.299  0.00  0.00    -0.079 C 
ATOM     30  C   UNL     1       5.692  10.295   3.637  0.00  0.00    -0.019 C 
ATOM     31  C   UNL     1       5.165  11.713   3.400  0.00  0.00    -0.004 C 
ATOM     32  C   UNL     1       6.248  12.539   2.700  0.00  0.00    -0.019 C 
ATOM     33  C   UNL     1       6.649  11.844   1.397  0.00  0.00    -0.079 C 
ATOM     34  H   UNL     1       7.944  10.579   2.333  0.00  0.00    -0.082 HD
ENDBRANCH  27  28
ENDBRANCH  25  27
ENDBRANCH  21  24
ENDBRANCH   5  20
TORSDOF 5
