REMARK  Name = CHEMBL474343
REMARK  6 active torsions:
REMARK  status: ('A' for Active; 'I' for Inactive)
REMARK    1  A    between atoms: C_2  and  C_3
REMARK    2  A    between atoms: N_5  and  C_6
REMARK    3  A    between atoms: C_11  and  N_15
REMARK    4  A    between atoms: N_15  and  C_16
REMARK    5  A    between atoms: C_19  and  O_22
REMARK    6  A    between atoms: O_22  and  C_23
REMARK                            x       y       z     vdW  Elec       q    Type
REMARK                         _______ _______ _______ _____ _____    ______ ____
ROOT
ATOM      1  C   UNL     1      -1.071  -7.324   2.315  0.00  0.00    +0.027 C 
ATOM      2  C   UNL     1      -0.634  -6.517   3.303  0.00  0.00    +0.022 C 
ATOM      3  C   UNL     1       0.750  -6.254   3.176  0.00  0.00    +0.026 C 
ATOM      4  C   UNL     1       1.221  -6.733   2.026  0.00  0.00    +0.059 C 
ATOM      5  C   UNL     1       0.135  -7.668   1.488  0.00  0.00    +0.147 C 
ATOM      6  C   UNL     1      -0.004  -7.318   0.030  0.00  0.00    +0.135 C 
ATOM      7  N   UNL     1       1.066  -6.864  -0.587  0.00  0.00    -0.222 NA
ATOM      8  C   UNL     1       2.241  -6.658   0.016  0.00  0.00    +0.223 C 
ATOM      9  N   UNL     1       2.358  -6.567   1.328  0.00  0.00    -0.239 NA
ENDROOT
BRANCH   1  12
ATOM     10  C   UNL     1      -3.353  -7.357   2.940  0.00  0.00    +0.240 C 
ATOM     11  O   UNL     1      -3.098  -6.621   3.874  0.00  0.00    -0.271 OA
ATOM     12  N   UNL     1      -2.371  -7.754   2.107  0.00  0.00    -0.285 N 
ATOM     13  H   UNL     1      -2.574  -8.341   1.362  0.00  0.00    +0.155 HD
BRANCH  10  15
ATOM     14  C   UNL     1      -5.703  -7.422   3.541  0.00  0.00    +0.013 C 
ATOM     15  C   UNL     1      -4.733  -7.814   2.719  0.00  0.00    +0.060 C 
ENDBRANCH  10  15
ENDBRANCH   1  12
BRANCH   6  16
ATOM     16  N   UNL     1      -1.190  -7.464  -0.624  0.00  0.00    -0.199 NA
BRANCH  16  17
ATOM     17  C   UNL     1      -1.244  -7.322  -2.015  0.00  0.00    +0.055 A 
ATOM     18  C   UNL     1      -2.414  -6.887  -2.624  0.00  0.00    +0.029 A 
ATOM     19  C   UNL     1      -2.467  -6.748  -3.997  0.00  0.00    +0.048 A 
ATOM     20  C   UNL     1      -1.351  -7.042  -4.768  0.00  0.00    +0.129 A 
ATOM     21  C   UNL     1      -0.182  -7.477  -4.160  0.00  0.00    +0.048 A 
ATOM     22  C   UNL     1      -0.126  -7.612  -2.787  0.00  0.00    +0.029 A 
BRANCH  20  23
ATOM     23  O   UNL     1      -1.404  -6.905  -6.119  0.00  0.00    -0.456 OA
BRANCH  23  24
ATOM     24  C   UNL     1      -2.513  -6.337  -6.660  0.00  0.00    +0.128 A 
ATOM     25  C   UNL     1      -2.442  -5.071  -7.223  0.00  0.00    +0.046 A 
ATOM     26  C   UNL     1      -3.571  -4.496  -7.773  0.00  0.00    +0.004 A 
ATOM     27  C   UNL     1      -4.772  -5.180  -7.762  0.00  0.00    +0.000 A 
ATOM     28  C   UNL     1      -4.846  -6.442  -7.201  0.00  0.00    +0.004 A 
ATOM     29  C   UNL     1      -3.719  -7.024  -6.655  0.00  0.00    +0.046 A 
ENDBRANCH  23  24
ENDBRANCH  20  23
ENDBRANCH  16  17
ENDBRANCH   6  16
TORSDOF 6
