REMARK  Name = CHEMBL472746
REMARK  6 active torsions:
REMARK  status: ('A' for Active; 'I' for Inactive)
REMARK    1  A    between atoms: C_2  and  C_3
REMARK    2  A    between atoms: N_5  and  C_6
REMARK    3  A    between atoms: N_15  and  C_16
REMARK    4  A    between atoms: C_19  and  O_22
REMARK    5  A    between atoms: O_22  and  C_23
REMARK    6  A    between atoms: C_23  and  C_24
REMARK                            x       y       z     vdW  Elec       q    Type
REMARK                         _______ _______ _______ _____ _____    ______ ____
ROOT
ATOM      1  C   UNL     1      -2.960  -3.250  -0.242  0.00  0.00    +0.027 C 
ATOM      2  C   UNL     1      -4.295  -3.367  -0.097  0.00  0.00    +0.022 C 
ATOM      3  C   UNL     1      -4.647  -4.640   0.410  0.00  0.00    +0.026 C 
ATOM      4  C   UNL     1      -3.584  -5.444   0.450  0.00  0.00    +0.059 C 
ATOM      5  C   UNL     1      -2.369  -4.540   0.245  0.00  0.00    +0.145 C 
ATOM      6  C   UNL     1      -1.515  -5.245  -0.776  0.00  0.00    +0.116 C 
ATOM      7  N   UNL     1      -1.575  -6.560  -0.810  0.00  0.00    -0.224 NA
ATOM      8  C   UNL     1      -2.378  -7.288  -0.029  0.00  0.00    +0.223 C 
ATOM      9  N   UNL     1      -3.406  -6.766   0.620  0.00  0.00    -0.239 NA
ATOM     10  N   UNL     1      -0.713  -4.550  -1.631  0.00  0.00    -0.302 N 
ATOM     11  H   UNL     1      -0.619  -3.590  -1.534  0.00  0.00    +0.153 HD
ENDROOT
BRANCH  10  12
ATOM     12  C   UNL     1      -0.024  -5.223  -2.647  0.00  0.00    +0.032 A 
ATOM     13  C   UNL     1      -0.608  -6.313  -3.278  0.00  0.00    +0.027 A 
ATOM     14  C   UNL     1       0.072  -6.976  -4.280  0.00  0.00    +0.047 A 
ATOM     15  C   UNL     1       1.338  -6.552  -4.657  0.00  0.00    +0.121 A 
ATOM     16  C   UNL     1       1.922  -5.463  -4.027  0.00  0.00    +0.047 A 
ATOM     17  C   UNL     1       1.241  -4.796  -3.029  0.00  0.00    +0.027 A 
BRANCH  15  18
ATOM     18  O   UNL     1       2.008  -7.206  -5.644  0.00  0.00    -0.487 OA
BRANCH  18  19
ATOM     19  C   UNL     1       3.307  -6.716  -5.981  0.00  0.00    +0.264 C 
BRANCH  19  20
ATOM     20  C   UNL     1       3.890  -7.558  -7.086  0.00  0.00    -0.010 A 
ATOM     21  C   UNL     1       4.640  -8.678  -6.779  0.00  0.00    +0.007 A 
ATOM     22  C   UNL     1       5.175  -9.451  -7.793  0.00  0.00    +0.000 A 
ATOM     23  C   UNL     1       4.960  -9.103  -9.114  0.00  0.00    +0.000 A 
ATOM     24  C   UNL     1       4.210  -7.984  -9.421  0.00  0.00    +0.000 A 
ATOM     25  C   UNL     1       3.671  -7.213  -8.407  0.00  0.00    +0.007 A 
ENDBRANCH  19  20
ENDBRANCH  18  19
ENDBRANCH  15  18
ENDBRANCH  10  12
BRANCH   1  28
ATOM     26  C   UNL     1      -2.946  -1.063  -1.148  0.00  0.00    +0.240 C 
ATOM     27  O   UNL     1      -4.160  -1.032  -1.066  0.00  0.00    -0.271 OA
ATOM     28  N   UNL     1      -2.272  -2.159  -0.747  0.00  0.00    -0.285 N 
ATOM     29  H   UNL     1      -1.304  -2.183  -0.812  0.00  0.00    +0.155 HD
BRANCH  26  31
ATOM     30  C   UNL     1      -2.882   1.177  -2.079  0.00  0.00    +0.013 C 
ATOM     31  C   UNL     1      -2.216   0.095  -1.683  0.00  0.00    +0.060 C 
ENDBRANCH  26  31
ENDBRANCH   1  28
TORSDOF 6
