REMARK  Name = CHEMBL93784
REMARK  9 active torsions:
REMARK  status: ('A' for Active; 'I' for Inactive)
REMARK    1  A    between atoms: C_1  and  O_2
REMARK    2  A    between atoms: O_2  and  C_3
REMARK    3  A    between atoms: C_3  and  C_4
REMARK    4  A    between atoms: N_8  and  C_9
REMARK    5  A    between atoms: C_9  and  C_10
REMARK    6  A    between atoms: C_11  and  C_12
REMARK    7  A    between atoms: N_14  and  C_15
REMARK    8  A    between atoms: C_21  and  N_25
REMARK    9  A    between atoms: N_25  and  C_26
REMARK                            x       y       z     vdW  Elec       q    Type
REMARK                         _______ _______ _______ _____ _____    ______ ____
ROOT
ATOM      1  C   UNL     1       6.550  -4.637   3.809  0.00  0.00    +0.035 A 
ATOM      2  C   UNL     1       6.918  -3.896   4.937  0.00  0.00    +0.025 A 
ATOM      3  C   UNL     1       7.855  -4.363   5.807  0.00  0.00    +0.030 A 
ATOM      4  C   UNL     1       8.464  -5.604   5.576  0.00  0.00    +0.076 A 
ATOM      5  C   UNL     1       8.097  -6.360   4.435  0.00  0.00    +0.042 A 
ATOM      6  C   UNL     1       7.128  -5.864   3.557  0.00  0.00    +0.036 A 
ATOM      7  C   UNL     1       8.730  -7.610   4.229  0.00  0.00    +0.134 A 
ATOM      8  N   UNL     1       9.634  -8.008   5.114  0.00  0.00    -0.220 NA
ATOM      9  C   UNL     1       9.945  -7.267   6.165  0.00  0.00    +0.223 A 
ATOM     10  N   UNL     1       9.392  -6.103   6.407  0.00  0.00    -0.235 NA
ENDROOT
BRANCH   1  13
ATOM     11  C   UNL     1       5.465  -2.801   2.756  0.00  0.00    +0.293 C 
ATOM     12  O   UNL     1       6.253  -2.043   3.289  0.00  0.00    -0.260 OA
ATOM     13  N   UNL     1       5.584  -4.132   2.933  0.00  0.00    -0.275 N 
ATOM     14  H   UNL     1       5.000  -4.740   2.453  0.00  0.00    +0.156 HD
BRANCH  11  16
ATOM     15  C   UNL     1       3.545  -1.852   1.271  0.00  0.00    -0.077 C 
ATOM     16  C   UNL     1       4.410  -2.280   1.940  0.00  0.00    -0.006 C 
BRANCH  15  17
ATOM     17  C   UNL     1       2.461  -1.315   0.432  0.00  0.00    +0.174 C 
BRANCH  17  22
ATOM     18  C   UNL     1       0.734  -1.957  -1.147  0.00  0.00    +0.083 C 
ATOM     19  C   UNL     1      -0.696  -2.339  -0.710  0.00  0.00    +0.022 C 
ATOM     20  C   UNL     1      -0.457  -3.500   0.291  0.00  0.00    +0.017 C 
ATOM     21  C   UNL     1       0.855  -3.053   0.982  0.00  0.00    +0.086 C 
ATOM     22  N   UNL     1       1.653  -2.425  -0.092  0.00  0.00    -0.286 NA
BRANCH  18  23
ATOM     23  C   UNL     1       0.845  -0.439  -1.298  0.00  0.00    +0.178 C 
BRANCH  23  25
ATOM     24  C   UNL     1      -0.127   1.434  -2.434  0.00  0.00    +0.194 C 
ATOM     25  O   UNL     1      -0.145   0.022  -2.220  0.00  0.00    -0.381 OA
ENDBRANCH  23  25
ENDBRANCH  18  23
ENDBRANCH  17  22
ENDBRANCH  15  17
ENDBRANCH  11  16
ENDBRANCH   1  13
BRANCH   7  26
ATOM     26  N   UNL     1       8.414  -8.392   3.136  0.00  0.00    -0.299 N 
ATOM     27  H   UNL     1       7.801  -8.059   2.462  0.00  0.00    +0.154 HD
BRANCH  26  28
ATOM     28  C   UNL     1       8.977  -9.664   3.002  0.00  0.00    +0.033 A 
ATOM     29  C   UNL     1       9.269 -10.166   1.740  0.00  0.00    +0.023 A 
ATOM     30  C   UNL     1       9.826 -11.423   1.609  0.00  0.00    +0.003 A 
ATOM     31  C   UNL     1      10.092 -12.183   2.734  0.00  0.00    +0.015 A 
ATOM     32  C   UNL     1       9.803 -11.687   3.992  0.00  0.00    +0.020 A 
ATOM     33  C   UNL     1       9.251 -10.427   4.130  0.00  0.00    +0.038 A 
ATOM     34 BR   UNL     1      10.169 -12.730   5.526  0.00  0.00    -0.050 Br
ENDBRANCH  26  28
ENDBRANCH   7  26
TORSDOF 8
