REMARK  Name = CHEMBL438440
REMARK  6 active torsions:
REMARK  status: ('A' for Active; 'I' for Inactive)
REMARK    1  A    between atoms: C_3  and  C_8
REMARK    2  A    between atoms: C_8  and  O_9
REMARK    3  A    between atoms: O_9  and  C_10
REMARK    4  A    between atoms: C_13  and  N_17
REMARK    5  A    between atoms: C_19  and  C_24
REMARK    6  A    between atoms: C_25  and  C_26
REMARK                            x       y       z     vdW  Elec       q    Type
REMARK                         _______ _______ _______ _____ _____    ______ ____
ROOT
ATOM      1  C   UNL     1       5.262   3.100   1.486  0.00  0.00    +0.139 A 
ATOM      2  C   UNL     1       6.059   3.402   0.393  0.00  0.00    +0.049 A 
ATOM      3  C   UNL     1       7.233   4.108   0.568  0.00  0.00    +0.027 A 
ATOM      4  C   UNL     1       7.616   4.516   1.839  0.00  0.00    +0.034 A 
ATOM      5  C   UNL     1       6.817   4.213   2.934  0.00  0.00    +0.047 A 
ATOM      6  C   UNL     1       5.640   3.511   2.757  0.00  0.00    +0.084 A 
ATOM      7 CL   UNL     1       4.638   3.138   4.124  0.00  0.00    -0.080 Cl
ENDROOT
BRANCH   4   8
ATOM      8  N   UNL     1       8.806   5.231   2.017  0.00  0.00    -0.298 N 
ATOM      9  C   UNL     1       9.245   6.099   1.034  0.00  0.00    +0.142 A 
ATOM     10  C   UNL     1      10.499   6.737   1.145  0.00  0.00    +0.083 A 
ATOM     11  C   UNL     1      10.888   7.603   0.119  0.00  0.00    +0.132 A 
ATOM     12  N   UNL     1      10.073   7.788  -0.907  0.00  0.00    -0.242 NA
ATOM     13  C   UNL     1       8.909   7.173  -0.974  0.00  0.00    +0.223 A 
ATOM     14  N   UNL     1       8.497   6.343  -0.037  0.00  0.00    -0.219 NA
ATOM     15  H   UNL     1       9.323   5.117   2.830  0.00  0.00    +0.154 HD
BRANCH  10  16
ATOM     16  C   UNL     1      11.347   6.505   2.275  0.00  0.00    -0.056 C 
ATOM     17  C   UNL     1      12.042   6.314   3.202  0.00  0.00    -0.059 C 
BRANCH  17  18
ATOM     18  C   UNL     1      12.890   6.082   4.332  0.00  0.00    +0.043 A 
ATOM     19  C   UNL     1      12.493   5.208   5.354  0.00  0.00    +0.020 A 
ATOM     20  C   UNL     1      13.349   5.019   6.423  0.00  0.00    +0.021 A 
ATOM     21  C   UNL     1      14.558   5.691   6.451  0.00  0.00    +0.111 A 
ATOM     22  N   UNL     1      14.906   6.509   5.476  0.00  0.00    -0.262 NA
ATOM     23  C   UNL     1      14.129   6.719   4.434  0.00  0.00    +0.127 A 
ENDBRANCH  17  18
ENDBRANCH  10  16
ENDBRANCH   4   8
BRANCH   1  24
ATOM     24  O   UNL     1       4.106   2.404   1.313  0.00  0.00    -0.486 OA
BRANCH  24  25
ATOM     25  C   UNL     1       3.779   2.012  -0.022  0.00  0.00    +0.264 C 
BRANCH  25  28
ATOM     26  C   UNL     1       0.084   1.248  -0.169  0.00  0.00    +0.003 A 
ATOM     27  C   UNL     1       1.281   1.939  -0.172  0.00  0.00    +0.007 A 
ATOM     28  C   UNL     1       2.474   1.258  -0.018  0.00  0.00    -0.008 A 
ATOM     29  C   UNL     1       2.471  -0.116   0.139  0.00  0.00    +0.045 A 
ATOM     30  C   UNL     1       1.273  -0.809   0.142  0.00  0.00    +0.124 A 
ATOM     31  C   UNL     1       0.078  -0.125  -0.012  0.00  0.00    +0.038 A 
ATOM     32  F   UNL     1       1.269  -2.151   0.295  0.00  0.00    -0.205 F 
ENDBRANCH  25  28
ENDBRANCH  24  25
ENDBRANCH   1  24
TORSDOF 6
