REMARK  Name = CHEMBL516022
REMARK  4 active torsions:
REMARK  status: ('A' for Active; 'I' for Inactive)
REMARK    1  A    between atoms: C_1  and  C_2
REMARK    2  A    between atoms: C_6  and  N_8
REMARK    3  A    between atoms: N_8  and  C_9
REMARK    4  A    between atoms: C_19  and  C_21
REMARK                            x       y       z     vdW  Elec       q    Type
REMARK                         _______ _______ _______ _____ _____    ______ ____
ROOT
ATOM      1  C   UNL     1      -0.032  -4.157   2.384  0.00  0.00    +0.137 C 
ATOM      2  N   UNL     1      -0.025  -4.836   1.257  0.00  0.00    -0.222 NA
ATOM      3  C   UNL     1      -0.039  -6.171   1.186  0.00  0.00    +0.223 C 
ATOM      4  N   UNL     1       0.262  -6.938   2.219  0.00  0.00    -0.238 NA
ATOM      5  C   UNL     1       0.514  -6.292   3.367  0.00  0.00    +0.078 C 
ATOM      6  C   UNL     1       1.313  -6.521   4.411  0.00  0.00    +0.137 C 
ATOM      7  N   UNL     1       1.475  -5.414   5.160  0.00  0.00    -0.242 NA
ATOM      8  C   UNL     1       0.721  -4.415   4.782  0.00  0.00    +0.118 C 
ATOM      9  C   UNL     1      -0.129  -4.941   3.664  0.00  0.00    +0.168 C 
ATOM     10  N   UNL     1       0.712  -3.142   5.302  0.00  0.00    -0.269 N 
ATOM     11  C   UNL     1       1.545  -2.820   6.311  0.00  0.00    +0.241 C 
ATOM     12  O   UNL     1       2.305  -3.656   6.762  0.00  0.00    -0.270 OA
ATOM     13  H   UNL     1       0.106  -2.475   4.942  0.00  0.00    +0.156 HD
ENDROOT
BRANCH  11  14
ATOM     14  C   UNL     1       1.536  -1.459   6.867  0.00  0.00    +0.060 C 
ATOM     15  C   UNL     1       2.358  -1.142   7.863  0.00  0.00    +0.013 C 
ENDBRANCH  11  14
BRANCH   1  16
ATOM     16  N   UNL     1       0.052  -2.797   2.391  0.00  0.00    -0.199 NA
BRANCH  16  22
ATOM     17  C   UNL     1      -2.279  -2.471  -1.924  0.00  0.00    +0.044 C 
ATOM     18  C   UNL     1      -1.362  -1.891  -0.878  0.00  0.00    -0.049 A 
ATOM     19  C   UNL     1      -0.804  -0.639  -1.066  0.00  0.00    +0.003 A 
ATOM     20  C   UNL     1       0.037  -0.103  -0.109  0.00  0.00    +0.002 A 
ATOM     21  C   UNL     1       0.323  -0.816   1.039  0.00  0.00    +0.025 A 
ATOM     22  C   UNL     1      -0.235  -2.073   1.231  0.00  0.00    +0.055 A 
ATOM     23  C   UNL     1      -1.084  -2.607   0.269  0.00  0.00    +0.028 A 
ENDBRANCH  16  22
ENDBRANCH   1  16
TORSDOF 3
