REMARK  Name = CHEMBL460746
REMARK  7 active torsions:
REMARK  status: ('A' for Active; 'I' for Inactive)
REMARK    1  A    between atoms: C_8  and  C_10
REMARK    2  A    between atoms: C_12  and  N_17
REMARK    3  A    between atoms: C_15  and  O_16
REMARK    4  A    between atoms: N_17  and  C_18
REMARK    5  A    between atoms: C_18  and  N_20
REMARK    6  A    between atoms: C_21  and  C_23
REMARK    7  A    between atoms: C_26  and  N_29
REMARK                            x       y       z     vdW  Elec       q    Type
REMARK                         _______ _______ _______ _____ _____    ______ ____
ROOT
ATOM      1  C   UNL     1       2.989  -4.031   0.202  0.00  0.00    +0.050 A 
ATOM      2  C   UNL     1       4.330  -4.417   0.200  0.00  0.00    +0.037 A 
ATOM      3  C   UNL     1       4.668  -5.733  -0.072  0.00  0.00    +0.033 A 
ATOM      4  C   UNL     1       3.674  -6.667  -0.342  0.00  0.00    +0.027 A 
ATOM      5  C   UNL     1       2.345  -6.290  -0.342  0.00  0.00    +0.048 A 
ATOM      6  C   UNL     1       1.994  -4.978  -0.066  0.00  0.00    +0.127 A 
ENDROOT
BRANCH   1  14
ATOM      7  C   UNL     1      -0.005   1.256   1.201  0.00  0.00    +0.002 A 
ATOM      8  C   UNL     1       1.164   1.968   1.428  0.00  0.00    +0.001 A 
ATOM      9  C   UNL     1       2.381   1.315   1.353  0.00  0.00    +0.017 A 
ATOM     10  C   UNL     1       2.410  -0.025   1.057  0.00  0.00    +0.040 A 
ATOM     11  C   UNL     1       1.236  -0.779   0.821  0.00  0.00    +0.079 A 
ATOM     12  C   UNL     1       0.013  -0.072   0.907  0.00  0.00    +0.029 A 
ATOM     13  N   UNL     1       1.426  -2.084   0.543  0.00  0.00    -0.239 NA
ATOM     14  C   UNL     1       2.622  -2.629   0.491  0.00  0.00    +0.113 A 
ATOM     15  S   UNL     1       3.688  -1.244   0.861  0.00  0.00    -0.067 S 
ENDBRANCH   1  14
BRANCH   6  16
ATOM     16  O   UNL     1       0.686  -4.611  -0.060  0.00  0.00    -0.506 OA
ATOM     17  H   UNL     1       0.357  -4.313  -0.920  0.00  0.00    +0.292 HD
ENDBRANCH   6  16
BRANCH   3  18
ATOM     18  N   UNL     1       6.013  -6.123  -0.075  0.00  0.00    -0.297 N 
ATOM     19  H   UNL     1       6.343  -6.721  -0.763  0.00  0.00    +0.154 HD
BRANCH  18  20
ATOM     20  C   UNL     1       6.849  -5.668   0.880  0.00  0.00    +0.141 C 
ATOM     21  S   UNL     1       6.239  -4.728   2.175  0.00  0.00    -0.018 S 
BRANCH  20  22
ATOM     22  N   UNL     1       8.165  -5.952   0.815  0.00  0.00    -0.264 N 
ATOM     23  C   UNL     1       9.000  -5.496   1.769  0.00  0.00    +0.250 C 
ATOM     24  O   UNL     1       8.567  -4.830   2.688  0.00  0.00    -0.270 OA
ATOM     25  H   UNL     1       8.510  -6.484   0.081  0.00  0.00    +0.157 HD
BRANCH  23  26
ATOM     26  C   UNL     1      10.443  -5.808   1.698  0.00  0.00    +0.037 A 
ATOM     27  C   UNL     1      10.944  -6.569   0.640  0.00  0.00    +0.015 A 
ATOM     28  C   UNL     1      12.293  -6.855   0.580  0.00  0.00    +0.033 A 
ATOM     29  C   UNL     1      13.147  -6.391   1.564  0.00  0.00    +0.126 A 
ATOM     30  C   UNL     1      12.656  -5.636   2.615  0.00  0.00    +0.033 A 
ATOM     31  C   UNL     1      11.311  -5.338   2.685  0.00  0.00    +0.015 A 
BRANCH  29  32
ATOM     32  N   UNL     1      14.592  -6.702   1.492  0.00  0.00    +0.056 N 
ATOM     33  O   UNL     1      15.024  -7.362   0.575  0.00  0.00    -0.126 OA
ATOM     34  O   UNL     1      15.341  -6.298   2.351  0.00  0.00    -0.126 OA
ENDBRANCH  29  32
ENDBRANCH  23  26
ENDBRANCH  20  22
ENDBRANCH  18  20
ENDBRANCH   3  18
TORSDOF 7
