REMARK  Name = CHEMBL179074
REMARK  14 active torsions:
REMARK  status: ('A' for Active; 'I' for Inactive)
REMARK    1  A    between atoms: C_1  and  C_2
REMARK    2  A    between atoms: C_2  and  O_3
REMARK    3  A    between atoms: O_3  and  C_4
REMARK    4  A    between atoms: C_9  and  N_10
REMARK    5  A    between atoms: C_11  and  C_13
REMARK    6  A    between atoms: C_14  and  C_15
REMARK    7  A    between atoms: C_15  and  N_16
REMARK    8  A    between atoms: N_16  and  C_17
REMARK    9  A    between atoms: N_16  and  C_18
REMARK   10  A    between atoms: C_19  and  N_25
REMARK   11  A    between atoms: C_20  and  C_23
REMARK   12  A    between atoms: N_25  and  C_26
REMARK   13  A    between atoms: C_29  and  C_33
REMARK   14  A    between atoms: C_33  and  N_34
REMARK                            x       y       z     vdW  Elec       q    Type
REMARK                         _______ _______ _______ _____ _____    ______ ____
ROOT
ATOM      1  C   UNL     1       1.673  -3.735  -1.555  0.00  0.00    +0.144 A 
ATOM      2  C   UNL     1       0.364  -4.086  -1.320  0.00  0.00    +0.076 A 
ATOM      3  C   UNL     1       0.021  -4.760  -0.138  0.00  0.00    +0.076 A 
ATOM      4  C   UNL     1       1.035  -5.069   0.801  0.00  0.00    +0.025 A 
ATOM      5  C   UNL     1       2.364  -4.704   0.544  0.00  0.00    +0.039 A 
ATOM      6  C   UNL     1       2.677  -4.048  -0.626  0.00  0.00    +0.077 A 
ATOM      7  C   UNL     1       0.684  -5.748   1.991  0.00  0.00    +0.060 A 
ATOM      8  C   UNL     1      -0.666  -6.083   2.181  0.00  0.00    +0.091 A 
ATOM      9  C   UNL     1      -1.604  -5.736   1.195  0.00  0.00    +0.132 A 
ATOM     10  N   UNL     1      -1.251  -5.108   0.103  0.00  0.00    -0.253 NA
ENDROOT
BRANCH   6  11
ATOM     11  N   UNL     1       4.004  -3.687  -0.886  0.00  0.00    -0.279 N 
ATOM     12  C   UNL     1       4.847  -3.435   0.134  0.00  0.00    +0.241 C 
ATOM     13  O   UNL     1       4.486  -3.620   1.281  0.00  0.00    -0.271 OA
ATOM     14  H   UNL     1       4.317  -3.618  -1.802  0.00  0.00    +0.155 HD
BRANCH  12  15
ATOM     15  C   UNL     1       6.203  -2.935  -0.138  0.00  0.00    +0.061 C 
ATOM     16  C   UNL     1       7.035  -2.686   0.870  0.00  0.00    -0.040 C 
BRANCH  16  17
ATOM     17  C   UNL     1       8.425  -2.174   0.590  0.00  0.00    -0.052 C 
BRANCH  17  18
ATOM     18  N   UNL     1       8.644  -0.925   1.331  0.00  0.00    +0.378 N 
ATOM     19  C   UNL     1       8.614  -1.200   2.774  0.00  0.00    -0.096 C 
ATOM     20  C   UNL     1       9.952  -0.363   0.968  0.00  0.00    -0.096 C 
ATOM     21  H   UNL     1       7.918  -0.264   1.100  0.00  0.00    -0.082 HD
ENDBRANCH  17  18
ENDBRANCH  16  17
ENDBRANCH  12  15
ENDBRANCH   6  11
BRANCH   8  22
ATOM     22  C   UNL     1      -1.081  -6.771   3.366  0.00  0.00    +0.103 C 
ATOM     23  N   UNL     1      -1.411  -7.317   4.306  0.00  0.00    -0.191 NA
ENDBRANCH   8  22
BRANCH   7  24
ATOM     24  N   UNL     1       1.637  -6.072   2.936  0.00  0.00    -0.313 N 
ATOM     25  H   UNL     1       1.951  -5.398   3.559  0.00  0.00    +0.152 HD
BRANCH  24  26
ATOM     26  C   UNL     1       2.151  -7.370   2.994  0.00  0.00    +0.033 A 
ATOM     27  C   UNL     1       2.006  -8.225   1.908  0.00  0.00    +0.023 A 
ATOM     28  C   UNL     1       2.515  -9.507   1.968  0.00  0.00    +0.008 A 
ATOM     29  C   UNL     1       3.168  -9.942   3.107  0.00  0.00    -0.009 A 
ATOM     30  C   UNL     1       3.315  -9.093   4.190  0.00  0.00    +0.048 A 
ATOM     31  C   UNL     1       2.813  -7.806   4.134  0.00  0.00    +0.043 A 
ATOM     32 CL   UNL     1       4.135  -9.643   5.618  0.00  0.00    -0.083 Cl
BRANCH  29  33
ATOM     33  C   UNL     1       3.722 -11.342   3.168  0.00  0.00    +0.159 C 
BRANCH  33  34
ATOM     34  N   UNL     1       5.162 -11.310   2.902  0.00  0.00    -0.334 N 
ATOM     35  C   UNL     1       5.764 -11.412   1.677  0.00  0.00    +0.105 A 
ATOM     36  C   UNL     1       7.092 -11.335   1.888  0.00  0.00    +0.101 A 
ATOM     37  N   UNL     1       7.295 -11.190   3.206  0.00  0.00    -0.352 N 
ATOM     38  C   UNL     1       6.143 -11.170   3.819  0.00  0.00    +0.174 A 
ATOM     39  H   UNL     1       8.161 -11.110   3.635  0.00  0.00    +0.166 HD
ENDBRANCH  33  34
ENDBRANCH  29  33
ENDBRANCH  24  26
ENDBRANCH   7  24
BRANCH   1  40
ATOM     40  O   UNL     1       1.999  -3.083  -2.702  0.00  0.00    -0.490 OA
BRANCH  40  42
ATOM     41  C   UNL     1       1.489  -2.062  -4.832  0.00  0.00    +0.048 C 
ATOM     42  C   UNL     1       0.933  -2.793  -3.608  0.00  0.00    +0.226 C 
ENDBRANCH  40  42
ENDBRANCH   1  40
TORSDOF 11
