REMARK  Name = CHEMBL398961
REMARK  15 active torsions:
REMARK  status: ('A' for Active; 'I' for Inactive)
REMARK    1  A    between atoms: C_1  and  C_2
REMARK    2  A    between atoms: C_2  and  N_3
REMARK    3  A    between atoms: N_3  and  C_4
REMARK    4  A    between atoms: N_3  and  C_6
REMARK    5  A    between atoms: C_4  and  C_5
REMARK    6  A    between atoms: C_6  and  C_7
REMARK    7  A    between atoms: C_6  and  C_8
REMARK    8  A    between atoms: C_6  and  C_24
REMARK    9  A    between atoms: C_8  and  C_9
REMARK   10  A    between atoms: C_9  and  C_10
REMARK   11  A    between atoms: C_13  and  O_22
REMARK   12  A    between atoms: C_14  and  O_20
REMARK   13  A    between atoms: O_20  and  C_21
REMARK   14  A    between atoms: O_22  and  C_23
REMARK   15  A    between atoms: C_24  and  C_25
REMARK                            x       y       z     vdW  Elec       q    Type
REMARK                         _______ _______ _______ _____ _____    ______ ____
ROOT
ATOM      1  C   UNL     1       0.464  -2.865  -0.489  0.00  0.00    -0.006 C 
ENDROOT
BRANCH   1   2
ATOM      2  C   UNL     1      -0.613  -2.240   0.400  0.00  0.00    -0.064 C 
ATOM      3  C   UNL     1      -0.387  -2.665   1.852  0.00  0.00    -0.009 C 
BRANCH   2   4
ATOM      4  N   UNL     1      -0.541  -0.776   0.300  0.00  0.00    +0.383 N 
ATOM      5  H   UNL     1       0.424  -0.485   0.315  0.00  0.00    -0.081 HD
BRANCH   4   7
ATOM      6  C   UNL     1      -0.445   0.906  -1.477  0.00  0.00    -0.017 C 
ATOM      7  C   UNL     1      -1.165  -0.339  -0.956  0.00  0.00    -0.081 C 
ENDBRANCH   4   7
BRANCH   4   8
ATOM      8  C   UNL     1      -1.252  -0.173   1.436  0.00  0.00    -0.081 C 
ATOM      9  C   UNL     1      -1.066   1.345   1.406  0.00  0.00    -0.017 C 
ENDBRANCH   4   8
ENDBRANCH   2   4
BRANCH   2  10
ATOM     10  C   UNL     1      -1.993  -2.715  -0.062  0.00  0.00    +0.023 C 
BRANCH  10  11
ATOM     11  C   UNL     1      -3.047  -2.174   0.869  0.00  0.00    -0.049 A 
ATOM     12  C   UNL     1      -3.149  -2.662   2.158  0.00  0.00    +0.003 A 
ATOM     13  C   UNL     1      -4.116  -2.166   3.011  0.00  0.00    +0.000 A 
ATOM     14  C   UNL     1      -4.982  -1.180   2.575  0.00  0.00    +0.000 A 
ATOM     15  C   UNL     1      -4.880  -0.691   1.286  0.00  0.00    +0.000 A 
ATOM     16  C   UNL     1      -3.910  -1.185   0.434  0.00  0.00    +0.003 A 
ENDBRANCH  10  11
ENDBRANCH   2  10
ENDBRANCH   1   2
BRANCH   1  17
ATOM     17  C   UNL     1       1.847  -2.444   0.014  0.00  0.00    +0.055 C 
BRANCH  17  18
ATOM     18  C   UNL     1       2.903  -2.958  -0.930  0.00  0.00    +0.052 A 
ATOM     19  C   UNL     1       3.480  -4.226  -0.743  0.00  0.00    +0.025 A 
ATOM     20  C   UNL     1       3.106  -5.065   0.319  0.00  0.00    +0.061 A 
ATOM     21  C   UNL     1       3.700  -6.286   0.452  0.00  0.00    +0.162 A 
ATOM     22  C   UNL     1       4.679  -6.712  -0.459  0.00  0.00    +0.164 A 
ATOM     23  C   UNL     1       5.062  -5.915  -1.501  0.00  0.00    +0.077 A 
ATOM     24  C   UNL     1       4.470  -4.656  -1.665  0.00  0.00    +0.078 A 
ATOM     25  N   UNL     1       4.810  -3.838  -2.669  0.00  0.00    -0.235 NA
ATOM     26  C   UNL     1       4.235  -2.666  -2.791  0.00  0.00    +0.222 A 
ATOM     27  N   UNL     1       3.304  -2.232  -1.954  0.00  0.00    -0.240 NA
BRANCH  22  28
ATOM     28  O   UNL     1       5.254  -7.932  -0.303  0.00  0.00    -0.491 OA
ATOM     29  C   UNL     1       6.245  -8.311  -1.261  0.00  0.00    +0.277 C 
ENDBRANCH  22  28
BRANCH  21  30
ATOM     30  O   UNL     1       3.338  -7.100   1.479  0.00  0.00    -0.491 OA
ATOM     31  C   UNL     1       2.337  -6.611   2.373  0.00  0.00    +0.277 C 
ENDBRANCH  21  30
ENDBRANCH  17  18
ENDBRANCH   1  17
TORSDOF 10
