REMARK  Name = CHEMBL56393
REMARK  7 active torsions:
REMARK  status: ('A' for Active; 'I' for Inactive)
REMARK    1  A    between atoms: C_3  and  O_22
REMARK    2  A    between atoms: C_4  and  O_21
REMARK    3  A    between atoms: C_6  and  C_7
REMARK    4  A    between atoms: C_8  and  C_9
REMARK    5  A    between atoms: C_8  and  C_11
REMARK    6  A    between atoms: C_11  and  C_13
REMARK    7  A    between atoms: C_17  and  O_19
REMARK                            x       y       z     vdW  Elec       q    Type
REMARK                         _______ _______ _______ _____ _____    ______ ____
ROOT
ATOM      1  C   UNL     1      -1.249  -0.751   0.425  0.00  0.00    +0.030 C 
ATOM      2  C   UNL     1      -2.453  -0.087   0.309  0.00  0.00    +0.099 C 
ENDROOT
BRANCH   1   8
ATOM      3  C   UNL     1       1.130  -0.391   1.042  0.00  0.00    +0.012 A 
ATOM      4  C   UNL     1       2.311   0.303   0.909  0.00  0.00    +0.050 A 
ATOM      5  C   UNL     1       2.397   1.376   0.031  0.00  0.00    +0.158 A 
ATOM      6  C   UNL     1       1.286   1.757  -0.724  0.00  0.00    +0.159 A 
ATOM      7  C   UNL     1       0.097   1.068  -0.599  0.00  0.00    +0.057 A 
ATOM      8  C   UNL     1       0.009  -0.015   0.288  0.00  0.00    -0.020 A 
BRANCH   6   9
ATOM      9  O   UNL     1       1.375   2.809  -1.581  0.00  0.00    -0.503 OA
ATOM     10  H   UNL     1       1.651   2.565  -2.475  0.00  0.00    +0.292 HD
ENDBRANCH   6   9
BRANCH   5  11
ATOM     11  O   UNL     1       3.565   2.057  -0.095  0.00  0.00    -0.503 OA
ATOM     12  H   UNL     1       4.154   1.705  -0.776  0.00  0.00    +0.292 HD
ENDBRANCH   5  11
ENDBRANCH   1   8
BRANCH   2  13
ATOM     13  C   UNL     1      -2.478   1.343   0.245  0.00  0.00    +0.103 C 
ATOM     14  N   UNL     1      -2.499   2.478   0.195  0.00  0.00    -0.191 NA
ENDBRANCH   2  13
BRANCH   2  15
ATOM     15  C   UNL     1      -3.709  -0.849   0.249  0.00  0.00    +0.203 C 
ATOM     16  O   UNL     1      -3.682  -2.064   0.186  0.00  0.00    -0.286 OA
BRANCH  15  17
ATOM     17  C   UNL     1      -5.003  -0.139   0.266  0.00  0.00    +0.027 A 
ATOM     18  C   UNL     1      -6.128  -0.720  -0.326  0.00  0.00    +0.016 A 
ATOM     19  C   UNL     1      -7.335  -0.057  -0.309  0.00  0.00    +0.055 A 
ATOM     20  C   UNL     1      -7.438   1.189   0.294  0.00  0.00    +0.220 A 
ATOM     21  C   UNL     1      -6.320   1.775   0.887  0.00  0.00    +0.164 A 
ATOM     22  C   UNL     1      -5.108   1.113   0.879  0.00  0.00    +0.061 A 
ATOM     23  O   UNL     1      -8.630   1.840   0.307  0.00  0.00    -0.284 OA
BRANCH  21  24
ATOM     24  O   UNL     1      -6.424   2.996   1.476  0.00  0.00    -0.503 OA
ATOM     25  H   UNL     1      -6.657   2.961   2.414  0.00  0.00    +0.292 HD
ENDBRANCH  21  24
ENDBRANCH  15  17
ENDBRANCH   2  15
TORSDOF 7
