REMARK  Name = CHEMBL272935
REMARK  11 active torsions:
REMARK  status: ('A' for Active; 'I' for Inactive)
REMARK    1  A    between atoms: C_1  and  N_2
REMARK    2  A    between atoms: N_5  and  C_8
REMARK    3  A    between atoms: C_8  and  C_9
REMARK    4  A    between atoms: C_9  and  C_10
REMARK    5  A    between atoms: C_10  and  O_11
REMARK    6  A    between atoms: O_11  and  C_12
REMARK    7  A    between atoms: C_21  and  N_22
REMARK    8  A    between atoms: N_22  and  C_23
REMARK    9  A    between atoms: C_26  and  O_30
REMARK   10  A    between atoms: O_30  and  C_31
REMARK   11  A    between atoms: C_31  and  C_32
REMARK                            x       y       z     vdW  Elec       q    Type
REMARK                         _______ _______ _______ _____ _____    ______ ____
ROOT
ATOM      1  C   UNL     1       0.948  -7.821   3.904  0.00  0.00    +0.246 A 
ATOM      2  C   UNL     1       1.168  -8.481   5.185  0.00  0.00    +0.121 A 
ATOM      3  C   UNL     1       1.034  -9.864   4.949  0.00  0.00    +0.164 A 
ATOM      4  N   UNL     1       0.755 -10.011   3.624  0.00  0.00    -0.257 N 
ATOM      5  H   UNL     1       0.610 -10.857   3.172  0.00  0.00    +0.191 HD
ATOM      6  N   UNL     1       0.704  -8.751   3.019  0.00  0.00    -0.134 NA
ATOM      7  N   UNL     1       1.190 -10.705   5.971  0.00  0.00    -0.216 NA
ATOM      8  C   UNL     1       1.462 -10.253   7.176  0.00  0.00    +0.225 A 
ATOM      9  N   UNL     1       1.597  -8.966   7.443  0.00  0.00    -0.220 NA
ATOM     10  C   UNL     1       1.460  -8.049   6.490  0.00  0.00    +0.141 A 
ENDROOT
BRANCH  10  11
ATOM     11  N   UNL     1       1.601  -6.705   6.776  0.00  0.00    -0.299 N 
ATOM     12  H   UNL     1       1.417  -6.042   6.092  0.00  0.00    +0.154 HD
BRANCH  11  13
ATOM     13  C   UNL     1       2.010  -6.299   8.052  0.00  0.00    +0.034 A 
ATOM     14  C   UNL     1       1.497  -5.135   8.609  0.00  0.00    +0.027 A 
ATOM     15  C   UNL     1       1.901  -4.736   9.868  0.00  0.00    +0.049 A 
ATOM     16  C   UNL     1       2.819  -5.497  10.576  0.00  0.00    +0.139 A 
ATOM     17  C   UNL     1       3.333  -6.660  10.021  0.00  0.00    +0.084 A 
ATOM     18  C   UNL     1       2.925  -7.064   8.764  0.00  0.00    +0.047 A 
ATOM     19 CL   UNL     1       4.482  -7.612  10.908  0.00  0.00    -0.080 Cl
BRANCH  16  20
ATOM     20  O   UNL     1       3.216  -5.102  11.816  0.00  0.00    -0.484 OA
BRANCH  20  21
ATOM     21  C   UNL     1       2.647  -3.894  12.326  0.00  0.00    +0.284 C 
BRANCH  21  22
ATOM     22  C   UNL     1       3.201  -3.619  13.700  0.00  0.00    +0.078 A 
ATOM     23  C   UNL     1       4.120  -4.491  14.253  0.00  0.00    +0.027 A 
ATOM     24  C   UNL     1       4.624  -4.229  15.518  0.00  0.00    +0.003 A 
ATOM     25  C   UNL     1       4.182  -3.094  16.182  0.00  0.00    +0.020 A 
ATOM     26  C   UNL     1       3.262  -2.268  15.565  0.00  0.00    +0.111 A 
ATOM     27  N   UNL     1       2.808  -2.547  14.358  0.00  0.00    -0.256 NA
ENDBRANCH  21  22
ENDBRANCH  20  21
ENDBRANCH  16  20
ENDBRANCH  11  13
ENDBRANCH  10  11
BRANCH   1  28
ATOM     28  O   UNL     1       0.983  -6.482   3.673  0.00  0.00    -0.475 OA
BRANCH  28  29
ATOM     29  C   UNL     1       0.731  -6.047   2.336  0.00  0.00    +0.232 C 
BRANCH  29  30
ATOM     30  C   UNL     1       0.813  -4.521   2.272  0.00  0.00    +0.056 C 
BRANCH  30  31
ATOM     31  C   UNL     1       0.543  -4.055   0.839  0.00  0.00    +0.087 C 
BRANCH  31  36
ATOM     32  C   UNL     1       1.603   1.360  -0.302  0.00  0.00    -0.096 C 
ATOM     33  N   UNL     1       1.559  -0.108  -0.283  0.00  0.00    +0.379 N 
ATOM     34  C   UNL     1       0.182  -0.560  -0.518  0.00  0.00    -0.064 C 
ATOM     35  C   UNL     1       0.139  -2.090  -0.517  0.00  0.00    +0.066 C 
ATOM     36  N   UNL     1       0.622  -2.589   0.778  0.00  0.00    -0.306 NA
ATOM     37  C   UNL     1       1.992  -2.124   1.039  0.00  0.00    +0.066 C 
ATOM     38  C   UNL     1       2.019  -0.594   1.025  0.00  0.00    -0.064 C 
ATOM     39  H   UNL     1       2.161  -0.472  -1.007  0.00  0.00    -0.082 HD
ENDBRANCH  31  36
ENDBRANCH  30  31
ENDBRANCH  29  30
ENDBRANCH  28  29
ENDBRANCH   1  28
TORSDOF 10
