REMARK  Name = CHEMBL94123
REMARK  4 active torsions:
REMARK  status: ('A' for Active; 'I' for Inactive)
REMARK    1  A    between atoms: C_3  and  N_8
REMARK    2  A    between atoms: C_12  and  N_19
REMARK    3  A    between atoms: C_20  and  C_22
REMARK    4  A    between atoms: C_23  and  N_24
REMARK                            x       y       z     vdW  Elec       q    Type
REMARK                         _______ _______ _______ _____ _____    ______ ____
ROOT
ATOM      1  N   UNL     1       2.262   5.788  -4.868  0.00  0.00    -0.299 N 
ATOM      2  C   UNL     1       3.213   4.873  -5.274  0.00  0.00    +0.134 A 
ATOM      3  C   UNL     1       4.510   4.871  -4.704  0.00  0.00    +0.042 A 
ATOM      4  C   UNL     1       4.887   5.784  -3.715  0.00  0.00    +0.036 A 
ATOM      5  C   UNL     1       6.166   5.732  -3.198  0.00  0.00    +0.034 A 
ATOM      6  C   UNL     1       7.080   4.778  -3.656  0.00  0.00    +0.025 A 
ATOM      7  C   UNL     1       6.732   3.880  -4.619  0.00  0.00    +0.030 A 
ATOM      8  C   UNL     1       5.440   3.907  -5.163  0.00  0.00    +0.076 A 
ATOM      9  N   UNL     1       5.054   3.041  -6.113  0.00  0.00    -0.235 NA
ATOM     10  C   UNL     1       3.839   3.090  -6.604  0.00  0.00    +0.223 A 
ATOM     11  N   UNL     1       2.935   3.969  -6.203  0.00  0.00    -0.220 NA
ATOM     12  H   UNL     1       2.511   6.517  -4.278  0.00  0.00    +0.154 HD
ENDROOT
BRANCH   1  15
ATOM     13  C   UNL     1      -0.928   4.287  -5.908  0.00  0.00    +0.003 A 
ATOM     14  C   UNL     1       0.378   4.406  -5.474  0.00  0.00    +0.023 A 
ATOM     15  C   UNL     1       0.941   5.665  -5.307  0.00  0.00    +0.033 A 
ATOM     16  C   UNL     1       0.189   6.801  -5.577  0.00  0.00    +0.038 A 
ATOM     17  C   UNL     1      -1.117   6.675  -6.011  0.00  0.00    +0.020 A 
ATOM     18  C   UNL     1      -1.675   5.419  -6.176  0.00  0.00    +0.015 A 
ATOM     19 BR   UNL     1      -2.143   8.220  -6.379  0.00  0.00    -0.050 Br
ENDBRANCH   1  15
BRANCH   5  20
ATOM     20  N   UNL     1       6.551   6.642  -2.208  0.00  0.00    -0.282 N 
ATOM     21  C   UNL     1       5.622   7.197  -1.404  0.00  0.00    +0.242 C 
ATOM     22  O   UNL     1       4.440   6.988  -1.606  0.00  0.00    -0.270 OA
ATOM     23  H   UNL     1       7.487   6.873  -2.099  0.00  0.00    +0.155 HD
BRANCH  21  24
ATOM     24  C   UNL     1       6.021   8.022  -0.327  0.00  0.00    +0.082 C 
ATOM     25  C   UNL     1       5.112   8.430   0.583  0.00  0.00    +0.075 C 
BRANCH  25  26
ATOM     26  N   UNL     1       3.911   7.785   0.685  0.00  0.00    -0.331 N 
ATOM     27  C   UNL     1       2.647   8.538   0.701  0.00  0.00    +0.132 C 
ATOM     28  C   UNL     1       1.704   7.922  -0.339  0.00  0.00    +0.178 C 
ATOM     29  O   UNL     1       1.608   6.513  -0.111  0.00  0.00    -0.377 OA
ATOM     30  C   UNL     1       2.843   5.810  -0.262  0.00  0.00    +0.178 C 
ATOM     31  C   UNL     1       3.844   6.318   0.776  0.00  0.00    +0.132 C 
ENDBRANCH  25  26
ENDBRANCH  21  24
ENDBRANCH   5  20
TORSDOF 4
