REMARK  Name = CHEMBL305246
REMARK  6 active torsions:
REMARK  status: ('A' for Active; 'I' for Inactive)
REMARK    1  A    between atoms: C_1  and  C_2
REMARK    2  A    between atoms: C_4  and  C_28
REMARK    3  A    between atoms: C_7  and  C_8
REMARK    4  A    between atoms: C_15  and  N_16
REMARK    5  A    between atoms: N_16  and  C_17
REMARK    6  A    between atoms: N_33  and  C_36
REMARK                            x       y       z     vdW  Elec       q    Type
REMARK                         _______ _______ _______ _____ _____    ______ ____
ROOT
ATOM      1  C   UNL     1       1.400   0.751   1.733  0.00  0.00    +0.039 C 
ATOM      2  C   UNL     1       2.193  -0.191   2.349  0.00  0.00    +0.053 C 
ATOM      3  C   UNL     1       2.458  -0.339   3.793  0.00  0.00    +0.067 A 
ATOM      4  C   UNL     1       3.321  -1.437   3.930  0.00  0.00    +0.138 A 
ATOM      5  N   UNL     1       3.713  -1.780   5.156  0.00  0.00    -0.220 NA
ATOM      6  C   UNL     1       3.303  -1.107   6.211  0.00  0.00    +0.225 A 
ATOM      7  N   UNL     1       2.492  -0.071   6.124  0.00  0.00    -0.220 NA
ATOM      8  C   UNL     1       2.046   0.348   4.940  0.00  0.00    +0.136 A 
ATOM      9  N   UNL     1       3.595  -1.959   2.682  0.00  0.00    -0.266 N 
ATOM     10  C   UNL     1       2.960  -1.278   1.712  0.00  0.00    +0.250 C 
ATOM     11  O   UNL     1       3.011  -1.515   0.519  0.00  0.00    -0.270 OA
ATOM     12  H   UNL     1       4.171  -2.723   2.525  0.00  0.00    +0.157 HD
ENDROOT
BRANCH   1  19
ATOM     13  C   UNL     1       0.962   3.223  -0.104  0.00  0.00    +0.046 C 
ATOM     14  C   UNL     1       0.984   1.772  -0.508  0.00  0.00    -0.025 A 
ATOM     15  C   UNL     1       0.816   1.274  -1.796  0.00  0.00    +0.036 A 
ATOM     16  C   UNL     1       0.906  -0.103  -1.726  0.00  0.00    +0.103 A 
ATOM     17  N   UNL     1       1.126  -0.454  -0.419  0.00  0.00    -0.351 N 
ATOM     18  H   UNL     1       1.229  -1.359  -0.085  0.00  0.00    +0.166 HD
ATOM     19  C   UNL     1       1.182   0.688   0.336  0.00  0.00    +0.043 A 
BRANCH  16  20
ATOM     20  C   UNL     1       0.785  -1.033  -2.859  0.00  0.00    +0.263 C 
ATOM     21  O   UNL     1       1.107  -0.674  -3.977  0.00  0.00    -0.268 OA
ATOM     22  N   UNL     1       0.318  -2.281  -2.660  0.00  0.00    -0.300 N 
ATOM     23  C   UNL     1      -0.181  -2.700  -1.341  0.00  0.00    +0.089 C 
ATOM     24  C   UNL     1      -1.561  -3.340  -1.525  0.00  0.00    -0.060 C 
ATOM     25  N   UNL     1      -1.469  -4.425  -2.511  0.00  0.00    +0.380 N 
ATOM     26  C   UNL     1      -1.109  -3.877  -3.825  0.00  0.00    -0.060 C 
ATOM     27  C   UNL     1       0.288  -3.261  -3.756  0.00  0.00    +0.089 C 
ATOM     28  C   UNL     1      -2.765  -5.109  -2.607  0.00  0.00    -0.096 C 
ATOM     29  H   UNL     1      -0.764  -5.085  -2.219  0.00  0.00    -0.082 HD
ENDBRANCH  16  20
ENDBRANCH   1  19
BRANCH   8  30
ATOM     30  N   UNL     1       1.195   1.436   4.847  0.00  0.00    -0.299 N 
ATOM     31  H   UNL     1       0.854   1.712   3.983  0.00  0.00    +0.154 HD
BRANCH  30  32
ATOM     32  C   UNL     1       0.828   2.137   6.001  0.00  0.00    +0.034 A 
ATOM     33  C   UNL     1       1.721   2.252   7.058  0.00  0.00    +0.026 A 
ATOM     34  C   UNL     1       1.357   2.945   8.197  0.00  0.00    +0.041 A 
ATOM     35  C   UNL     1       0.103   3.524   8.285  0.00  0.00    +0.142 A 
ATOM     36  C   UNL     1      -0.791   3.410   7.232  0.00  0.00    +0.078 A 
ATOM     37  C   UNL     1      -0.428   2.723   6.088  0.00  0.00    +0.046 A 
ATOM     38 CL   UNL     1      -2.363   4.136   7.345  0.00  0.00    -0.081 Cl
ATOM     39  F   UNL     1      -0.251   4.200   9.399  0.00  0.00    -0.204 F 
ENDBRANCH  30  32
ENDBRANCH   8  30
TORSDOF 4
