REMARK  Name = CHEMBL162719
REMARK  2 active torsions:
REMARK  status: ('A' for Active; 'I' for Inactive)
REMARK    1  A    between atoms: C_1  and  N_2
REMARK    2  A    between atoms: N_18  and  C_19
REMARK                            x       y       z     vdW  Elec       q    Type
REMARK                         _______ _______ _______ _____ _____    ______ ____
ROOT
ATOM      1  C   UNL     1      -0.068   1.504   0.024  0.00  0.00    +0.105 C 
ATOM      2  N   UNL     1      -0.037   0.035   0.023  0.00  0.00    -0.302 NA
ATOM      3  C   UNL     1      -1.393  -0.520  -0.079  0.00  0.00    +0.103 C 
ATOM      4  C   UNL     1      -1.307  -2.040  -0.258  0.00  0.00    +0.122 C 
ATOM      5  N   UNL     1      -0.488  -2.594   0.831  0.00  0.00    -0.313 N 
ATOM      6  C   UNL     1       0.831  -1.995   1.083  0.00  0.00    +0.122 C 
ATOM      7  C   UNL     1       0.661  -0.477   1.210  0.00  0.00    +0.103 C 
ATOM      8  C   UNL     1      -0.950  -3.657   1.603  0.00  0.00    +0.122 A 
ATOM      9  C   UNL     1      -2.194  -4.202   1.331  0.00  0.00    +0.057 A 
ATOM     10  C   UNL     1      -2.636  -5.267   2.117  0.00  0.00    +0.045 A 
ATOM     11  C   UNL     1      -1.797  -5.745   3.156  0.00  0.00    +0.094 A 
ATOM     12  C   UNL     1      -0.556  -5.127   3.354  0.00  0.00    +0.141 A 
ATOM     13  N   UNL     1      -0.186  -4.130   2.581  0.00  0.00    -0.238 NA
ATOM     14  N   UNL     1      -2.228  -6.768   3.907  0.00  0.00    -0.234 NA
ATOM     15  C   UNL     1      -3.397  -7.318   3.688  0.00  0.00    +0.224 A 
ATOM     16  N   UNL     1      -4.230  -6.926   2.738  0.00  0.00    -0.220 NA
ATOM     17  C   UNL     1      -3.927  -5.922   1.923  0.00  0.00    +0.134 A 
ATOM     18  N   UNL     1      -4.797  -5.513   0.933  0.00  0.00    -0.299 N 
ATOM     19  H   UNL     1      -4.522  -4.836   0.295  0.00  0.00    +0.154 HD
ENDROOT
BRANCH  18  20
ATOM     20  C   UNL     1      -6.073  -6.076   0.849  0.00  0.00    +0.033 A 
ATOM     21  C   UNL     1      -6.750  -6.442   2.005  0.00  0.00    +0.023 A 
ATOM     22  C   UNL     1      -8.012  -6.997   1.919  0.00  0.00    +0.003 A 
ATOM     23  C   UNL     1      -8.602  -7.189   0.683  0.00  0.00    +0.015 A 
ATOM     24  C   UNL     1      -7.931  -6.825  -0.471  0.00  0.00    +0.020 A 
ATOM     25  C   UNL     1      -6.670  -6.264  -0.391  0.00  0.00    +0.038 A 
ATOM     26 BR   UNL     1      -8.742  -7.090  -2.159  0.00  0.00    -0.050 Br
ENDBRANCH  18  20
TORSDOF 1
