REMARK  Name = CHEMBL1173655
REMARK  9 active torsions:
REMARK  status: ('A' for Active; 'I' for Inactive)
REMARK    1  A    between atoms: C_1  and  N_2
REMARK    2  A    between atoms: N_2  and  C_3
REMARK    3  A    between atoms: N_2  and  C_4
REMARK    4  A    between atoms: C_4  and  C_5
REMARK    5  A    between atoms: C_6  and  C_7
REMARK    6  A    between atoms: N_9  and  C_10
REMARK    7  A    between atoms: C_15  and  O_16
REMARK    8  A    between atoms: O_16  and  C_17
REMARK    9  A    between atoms: N_27  and  C_28
REMARK                            x       y       z     vdW  Elec       q    Type
REMARK                         _______ _______ _______ _____ _____    ______ ____
ROOT
ATOM      1  C   UNL     1      -1.972  -1.318   6.309  0.00  0.00    +0.077 A 
ATOM      2  C   UNL     1      -2.337  -0.020   6.590  0.00  0.00    +0.040 A 
ATOM      3  C   UNL     1      -2.944   0.276   7.816  0.00  0.00    +0.042 A 
ATOM      4  C   UNL     1      -3.179  -0.758   8.757  0.00  0.00    +0.080 A 
ATOM      5  C   UNL     1      -2.801  -2.070   8.450  0.00  0.00    +0.076 A 
ATOM      6  C   UNL     1      -2.210  -2.344   7.237  0.00  0.00    +0.144 A 
ATOM      7  N   UNL     1      -3.764  -0.446   9.925  0.00  0.00    -0.235 NA
ATOM      8  C   UNL     1      -4.109   0.793  10.186  0.00  0.00    +0.223 A 
ATOM      9  N   UNL     1      -3.909   1.790   9.338  0.00  0.00    -0.220 NA
ATOM     10  C   UNL     1      -3.339   1.592   8.157  0.00  0.00    +0.134 A 
ATOM     11  N   UNL     1      -3.137   2.641   7.283  0.00  0.00    -0.299 N 
ATOM     12  H   UNL     1      -2.790   2.471   6.393  0.00  0.00    +0.154 HD
ENDROOT
BRANCH  11  13
ATOM     13  C   UNL     1      -3.431   3.949   7.681  0.00  0.00    +0.034 A 
ATOM     14  C   UNL     1      -3.934   4.860   6.761  0.00  0.00    +0.026 A 
ATOM     15  C   UNL     1      -4.225   6.151   7.155  0.00  0.00    +0.041 A 
ATOM     16  C   UNL     1      -4.015   6.539   8.467  0.00  0.00    +0.142 A 
ATOM     17  C   UNL     1      -3.513   5.633   9.388  0.00  0.00    +0.078 A 
ATOM     18  C   UNL     1      -3.227   4.338   8.998  0.00  0.00    +0.046 A 
ATOM     19 CL   UNL     1      -3.250   6.123  11.032  0.00  0.00    -0.081 Cl
ATOM     20  F   UNL     1      -4.300   7.803   8.851  0.00  0.00    -0.204 F 
ENDBRANCH  11  13
BRANCH   1  23
ATOM     21  C   UNL     1      -1.575  -0.824   4.015  0.00  0.00    +0.241 C 
ATOM     22  O   UNL     1      -2.374   0.091   4.085  0.00  0.00    -0.271 OA
ATOM     23  N   UNL     1      -1.365  -1.618   5.083  0.00  0.00    -0.279 N 
ATOM     24  H   UNL     1      -0.794  -2.398   5.003  0.00  0.00    +0.155 HD
BRANCH  21  26
ATOM     25  C   UNL     1      -1.045  -0.279   1.711  0.00  0.00    -0.040 C 
ATOM     26  C   UNL     1      -0.838  -1.063   2.765  0.00  0.00    +0.061 C 
BRANCH  25  27
ATOM     27  C   UNL     1      -0.290  -0.523   0.430  0.00  0.00    -0.052 C 
BRANCH  27  29
ATOM     28  C   UNL     1      -1.963   0.581  -0.887  0.00  0.00    -0.096 C 
ATOM     29  N   UNL     1      -1.242  -0.681  -0.678  0.00  0.00    +0.378 N 
ATOM     30  C   UNL     1      -0.513  -1.038  -1.903  0.00  0.00    -0.096 C 
ATOM     31  H   UNL     1      -1.901  -1.412  -0.453  0.00  0.00    -0.082 HD
ENDBRANCH  27  29
ENDBRANCH  25  27
ENDBRANCH  21  26
ENDBRANCH   1  23
BRANCH   6  32
ATOM     32  O   UNL     1      -1.847  -3.618   6.938  0.00  0.00    -0.485 OA
BRANCH  32  33
ATOM     33  C   UNL     1      -2.221  -4.635   7.871  0.00  0.00    +0.201 C 
ATOM     34  C   UNL     1      -2.483  -5.982   7.144  0.00  0.00    +0.075 C 
ATOM     35  C   UNL     1      -2.143  -6.993   8.268  0.00  0.00    +0.163 C 
ATOM     36  O   UNL     1      -1.038  -6.410   8.976  0.00  0.00    -0.376 OA
ATOM     37  C   UNL     1      -1.042  -4.984   8.804  0.00  0.00    +0.204 C 
ENDBRANCH  32  33
ENDBRANCH   6  32
TORSDOF 7
