REMARK  Name = CHEMBL255438
REMARK  8 active torsions:
REMARK  status: ('A' for Active; 'I' for Inactive)
REMARK    1  A    between atoms: C_4  and  C_7
REMARK    2  A    between atoms: C_7  and  O_8
REMARK    3  A    between atoms: O_8  and  N_9
REMARK    4  A    between atoms: C_10  and  C_11
REMARK    5  A    between atoms: C_16  and  N_17
REMARK    6  A    between atoms: N_17  and  C_18
REMARK    7  A    between atoms: N_26  and  C_27
REMARK    8  A    between atoms: C_27  and  C_28
REMARK                            x       y       z     vdW  Elec       q    Type
REMARK                         _______ _______ _______ _____ _____    ______ ____
ROOT
ATOM      1  C   UNL     1       7.250  -2.899   2.595  0.00  0.00    +0.076 A 
ATOM      2  C   UNL     1       7.838  -3.499   1.466  0.00  0.00    +0.130 A 
ATOM      3  N   UNL     1       8.922  -4.251   1.631  0.00  0.00    -0.220 NA
ATOM      4  C   UNL     1       9.445  -4.437   2.826  0.00  0.00    +0.225 A 
ATOM      5  N   UNL     1       8.930  -3.897   3.912  0.00  0.00    -0.220 NA
ATOM      6  C   UNL     1       7.849  -3.124   3.848  0.00  0.00    +0.137 A 
ATOM      7  N   UNL     1       7.298  -3.310   0.208  0.00  0.00    -0.342 N 
ATOM      8  H   UNL     1       6.564  -2.689   0.083  0.00  0.00    +0.144 HD
ATOM      9  H   UNL     1       7.653  -3.800  -0.551  0.00  0.00    +0.144 HD
ENDROOT
BRANCH   1  11
ATOM     10  N   UNL     1       5.576  -1.777   1.295  0.00  0.00    -0.092 NA
ATOM     11  C   UNL     1       6.050  -2.057   2.468  0.00  0.00    +0.167 C 
BRANCH  10  12
ATOM     12  O   UNL     1       4.421  -0.967   1.173  0.00  0.00    -0.389 OA
BRANCH  12  13
ATOM     13  C   UNL     1       4.010  -0.740  -0.177  0.00  0.00    +0.298 C 
BRANCH  13  17
ATOM     14  C   UNL     1       0.520   1.724  -0.210  0.00  0.00    +0.000 A 
ATOM     15  C   UNL     1       1.775   2.302  -0.249  0.00  0.00    +0.000 A 
ATOM     16  C   UNL     1       2.904   1.505  -0.238  0.00  0.00    +0.007 A 
ATOM     17  C   UNL     1       2.779   0.129  -0.188  0.00  0.00    -0.008 A 
ATOM     18  C   UNL     1       1.524  -0.449  -0.147  0.00  0.00    +0.007 A 
ATOM     19  C   UNL     1       0.395   0.348  -0.160  0.00  0.00    +0.000 A 
ENDBRANCH  13  17
ENDBRANCH  12  13
ENDBRANCH  10  12
ENDBRANCH   1  11
BRANCH   6  20
ATOM     20  N   UNL     1       7.320  -2.557   4.992  0.00  0.00    -0.299 N 
ATOM     21  H   UNL     1       6.488  -2.061   4.948  0.00  0.00    +0.154 HD
BRANCH  20  22
ATOM     22  C   UNL     1       7.987  -2.698   6.216  0.00  0.00    +0.033 A 
ATOM     23  C   UNL     1       7.254  -2.784   7.400  0.00  0.00    +0.025 A 
ATOM     24  C   UNL     1       7.884  -2.921   8.603  0.00  0.00    +0.030 A 
ATOM     25  C   UNL     1       9.275  -2.977   8.660  0.00  0.00    +0.069 A 
ATOM     26  C   UNL     1      10.024  -2.892   7.471  0.00  0.00    +0.021 A 
ATOM     27  C   UNL     1       9.366  -2.757   6.244  0.00  0.00    +0.034 A 
ATOM     28  C   UNL     1      11.427  -2.980   7.863  0.00  0.00    +0.143 A 
ATOM     29  N   UNL     1      11.472  -3.104   9.159  0.00  0.00    -0.178 NA
ATOM     30  N   UNL     1      10.176  -3.107   9.686  0.00  0.00    -0.259 N 
BRANCH  30  31
ATOM     31  C   UNL     1       9.837  -3.228  11.106  0.00  0.00    +0.179 C 
BRANCH  31  32
ATOM     32  C   UNL     1       9.668  -4.683  11.460  0.00  0.00    -0.023 A 
ATOM     33  C   UNL     1       8.428  -5.283  11.344  0.00  0.00    +0.005 A 
ATOM     34  C   UNL     1       8.271  -6.618  11.668  0.00  0.00    +0.003 A 
ATOM     35  C   UNL     1       9.355  -7.354  12.109  0.00  0.00    +0.038 A 
ATOM     36  C   UNL     1      10.597  -6.754  12.225  0.00  0.00    +0.124 A 
ATOM     37  C   UNL     1      10.754  -5.419  11.894  0.00  0.00    +0.043 A 
ATOM     38  F   UNL     1      11.657  -7.473  12.656  0.00  0.00    -0.205 F 
ENDBRANCH  31  32
ENDBRANCH  30  31
ENDBRANCH  20  22
ENDBRANCH   6  20
TORSDOF 8
