REMARK  Name = CHEMBL508760
REMARK  8 active torsions:
REMARK  status: ('A' for Active; 'I' for Inactive)
REMARK    1  A    between atoms: C_3  and  O_36
REMARK    2  A    between atoms: C_6  and  N_7
REMARK    3  A    between atoms: C_12  and  C_14
REMARK    4  A    between atoms: C_15  and  C_16
REMARK    5  A    between atoms: C_19  and  O_23
REMARK    6  A    between atoms: O_23  and  C_24
REMARK    7  A    between atoms: O_36  and  C_37
REMARK    8  A    between atoms: C_37  and  C_38
REMARK                            x       y       z     vdW  Elec       q    Type
REMARK                         _______ _______ _______ _____ _____    ______ ____
ROOT
ATOM      1  N   UNL     1      -1.200  -0.721   0.010  0.00  0.00    -0.298 N 
ATOM      2  C   UNL     1      -1.185  -2.102  -0.102  0.00  0.00    +0.141 A 
ATOM      3  C   UNL     1      -2.364  -2.820  -0.205  0.00  0.00    +0.079 A 
ATOM      4  C   UNL     1      -2.354  -4.228  -0.320  0.00  0.00    +0.084 A 
ATOM      5  C   UNL     1      -3.614  -4.835  -0.417  0.00  0.00    +0.053 A 
ATOM      6  C   UNL     1      -4.740  -4.068  -0.397  0.00  0.00    +0.065 A 
ATOM      7  S   UNL     1      -4.089  -2.413  -0.237  0.00  0.00    -0.075 S 
ATOM      8  N   UNL     1      -1.126  -4.806  -0.320  0.00  0.00    -0.235 NA
ATOM      9  C   UNL     1      -0.036  -4.091  -0.220  0.00  0.00    +0.224 A 
ATOM     10  N   UNL     1      -0.033  -2.774  -0.119  0.00  0.00    -0.219 NA
ATOM     11  H   UNL     1      -2.044  -0.251   0.098  0.00  0.00    +0.154 HD
ENDROOT
BRANCH   1  17
ATOM     12  C   UNL     1       1.074  -0.461  -0.758  0.00  0.00    +0.027 A 
ATOM     13  C   UNL     1       2.260   0.247  -0.772  0.00  0.00    +0.049 A 
ATOM     14  C   UNL     1       2.380   1.415  -0.034  0.00  0.00    +0.139 A 
ATOM     15  C   UNL     1       1.308   1.873   0.721  0.00  0.00    +0.084 A 
ATOM     16  C   UNL     1       0.122   1.166   0.736  0.00  0.00    +0.047 A 
ATOM     17  C   UNL     1       0.002  -0.004  -0.004  0.00  0.00    +0.034 A 
ATOM     18 CL   UNL     1       1.460   3.335   1.645  0.00  0.00    -0.080 Cl
BRANCH  14  19
ATOM     19  O   UNL     1       3.549   2.111  -0.048  0.00  0.00    -0.484 OA
BRANCH  19  20
ATOM     20  C   UNL     1       4.610   1.581  -0.845  0.00  0.00    +0.285 C 
BRANCH  20  21
ATOM     21  C   UNL     1       5.815   2.480  -0.738  0.00  0.00    +0.086 A 
ATOM     22  C   UNL     1       5.800   3.599   0.030  0.00  0.00    +0.073 A 
ATOM     23  S   UNL     1       7.455   4.210  -0.246  0.00  0.00    -0.083 S 
ATOM     24  C   UNL     1       7.978   2.998  -1.290  0.00  0.00    +0.156 A 
ATOM     25  N   UNL     1       6.934   2.212  -1.382  0.00  0.00    -0.249 NA
ENDBRANCH  20  21
ENDBRANCH  19  20
ENDBRANCH  14  19
ENDBRANCH   1  17
BRANCH   6  26
ATOM     26  C   UNL     1      -6.107  -4.486  -0.483  0.00  0.00    -0.057 C 
ATOM     27  C   UNL     1      -7.228  -4.828  -0.553  0.00  0.00    -0.078 C 
BRANCH  27  28
ATOM     28  C   UNL     1      -8.633  -5.258  -0.641  0.00  0.00    +0.134 C 
ATOM     29  C   UNL     1      -8.965  -6.254   0.498  0.00  0.00    +0.077 C 
ATOM     30  C   UNL     1      -8.422  -7.586  -0.082  0.00  0.00    +0.194 C 
ATOM     31  C   UNL     1      -8.725  -7.458  -1.590  0.00  0.00    +0.126 C 
ATOM     32  N   UNL     1      -8.861  -6.018  -1.889  0.00  0.00    -0.300 NA
ATOM     33  H   UNL     1      -9.771  -5.813  -2.275  0.00  0.00    +0.123 HD
BRANCH  30  34
ATOM     34  O   UNL     1      -9.113  -8.702   0.483  0.00  0.00    -0.446 OA
BRANCH  34  35
ATOM     35  C   UNL     1      -8.425  -9.854   0.596  0.00  0.00    +0.403 C 
ATOM     36  O   UNL     1      -7.269  -9.910   0.225  0.00  0.00    -0.226 OA
ATOM     37  N   UNL     1      -9.018 -10.944   1.120  0.00  0.00    -0.263 N 
ATOM     38  C   UNL     1     -10.418 -10.903   1.570  0.00  0.00    +0.139 C 
ATOM     39  C   UNL     1     -11.164 -12.086   0.942  0.00  0.00    +0.179 C 
ATOM     40  O   UNL     1     -10.445 -13.292   1.213  0.00  0.00    -0.377 OA
ATOM     41  C   UNL     1      -9.134 -13.332   0.645  0.00  0.00    +0.179 C 
ATOM     42  C   UNL     1      -8.286 -12.214   1.253  0.00  0.00    +0.139 C 
ENDBRANCH  34  35
ENDBRANCH  30  34
ENDBRANCH  27  28
ENDBRANCH   6  26
TORSDOF 8
