REMARK  Name = CHEMBL516375
REMARK  9 active torsions:
REMARK  status: ('A' for Active; 'I' for Inactive)
REMARK    1  A    between atoms: C_1  and  S_2
REMARK    2  A    between atoms: S_2  and  C_5
REMARK    3  A    between atoms: C_5  and  C_6
REMARK    4  A    between atoms: C_6  and  N_7
REMARK    5  A    between atoms: N_7  and  C_8
REMARK    6  A    between atoms: C_8  and  C_9
REMARK    7  A    between atoms: C_11  and  C_14
REMARK    8  A    between atoms: C_20  and  N_24
REMARK    9  A    between atoms: N_24  and  C_25
REMARK                            x       y       z     vdW  Elec       q    Type
REMARK                         _______ _______ _______ _____ _____    ______ ____
ROOT
ATOM      1  C   UNL     1       5.912  -3.828  -6.133  0.00  0.00    +0.002 A 
ATOM      2  C   UNL     1       6.393  -4.096  -7.423  0.00  0.00    +0.012 A 
ATOM      3  C   UNL     1       7.684  -4.475  -7.623  0.00  0.00    +0.029 A 
ATOM      4  C   UNL     1       8.553  -4.603  -6.530  0.00  0.00    +0.076 A 
ATOM      5  C   UNL     1       8.076  -4.335  -5.223  0.00  0.00    +0.041 A 
ATOM      6  C   UNL     1       6.748  -3.941  -5.034  0.00  0.00    +0.023 A 
ATOM      7  C   UNL     1       8.979  -4.473  -4.139  0.00  0.00    +0.134 A 
ATOM      8  N   UNL     1      10.223  -4.846  -4.405  0.00  0.00    -0.220 NA
ATOM      9  C   UNL     1      10.623  -5.086  -5.643  0.00  0.00    +0.223 A 
ATOM     10  N   UNL     1       9.832  -4.974  -6.684  0.00  0.00    -0.235 NA
ENDROOT
BRANCH   1  13
ATOM     11  C   UNL     1       2.760  -2.785  -4.586  0.00  0.00    +0.093 A 
ATOM     12  N   UNL     1       4.006  -3.148  -4.744  0.00  0.00    -0.243 NA
ATOM     13  C   UNL     1       4.500  -3.416  -5.944  0.00  0.00    +0.078 A 
ATOM     14  C   UNL     1       3.638  -3.292  -7.001  0.00  0.00    +0.075 A 
ATOM     15  S   UNL     1       2.147  -2.794  -6.153  0.00  0.00    -0.079 S 
BRANCH  11  16
ATOM     16  C   UNL     1       2.041  -2.446  -3.305  0.00  0.00    +0.144 C 
BRANCH  16  17
ATOM     17  N   UNL     1       2.170  -1.008  -3.038  0.00  0.00    -0.309 NA
ATOM     18  H   UNL     1       1.828  -0.463  -3.815  0.00  0.00    +0.122 HD
BRANCH  17  19
ATOM     19  C   UNL     1       1.480  -0.640  -1.794  0.00  0.00    +0.104 C 
BRANCH  19  20
ATOM     20  C   UNL     1       1.637   0.862  -1.549  0.00  0.00    +0.180 C 
BRANCH  20  22
ATOM     21  C   UNL     1       1.082   3.103   0.096  0.00  0.00    +0.194 C 
ATOM     22  S   UNL     1       0.785   1.317  -0.013  0.00  0.00    -0.033 S 
ATOM     23  O   UNL     1       1.448   0.683   1.072  0.00  0.00    -0.175 OA
ATOM     24  O   UNL     1      -0.609   1.103  -0.192  0.00  0.00    -0.175 OA
ENDBRANCH  20  22
ENDBRANCH  19  20
ENDBRANCH  17  19
ENDBRANCH  16  17
ENDBRANCH  11  16
ENDBRANCH   1  13
BRANCH   7  25
ATOM     25  N   UNL     1       8.574  -4.226  -2.844  0.00  0.00    -0.299 N 
ATOM     26  H   UNL     1       7.642  -4.035  -2.655  0.00  0.00    +0.154 HD
BRANCH  25  27
ATOM     27  C   UNL     1       9.508  -4.250  -1.803  0.00  0.00    +0.034 A 
ATOM     28  C   UNL     1       9.143  -4.731  -0.552  0.00  0.00    +0.026 A 
ATOM     29  C   UNL     1      10.066  -4.754   0.475  0.00  0.00    +0.041 A 
ATOM     30  C   UNL     1      11.356  -4.299   0.258  0.00  0.00    +0.142 A 
ATOM     31  C   UNL     1      11.723  -3.818  -0.988  0.00  0.00    +0.078 A 
ATOM     32  C   UNL     1      10.803  -3.798  -2.020  0.00  0.00    +0.046 A 
ATOM     33 CL   UNL     1      13.340  -3.247  -1.257  0.00  0.00    -0.081 Cl
ATOM     34  F   UNL     1      12.258  -4.323   1.264  0.00  0.00    -0.204 F 
ENDBRANCH  25  27
ENDBRANCH   7  25
TORSDOF 8
