REMARK  Name = CHEMBL122245
REMARK  6 active torsions:
REMARK  status: ('A' for Active; 'I' for Inactive)
REMARK    1  A    between atoms: C_1  and  O_2
REMARK    2  A    between atoms: O_2  and  C_3
REMARK    3  A    between atoms: C_6  and  C_9
REMARK    4  A    between atoms: C_9  and  N_10
REMARK    5  A    between atoms: N_10  and  C_11
REMARK    6  A    between atoms: N_18  and  C_19
REMARK                            x       y       z     vdW  Elec       q    Type
REMARK                         _______ _______ _______ _____ _____    ______ ____
ROOT
ATOM      1  C   UNL     1       2.093  -2.997   6.773  0.00  0.00    +0.127 A 
ATOM      2  C   UNL     1       1.253  -3.526   7.744  0.00  0.00    +0.100 A 
ATOM      3  C   UNL     1       2.122  -4.199   8.725  0.00  0.00    +0.188 A 
ATOM      4  N   UNL     1       1.533  -4.799   9.780  0.00  0.00    -0.214 NA
ATOM      5  C   UNL     1       0.231  -4.775   9.912  0.00  0.00    +0.225 A 
ATOM      6  N   UNL     1      -0.585  -4.183   9.054  0.00  0.00    -0.220 NA
ATOM      7  C   UNL     1      -0.140  -3.554   7.973  0.00  0.00    +0.139 A 
ATOM      8  N   UNL     1      -1.014  -2.945   7.097  0.00  0.00    -0.299 N 
ATOM      9  N   UNL     1       3.358  -4.042   8.307  0.00  0.00    -0.152 NA
ATOM     10  N   UNL     1       3.354  -3.314   7.112  0.00  0.00    -0.262 N 
ATOM     11  H   UNL     1       4.145  -3.072   6.605  0.00  0.00    +0.190 HD
ATOM     12  H   UNL     1      -0.683  -2.562   6.269  0.00  0.00    +0.154 HD
ENDROOT
BRANCH   8  13
ATOM     13  C   UNL     1      -2.376  -2.879   7.402  0.00  0.00    +0.034 A 
ATOM     14  C   UNL     1      -3.322  -2.989   6.391  0.00  0.00    +0.023 A 
ATOM     15  C   UNL     1      -4.668  -2.924   6.695  0.00  0.00    +0.003 A 
ATOM     16  C   UNL     1      -5.074  -2.749   8.005  0.00  0.00    +0.020 A 
ATOM     17  C   UNL     1      -4.135  -2.639   9.015  0.00  0.00    +0.043 A 
ATOM     18  C   UNL     1      -2.787  -2.710   8.718  0.00  0.00    +0.043 A 
ATOM     19 CL   UNL     1      -4.651  -2.419  10.658  0.00  0.00    -0.083 Cl
ENDBRANCH   8  13
BRANCH   1  20
ATOM     20  N   UNL     1       1.703  -2.280   5.657  0.00  0.00    -0.325 N 
ATOM     21  H   UNL     1       0.762  -2.102   5.499  0.00  0.00    +0.148 HD
BRANCH  20  22
ATOM     22  C   UNL     1       2.710  -1.788   4.713  0.00  0.00    +0.138 C 
BRANCH  22  26
ATOM     23  C   UNL     1       0.777   0.322   1.539  0.00  0.00    +0.120 A 
ATOM     24  C   UNL     1       1.179   1.000   2.681  0.00  0.00    +0.046 A 
ATOM     25  C   UNL     1       1.804   0.316   3.705  0.00  0.00    +0.009 A 
ATOM     26  C   UNL     1       2.028  -1.044   3.594  0.00  0.00    -0.030 A 
ATOM     27  C   UNL     1       1.629  -1.722   2.457  0.00  0.00    +0.009 A 
ATOM     28  C   UNL     1       0.998  -1.043   1.432  0.00  0.00    +0.046 A 
BRANCH  23  30
ATOM     29  C   UNL     1      -0.032   2.398   0.709  0.00  0.00    +0.277 C 
ATOM     30  O   UNL     1       0.162   0.993   0.530  0.00  0.00    -0.495 OA
ENDBRANCH  23  30
ENDBRANCH  22  26
ENDBRANCH  20  22
ENDBRANCH   1  20
TORSDOF 5
