REMARK  Name = CHEMBL175933
REMARK  13 active torsions:
REMARK  status: ('A' for Active; 'I' for Inactive)
REMARK    1  A    between atoms: C_1  and  N_2
REMARK    2  A    between atoms: N_2  and  C_3
REMARK    3  A    between atoms: N_2  and  C_4
REMARK    4  A    between atoms: C_4  and  C_5
REMARK    5  A    between atoms: C_6  and  C_7
REMARK    6  A    between atoms: N_9  and  C_10
REMARK    7  A    between atoms: C_15  and  O_16
REMARK    8  A    between atoms: O_16  and  C_17
REMARK    9  A    between atoms: C_20  and  C_37
REMARK   10  A    between atoms: C_21  and  N_22
REMARK   11  A    between atoms: N_22  and  C_23
REMARK   12  A    between atoms: C_26  and  S_30
REMARK   13  A    between atoms: S_30  and  C_31
REMARK                            x       y       z     vdW  Elec       q    Type
REMARK                         _______ _______ _______ _____ _____    ______ ____
ROOT
ATOM      1  C   UNL     1      -7.856   0.471  -6.345  0.00  0.00    +0.077 A 
ATOM      2  C   UNL     1      -6.692   1.200  -6.443  0.00  0.00    +0.039 A 
ATOM      3  C   UNL     1      -5.839   1.004  -7.539  0.00  0.00    +0.025 A 
ATOM      4  C   UNL     1      -6.177   0.059  -8.538  0.00  0.00    +0.076 A 
ATOM      5  C   UNL     1      -7.369  -0.672  -8.416  0.00  0.00    +0.076 A 
ATOM      6  C   UNL     1      -8.190  -0.470  -7.331  0.00  0.00    +0.143 A 
ATOM      7  N   UNL     1      -5.365  -0.134  -9.588  0.00  0.00    -0.253 NA
ATOM      8  C   UNL     1      -4.247   0.530  -9.731  0.00  0.00    +0.132 A 
ATOM      9  C   UNL     1      -3.833   1.486  -8.789  0.00  0.00    +0.091 A 
ATOM     10  C   UNL     1      -4.637   1.738  -7.667  0.00  0.00    +0.060 A 
ENDROOT
BRANCH   1  13
ATOM     11  C   UNL     1      -8.236   1.227  -4.121  0.00  0.00    +0.241 C 
ATOM     12  O   UNL     1      -7.051   1.478  -4.015  0.00  0.00    -0.271 OA
ATOM     13  N   UNL     1      -8.708   0.666  -5.252  0.00  0.00    -0.279 N 
ATOM     14  H   UNL     1      -9.639   0.397  -5.308  0.00  0.00    +0.155 HD
BRANCH  11  16
ATOM     15  C   UNL     1      -8.689   2.088  -1.898  0.00  0.00    -0.007 C 
ATOM     16  C   UNL     1      -9.154   1.535  -3.014  0.00  0.00    +0.064 C 
BRANCH  15  17
ATOM     17  C   UNL     1      -9.630   2.404  -0.764  0.00  0.00    +0.111 C 
BRANCH  17  19
ATOM     18  C   UNL     1      -7.871   2.342   0.899  0.00  0.00    +0.104 C 
ATOM     19  N   UNL     1      -9.148   1.760   0.466  0.00  0.00    -0.305 NA
ATOM     20  C   UNL     1     -10.154   1.845   1.533  0.00  0.00    +0.104 C 
ENDBRANCH  17  19
ENDBRANCH  15  17
ENDBRANCH  11  16
ENDBRANCH   1  13
BRANCH   6  21
ATOM     21  O   UNL     1      -9.339  -1.185  -7.215  0.00  0.00    -0.493 OA
ATOM     22  C   UNL     1      -9.624  -2.128  -8.250  0.00  0.00    +0.277 C 
ENDBRANCH   6  21
BRANCH  10  23
ATOM     23  N   UNL     1      -4.266   2.670  -6.719  0.00  0.00    -0.313 N 
ATOM     24  H   UNL     1      -3.744   2.396  -5.948  0.00  0.00    +0.152 HD
BRANCH  23  25
ATOM     25  C   UNL     1      -4.644   4.009  -6.869  0.00  0.00    +0.033 A 
ATOM     26  C   UNL     1      -5.521   4.373  -7.883  0.00  0.00    +0.024 A 
ATOM     27  C   UNL     1      -5.894   5.694  -8.031  0.00  0.00    +0.018 A 
ATOM     28  C   UNL     1      -5.392   6.659  -7.167  0.00  0.00    +0.034 A 
ATOM     29  C   UNL     1      -4.514   6.295  -6.153  0.00  0.00    +0.057 A 
ATOM     30  C   UNL     1      -4.145   4.972  -6.002  0.00  0.00    +0.044 A 
ATOM     31 CL   UNL     1      -3.885   7.500  -5.074  0.00  0.00    -0.082 Cl
BRANCH  28  32
ATOM     32  S   UNL     1      -5.867   8.345  -7.357  0.00  0.00    -0.049 S 
BRANCH  32  33
ATOM     33  C   UNL     1      -4.528   9.068  -8.245  0.00  0.00    +0.193 A 
ATOM     34  N   UNL     1      -3.540   8.294  -8.670  0.00  0.00    -0.230 NA
ATOM     35  C   UNL     1      -2.520   8.805  -9.339  0.00  0.00    +0.115 A 
ATOM     36  C   UNL     1      -2.493  10.168  -9.593  0.00  0.00    +0.039 A 
ATOM     37  C   UNL     1      -3.542  10.949  -9.133  0.00  0.00    +0.115 A 
ATOM     38  N   UNL     1      -4.534  10.374  -8.475  0.00  0.00    -0.230 NA
ENDBRANCH  32  33
ENDBRANCH  28  32
ENDBRANCH  23  25
ENDBRANCH  10  23
BRANCH   9  39
ATOM     39  C   UNL     1      -2.603   2.197  -8.972  0.00  0.00    +0.103 C 
ATOM     40  N   UNL     1      -1.627   2.761  -9.117  0.00  0.00    -0.191 NA
ENDBRANCH   9  39
TORSDOF 10
