REMARK  Name = CHEMBL205776
REMARK  9 active torsions:
REMARK  status: ('A' for Active; 'I' for Inactive)
REMARK    1  A    between atoms: C_1  and  N_2
REMARK    2  A    between atoms: N_5  and  C_8
REMARK    3  A    between atoms: C_8  and  C_9
REMARK    4  A    between atoms: C_9  and  C_10
REMARK    5  A    between atoms: C_10  and  O_11
REMARK    6  A    between atoms: O_11  and  C_12
REMARK    7  A    between atoms: C_16  and  O_18
REMARK    8  A    between atoms: O_18  and  C_19
REMARK    9  A    between atoms: N_29  and  C_30
REMARK                            x       y       z     vdW  Elec       q    Type
REMARK                         _______ _______ _______ _____ _____    ______ ____
ROOT
ATOM      1  C   UNL     1       1.698  -7.998   3.869  0.00  0.00    +0.126 A 
ATOM      2  C   UNL     1       1.479  -8.896   2.844  0.00  0.00    +0.074 A 
ATOM      3  C   UNL     1       1.216 -10.237   3.141  0.00  0.00    +0.083 A 
ATOM      4  C   UNL     1       1.176 -10.657   4.494  0.00  0.00    +0.082 A 
ATOM      5  C   UNL     1       1.401  -9.726   5.522  0.00  0.00    +0.137 A 
ATOM      6  C   UNL     1       1.664  -8.411   5.201  0.00  0.00    +0.092 A 
ATOM      7  C   UNL     1       0.908 -12.018   4.763  0.00  0.00    +0.137 A 
ATOM      8  N   UNL     1       0.707 -12.834   3.735  0.00  0.00    -0.220 NA
ATOM      9  C   UNL     1       0.753 -12.397   2.487  0.00  0.00    +0.223 A 
ATOM     10  N   UNL     1       0.998 -11.146   2.177  0.00  0.00    -0.235 NA
ATOM     11  N   UNL     1       0.857 -12.486   6.060  0.00  0.00    -0.299 N 
ATOM     12  H   UNL     1       0.851 -11.861   6.802  0.00  0.00    +0.154 HD
ENDROOT
BRANCH  11  13
ATOM     13  C   UNL     1       0.813 -13.863   6.305  0.00  0.00    +0.034 A 
ATOM     14  C   UNL     1       0.297 -14.724   5.345  0.00  0.00    +0.026 A 
ATOM     15  C   UNL     1       0.254 -16.083   5.588  0.00  0.00    +0.041 A 
ATOM     16  C   UNL     1       0.725 -16.588   6.788  0.00  0.00    +0.142 A 
ATOM     17  C   UNL     1       1.240 -15.731   7.748  0.00  0.00    +0.078 A 
ATOM     18  C   UNL     1       1.290 -14.371   7.505  0.00  0.00    +0.046 A 
ATOM     19 CL   UNL     1       1.829 -16.367   9.252  0.00  0.00    -0.081 Cl
ATOM     20  F   UNL     1       0.683 -17.917   7.024  0.00  0.00    -0.204 F 
ENDBRANCH  11  13
BRANCH   1  21
ATOM     21  O   UNL     1       1.953  -6.697   3.577  0.00  0.00    -0.492 OA
BRANCH  21  22
ATOM     22  C   UNL     1       1.974  -6.334   2.195  0.00  0.00    +0.230 C 
BRANCH  22  23
ATOM     23  C   UNL     1       2.276  -4.840   2.064  0.00  0.00    +0.056 C 
BRANCH  23  24
ATOM     24  C   UNL     1       2.299  -4.451   0.585  0.00  0.00    +0.087 C 
BRANCH  24  29
ATOM     25  C   UNL     1       4.261   0.683  -0.653  0.00  0.00    -0.096 C 
ATOM     26  N   UNL     1       4.013  -0.762  -0.564  0.00  0.00    +0.379 N 
ATOM     27  C   UNL     1       2.639  -1.050  -0.998  0.00  0.00    -0.064 C 
ATOM     28  C   UNL     1       2.386  -2.557  -0.922  0.00  0.00    +0.066 C 
ATOM     29  N   UNL     1       2.588  -3.017   0.459  0.00  0.00    -0.306 NA
ATOM     30  C   UNL     1       3.952  -2.712   0.916  0.00  0.00    +0.066 C 
ATOM     31  C   UNL     1       4.192  -1.204   0.825  0.00  0.00    -0.064 C 
ATOM     32  H   UNL     1       4.663  -1.252  -1.159  0.00  0.00    -0.082 HD
ENDBRANCH  24  29
ENDBRANCH  23  24
ENDBRANCH  22  23
ENDBRANCH  21  22
ENDBRANCH   1  21
BRANCH   5  33
ATOM     33  O   UNL     1       1.365 -10.118   6.821  0.00  0.00    -0.488 OA
BRANCH  33  34
ATOM     34  C   UNL     1       1.618  -9.117   7.808  0.00  0.00    +0.178 C 
ATOM     35  C   UNL     1       3.129  -8.914   7.956  0.00  0.00    +0.072 C 
ATOM     36  C   UNL     1       3.393  -7.898   9.070  0.00  0.00    +0.163 C 
ATOM     37  O   UNL     1       2.804  -8.363  10.286  0.00  0.00    -0.380 OA
ATOM     38  C   UNL     1       1.386  -8.527  10.222  0.00  0.00    +0.163 C 
ATOM     39  C   UNL     1       1.041  -9.568   9.154  0.00  0.00    +0.072 C 
ENDBRANCH  33  34
ENDBRANCH   5  33
TORSDOF 8
