REMARK  Name = CHEMBL524457
REMARK  6 active torsions:
REMARK  status: ('A' for Active; 'I' for Inactive)
REMARK    1  A    between atoms: C_3  and  C_8
REMARK    2  A    between atoms: C_8  and  N_9
REMARK    3  A    between atoms: C_13  and  N_18
REMARK    4  A    between atoms: C_20  and  C_26
REMARK    5  A    between atoms: C_21  and  N_25
REMARK    6  A    between atoms: N_27  and  N_28
REMARK                            x       y       z     vdW  Elec       q    Type
REMARK                         _______ _______ _______ _____ _____    ______ ____
ROOT
ATOM      1  N   UNL     1       3.309   6.191   5.000  0.00  0.00    -0.299 N 
ATOM      2  C   UNL     1       2.647   7.396   4.837  0.00  0.00    +0.137 A 
ATOM      3  C   UNL     1       2.647   8.357   5.864  0.00  0.00    +0.074 A 
ATOM      4  C   UNL     1       1.958   9.562   5.640  0.00  0.00    +0.130 A 
ATOM      5  N   UNL     1       1.339   9.740   4.476  0.00  0.00    -0.220 NA
ATOM      6  C   UNL     1       1.366   8.810   3.543  0.00  0.00    +0.225 A 
ATOM      7  N   UNL     1       2.003   7.668   3.705  0.00  0.00    -0.220 NA
ATOM      8  H   UNL     1       3.711   5.970   5.854  0.00  0.00    +0.154 HD
ENDROOT
BRANCH   1  13
ATOM      9  N   UNL     1       3.661   2.846   0.620  0.00  0.00    -0.259 N 
ATOM     10  C   UNL     1       3.568   3.477   1.835  0.00  0.00    +0.069 A 
ATOM     11  C   UNL     1       3.483   3.023   3.150  0.00  0.00    +0.030 A 
ATOM     12  C   UNL     1       3.399   3.917   4.178  0.00  0.00    +0.025 A 
ATOM     13  C   UNL     1       3.397   5.291   3.931  0.00  0.00    +0.033 A 
ATOM     14  C   UNL     1       3.481   5.767   2.637  0.00  0.00    +0.034 A 
ATOM     15  C   UNL     1       3.567   4.860   1.575  0.00  0.00    +0.021 A 
ATOM     16  C   UNL     1       3.666   5.005   0.126  0.00  0.00    +0.143 A 
ATOM     17  N   UNL     1       3.723   3.811  -0.391  0.00  0.00    -0.178 NA
BRANCH   9  18
ATOM     18  C   UNL     1       3.695   1.396   0.414  0.00  0.00    +0.179 C 
BRANCH  18  21
ATOM     19  C   UNL     1       7.005   0.091   1.680  0.00  0.00    +0.003 A 
ATOM     20  C   UNL     1       5.694   0.530   1.647  0.00  0.00    +0.005 A 
ATOM     21  C   UNL     1       5.124   0.918   0.449  0.00  0.00    -0.023 A 
ATOM     22  C   UNL     1       5.864   0.868  -0.718  0.00  0.00    +0.043 A 
ATOM     23  C   UNL     1       7.176   0.428  -0.686  0.00  0.00    +0.124 A 
ATOM     24  C   UNL     1       7.746   0.040   0.515  0.00  0.00    +0.038 A 
ATOM     25  F   UNL     1       7.900   0.378  -1.825  0.00  0.00    -0.205 F 
ENDBRANCH  18  21
ENDBRANCH   9  18
ENDBRANCH   1  13
BRANCH   4  26
ATOM     26  N   UNL     1       1.923  10.545   6.614  0.00  0.00    -0.342 N 
ATOM     27  H   UNL     1       2.293  10.370   7.494  0.00  0.00    +0.144 HD
ATOM     28  H   UNL     1       1.528  11.409   6.418  0.00  0.00    +0.144 HD
ENDBRANCH   4  26
BRANCH   3  29
ATOM     29  C   UNL     1       3.348   8.108   7.136  0.00  0.00    +0.144 C 
ATOM     30  N   UNL     1       3.247   8.961   8.110  0.00  0.00    -0.192 NA
BRANCH  30  31
ATOM     31  N   UNL     1       4.009   8.788   9.273  0.00  0.00    -0.256 N 
ATOM     32  C   UNL     1       3.816   9.671  10.431  0.00  0.00    +0.126 C 
ATOM     33  C   UNL     1       3.553   8.809  11.670  0.00  0.00    +0.021 C 
ATOM     34  C   UNL     1       4.689   7.797  11.833  0.00  0.00    +0.003 C 
ATOM     35  C   UNL     1       4.738   6.881  10.608  0.00  0.00    +0.021 C 
ATOM     36  C   UNL     1       5.011   7.717   9.360  0.00  0.00    +0.126 C 
ENDBRANCH  30  31
ENDBRANCH   3  29
TORSDOF 6
