REMARK  Name = CHEMBL472544
REMARK  10 active torsions:
REMARK  status: ('A' for Active; 'I' for Inactive)
REMARK    1  A    between atoms: C_4  and  C_7
REMARK    2  A    between atoms: C_7  and  O_8
REMARK    3  A    between atoms: O_8  and  C_9
REMARK    4  A    between atoms: C_12  and  N_16
REMARK    5  A    between atoms: C_18  and  C_24
REMARK    6  A    between atoms: C_19  and  N_23
REMARK    7  A    between atoms: N_26  and  N_27
REMARK    8  A    between atoms: C_28  and  C_30
REMARK    9  A    between atoms: C_30  and  C_31
REMARK   10  A    between atoms: C_31  and  N_32
REMARK                            x       y       z     vdW  Elec       q    Type
REMARK                         _______ _______ _______ _____ _____    ______ ____
ROOT
ATOM      1  N   UNL     1       8.933  -3.625   1.964  0.00  0.00    -0.299 N 
ATOM      2  C   UNL     1       9.456  -3.804   3.228  0.00  0.00    +0.140 A 
ATOM      3  C   UNL     1      10.727  -4.385   3.403  0.00  0.00    +0.117 A 
ATOM      4  C   UNL     1      11.206  -4.540   4.719  0.00  0.00    +0.133 A 
ATOM      5  N   UNL     1      10.443  -4.134   5.730  0.00  0.00    -0.220 NA
ATOM      6  C   UNL     1       9.260  -3.595   5.516  0.00  0.00    +0.225 A 
ATOM      7  N   UNL     1       8.772  -3.424   4.304  0.00  0.00    -0.220 NA
ATOM      8  H   UNL     1       9.474  -3.823   1.183  0.00  0.00    +0.154 HD
ENDROOT
BRANCH   1  12
ATOM      9  C   UNL     1       5.029  -2.236   1.498  0.00  0.00    +0.139 A 
ATOM     10  C   UNL     1       6.016  -1.846   0.604  0.00  0.00    +0.049 A 
ATOM     11  C   UNL     1       7.309  -2.306   0.758  0.00  0.00    +0.027 A 
ATOM     12  C   UNL     1       7.622  -3.159   1.808  0.00  0.00    +0.034 A 
ATOM     13  C   UNL     1       6.635  -3.550   2.703  0.00  0.00    +0.047 A 
ATOM     14  C   UNL     1       5.342  -3.085   2.550  0.00  0.00    +0.084 A 
ATOM     15 CL   UNL     1       4.109  -3.567   3.673  0.00  0.00    -0.080 Cl
BRANCH   9  16
ATOM     16  O   UNL     1       3.756  -1.783   1.345  0.00  0.00    -0.486 OA
BRANCH  16  17
ATOM     17  C   UNL     1       3.505  -0.913   0.240  0.00  0.00    +0.264 C 
BRANCH  17  21
ATOM     18  C   UNL     1      -0.615   0.213   0.218  0.00  0.00    +0.000 A 
ATOM     19  C   UNL     1       0.306   0.977   0.909  0.00  0.00    +0.000 A 
ATOM     20  C   UNL     1       1.640   0.612   0.917  0.00  0.00    +0.007 A 
ATOM     21  C   UNL     1       2.051  -0.516   0.233  0.00  0.00    -0.010 A 
ATOM     22  C   UNL     1       1.130  -1.280  -0.458  0.00  0.00    +0.007 A 
ATOM     23  C   UNL     1      -0.203  -0.915  -0.466  0.00  0.00    +0.000 A 
ENDBRANCH  17  21
ENDBRANCH  16  17
ENDBRANCH   9  16
ENDBRANCH   1  12
BRANCH   3  24
ATOM     24  C   UNL     1      11.529  -4.818   2.249  0.00  0.00    +0.267 C 
ATOM     25  O   UNL     1      12.304  -4.042   1.722  0.00  0.00    -0.268 OA
ATOM     26  N   UNL     1      11.405  -6.073   1.775  0.00  0.00    -0.230 N 
ATOM     27  H   UNL     1      10.787  -6.691   2.195  0.00  0.00    +0.173 HD
BRANCH  26  28
ATOM     28  N   UNL     1      12.168  -6.485   0.675  0.00  0.00    -0.234 N 
ATOM     29  C   UNL     1      12.044  -7.740   0.201  0.00  0.00    +0.230 C 
ATOM     30  O   UNL     1      11.271  -8.514   0.726  0.00  0.00    -0.274 OA
ATOM     31  H   UNL     1      12.787  -5.867   0.255  0.00  0.00    +0.173 HD
BRANCH  29  32
ATOM     32  C   UNL     1      12.866  -8.184  -0.982  0.00  0.00    +0.112 C 
BRANCH  32  33
ATOM     33  C   UNL     1      12.537  -9.640  -1.315  0.00  0.00    +0.094 C 
BRANCH  33  34
ATOM     34  N   UNL     1      13.338 -10.072  -2.468  0.00  0.00    -0.298 NA
ATOM     35  C   UNL     1      12.945  -9.345  -3.684  0.00  0.00    +0.112 C 
ATOM     36  C   UNL     1      13.842  -9.782  -4.845  0.00  0.00    +0.175 C 
ATOM     37  O   UNL     1      13.747 -11.200  -5.008  0.00  0.00    -0.377 OA
ATOM     38  C   UNL     1      14.123 -11.939  -3.843  0.00  0.00    +0.175 C 
ATOM     39  C   UNL     1      13.228 -11.524  -2.671  0.00  0.00    +0.112 C 
ENDBRANCH  33  34
ENDBRANCH  32  33
ENDBRANCH  29  32
ENDBRANCH  26  28
ENDBRANCH   3  24
BRANCH   4  40
ATOM     40  N   UNL     1      12.442  -5.103   4.955  0.00  0.00    -0.342 N 
ATOM     41  H   UNL     1      12.991  -5.397   4.211  0.00  0.00    +0.144 HD
ATOM     42  H   UNL     1      12.763  -5.206   5.864  0.00  0.00    +0.144 HD
ENDBRANCH   4  40
TORSDOF 10
