REMARK  Name = CHEMBL139307
REMARK  8 active torsions:
REMARK  status: ('A' for Active; 'I' for Inactive)
REMARK    1  A    between atoms: C_2  and  C_3
REMARK    2  A    between atoms: N_5  and  C_6
REMARK    3  A    between atoms: N_5  and  C_15
REMARK    4  A    between atoms: C_6  and  C_7
REMARK    5  A    between atoms: C_7  and  C_8
REMARK    6  A    between atoms: C_8  and  N_9
REMARK    7  A    between atoms: C_21  and  N_25
REMARK    8  A    between atoms: N_25  and  C_26
REMARK                            x       y       z     vdW  Elec       q    Type
REMARK                         _______ _______ _______ _____ _____    ______ ____
ROOT
ATOM      1  C   UNL     1       0.274  -2.309   0.586  0.00  0.00    +0.037 A 
ATOM      2  C   UNL     1       1.251  -2.107  -0.394  0.00  0.00    +0.025 A 
ATOM      3  C   UNL     1       2.353  -2.903  -0.460  0.00  0.00    +0.030 A 
ATOM      4  C   UNL     1       2.518  -3.943   0.466  0.00  0.00    +0.076 A 
ATOM      5  C   UNL     1       1.533  -4.154   1.462  0.00  0.00    +0.042 A 
ATOM      6  C   UNL     1       0.410  -3.321   1.514  0.00  0.00    +0.037 A 
ATOM      7  C   UNL     1       1.727  -5.212   2.383  0.00  0.00    +0.134 A 
ATOM      8  N   UNL     1       2.822  -5.951   2.266  0.00  0.00    -0.220 NA
ATOM      9  C   UNL     1       3.716  -5.716   1.319  0.00  0.00    +0.223 A 
ATOM     10  N   UNL     1       3.589  -4.752   0.439  0.00  0.00    -0.235 NA
ENDROOT
BRANCH   1  13
ATOM     11  C   UNL     1      -0.717  -0.190   1.013  0.00  0.00    +0.243 C 
ATOM     12  O   UNL     1       0.387   0.270   1.233  0.00  0.00    -0.270 OA
ATOM     13  N   UNL     1      -0.848  -1.475   0.629  0.00  0.00    -0.268 N 
BRANCH  11  15
ATOM     14  C   UNL     1      -1.794   1.888   1.654  0.00  0.00    +0.014 C 
ATOM     15  C   UNL     1      -1.910   0.657   1.165  0.00  0.00    +0.060 C 
ENDBRANCH  11  15
BRANCH  13  16
ATOM     16  C   UNL     1      -2.164  -1.998   0.257  0.00  0.00    +0.115 C 
BRANCH  16  17
ATOM     17  C   UNL     1      -2.389  -1.795  -1.243  0.00  0.00    +0.035 C 
BRANCH  17  18
ATOM     18  C   UNL     1      -3.764  -2.342  -1.632  0.00  0.00    +0.086 C 
BRANCH  18  19
ATOM     19  N   UNL     1      -3.979  -2.147  -3.072  0.00  0.00    -0.298 NA
ATOM     20  C   UNL     1      -4.072  -0.717  -3.401  0.00  0.00    +0.112 C 
ATOM     21  C   UNL     1      -4.237  -0.558  -4.915  0.00  0.00    +0.175 C 
ATOM     22  O   UNL     1      -5.388  -1.289  -5.344  0.00  0.00    -0.377 OA
ATOM     23  C   UNL     1      -5.331  -2.685  -5.040  0.00  0.00    +0.175 C 
ATOM     24  C   UNL     1      -5.178  -2.866  -3.527  0.00  0.00    +0.112 C 
ENDBRANCH  18  19
ENDBRANCH  17  18
ENDBRANCH  16  17
ENDBRANCH  13  16
ENDBRANCH   1  13
BRANCH   7  25
ATOM     25  N   UNL     1       0.803  -5.466   3.375  0.00  0.00    -0.299 N 
ATOM     26  H   UNL     1      -0.032  -4.973   3.399  0.00  0.00    +0.154 HD
BRANCH  25  27
ATOM     27  C   UNL     1       1.069  -6.435   4.347  0.00  0.00    +0.033 A 
ATOM     28  C   UNL     1       0.037  -7.215   4.854  0.00  0.00    +0.023 A 
ATOM     29  C   UNL     1       0.303  -8.171   5.814  0.00  0.00    +0.003 A 
ATOM     30  C   UNL     1       1.596  -8.355   6.270  0.00  0.00    +0.015 A 
ATOM     31  C   UNL     1       2.626  -7.580   5.767  0.00  0.00    +0.020 A 
ATOM     32  C   UNL     1       2.367  -6.625   4.803  0.00  0.00    +0.038 A 
ATOM     33 BR   UNL     1       4.392  -7.835   6.395  0.00  0.00    -0.050 Br
ENDBRANCH  25  27
ENDBRANCH   7  25
TORSDOF 8
