REMARK  Name = CHEMBL121796
REMARK  4 active torsions:
REMARK  status: ('A' for Active; 'I' for Inactive)
REMARK    1  A    between atoms: C_4  and  C_7
REMARK    2  A    between atoms: C_7  and  N_8
REMARK    3  A    between atoms: N_8  and  C_9
REMARK    4  A    between atoms: N_18  and  C_19
REMARK                            x       y       z     vdW  Elec       q    Type
REMARK                         _______ _______ _______ _____ _____    ______ ____
ROOT
ATOM      1  C   UNL     1       5.584  -1.208   1.619  0.00  0.00    +0.127 A 
ATOM      2  C   UNL     1       5.990  -1.732   2.839  0.00  0.00    +0.100 A 
ATOM      3  C   UNL     1       5.499  -1.715   4.162  0.00  0.00    +0.139 A 
ATOM      4  N   UNL     1       6.191  -2.357   5.096  0.00  0.00    -0.220 NA
ATOM      5  C   UNL     1       7.314  -3.003   4.823  0.00  0.00    +0.225 A 
ATOM      6  N   UNL     1       7.842  -3.071   3.627  0.00  0.00    -0.214 NA
ATOM      7  C   UNL     1       7.243  -2.463   2.583  0.00  0.00    +0.188 A 
ATOM      8  N   UNL     1       7.498  -2.341   1.299  0.00  0.00    -0.152 NA
ATOM      9  N   UNL     1       6.489  -1.580   0.697  0.00  0.00    -0.262 N 
ATOM     10  N   UNL     1       4.333  -1.051   4.477  0.00  0.00    -0.299 N 
ATOM     11  H   UNL     1       3.794  -0.657   3.773  0.00  0.00    +0.154 HD
ATOM     12  H   UNL     1       6.449  -1.354  -0.245  0.00  0.00    +0.190 HD
ENDROOT
BRANCH  10  13
ATOM     13  C   UNL     1       3.927  -0.944   5.810  0.00  0.00    +0.034 A 
ATOM     14  C   UNL     1       2.576  -0.992   6.133  0.00  0.00    +0.023 A 
ATOM     15  C   UNL     1       2.178  -0.886   7.451  0.00  0.00    +0.003 A 
ATOM     16  C   UNL     1       3.122  -0.733   8.450  0.00  0.00    +0.020 A 
ATOM     17  C   UNL     1       4.468  -0.684   8.133  0.00  0.00    +0.043 A 
ATOM     18  C   UNL     1       4.873  -0.796   6.816  0.00  0.00    +0.043 A 
ATOM     19 CL   UNL     1       5.649  -0.491   9.390  0.00  0.00    -0.083 Cl
ENDBRANCH  10  13
BRANCH   1  20
ATOM     20  N   UNL     1       4.452  -0.446   1.392  0.00  0.00    -0.325 N 
ATOM     21  H   UNL     1       3.856  -0.233   2.127  0.00  0.00    +0.148 HD
BRANCH  20  22
ATOM     22  C   UNL     1       4.154   0.039   0.042  0.00  0.00    +0.138 C 
BRANCH  22  26
ATOM     23  C   UNL     1       0.532   2.302   0.108  0.00  0.00    +0.000 A 
ATOM     24  C   UNL     1       1.744   2.932   0.318  0.00  0.00    +0.000 A 
ATOM     25  C   UNL     1       2.917   2.200   0.297  0.00  0.00    +0.005 A 
ATOM     26  C   UNL     1       2.876   0.837   0.066  0.00  0.00    -0.030 A 
ATOM     27  C   UNL     1       1.664   0.207  -0.143  0.00  0.00    +0.005 A 
ATOM     28  C   UNL     1       0.492   0.940  -0.123  0.00  0.00    +0.000 A 
ENDBRANCH  22  26
ENDBRANCH  20  22
ENDBRANCH   1  20
TORSDOF 4
