REMARK  Name = CHEMBL433305
REMARK  1 active torsions:
REMARK  status: ('A' for Active; 'I' for Inactive)
REMARK    1  A    between atoms: C_4  and  N_7
REMARK                            x       y       z     vdW  Elec       q    Type
REMARK                         _______ _______ _______ _____ _____    ______ ____
ROOT
ATOM      1  N   UNL     1       3.620  -0.650  -0.037  0.00  0.00    -0.299 N 
ATOM      2  C   UNL     1       3.644  -2.030   0.059  0.00  0.00    +0.136 A 
ATOM      3  C   UNL     1       4.862  -2.723   0.155  0.00  0.00    +0.062 A 
ATOM      4  C   UNL     1       6.268  -2.349   0.187  0.00  0.00    -0.014 A 
ATOM      5  C   UNL     1       6.980  -3.488   0.292  0.00  0.00    +0.022 A 
ATOM      6  N   UNL     1       6.128  -4.558   0.331  0.00  0.00    -0.343 N 
ATOM      7  H   UNL     1       6.402  -5.486   0.405  0.00  0.00    +0.167 HD
ATOM      8  C   UNL     1       4.830  -4.128   0.251  0.00  0.00    +0.144 A 
ATOM      9  N   UNL     1       3.648  -4.741   0.247  0.00  0.00    -0.218 NA
ATOM     10  C   UNL     1       2.532  -4.050   0.155  0.00  0.00    +0.225 A 
ATOM     11  N   UNL     1       2.515  -2.732   0.069  0.00  0.00    -0.220 NA
ATOM     12  C   UNL     1       8.490  -3.530   0.354  0.00  0.00    +0.053 C 
ATOM     13  C   UNL     1       9.035  -2.185  -0.137  0.00  0.00    +0.006 C 
ATOM     14  C   UNL     1       8.322  -1.046   0.596  0.00  0.00    +0.005 C 
ATOM     15  C   UNL     1       6.867  -0.968   0.120  0.00  0.00    +0.038 C 
ATOM     16  H   UNL     1       4.451  -0.155  -0.121  0.00  0.00    +0.154 HD
ENDROOT
BRANCH   1  20
ATOM     17  C   UNL     1      -0.015   1.381   0.031  0.00  0.00    +0.000 A 
ATOM     18  C   UNL     1       0.137   0.213   0.756  0.00  0.00    +0.002 A 
ATOM     19  C   UNL     1       1.341  -0.463   0.736  0.00  0.00    +0.023 A 
ATOM     20  C   UNL     1       2.400   0.032  -0.015  0.00  0.00    +0.032 A 
ATOM     21  C   UNL     1       2.244   1.205  -0.742  0.00  0.00    +0.023 A 
ATOM     22  C   UNL     1       1.037   1.876  -0.717  0.00  0.00    +0.002 A 
ENDBRANCH   1  20
TORSDOF 1
