REMARK  Name = CHEMBL25610
REMARK  7 active torsions:
REMARK  status: ('A' for Active; 'I' for Inactive)
REMARK    1  A    between atoms: C_1  and  O_2
REMARK    2  A    between atoms: O_2  and  C_3
REMARK    3  A    between atoms: C_8  and  O_9
REMARK    4  A    between atoms: O_9  and  C_10
REMARK    5  A    between atoms: C_10  and  C_11
REMARK    6  A    between atoms: C_11  and  N_12
REMARK    7  A    between atoms: N_22  and  C_23
REMARK                            x       y       z     vdW  Elec       q    Type
REMARK                         _______ _______ _______ _____ _____    ______ ____
ROOT
ATOM      1  C   UNL     1       0.529  -0.970   0.939  0.00  0.00    +0.162 A 
ATOM      2  C   UNL     1       1.095  -0.155   1.879  0.00  0.00    +0.062 A 
ATOM      3  C   UNL     1       1.780  -0.718   2.962  0.00  0.00    +0.044 A 
ATOM      4  C   UNL     1       1.885  -2.126   3.077  0.00  0.00    +0.080 A 
ATOM      5  C   UNL     1       1.298  -2.942   2.102  0.00  0.00    +0.078 A 
ATOM      6  C   UNL     1       0.624  -2.364   1.049  0.00  0.00    +0.164 A 
ATOM      7  N   UNL     1       2.548  -2.640   4.125  0.00  0.00    -0.235 NA
ATOM      8  C   UNL     1       3.087  -1.850   5.023  0.00  0.00    +0.223 A 
ATOM      9  N   UNL     1       3.015  -0.530   4.957  0.00  0.00    -0.220 NA
ATOM     10  C   UNL     1       2.384   0.081   3.962  0.00  0.00    +0.134 A 
ATOM     11  N   UNL     1       2.317   1.458   3.906  0.00  0.00    -0.297 N 
ATOM     12  H   UNL     1       1.785   1.890   3.219  0.00  0.00    +0.154 HD
ENDROOT
BRANCH  11  13
ATOM     13  C   UNL     1       3.017   2.232   4.839  0.00  0.00    +0.068 A 
ATOM     14  C   UNL     1       4.129   1.707   5.483  0.00  0.00    +0.027 A 
ATOM     15  C   UNL     1       4.818   2.473   6.404  0.00  0.00    +0.022 A 
ATOM     16  C   UNL     1       4.401   3.762   6.685  0.00  0.00    +0.044 A 
ATOM     17  C   UNL     1       3.292   4.288   6.046  0.00  0.00    +0.060 A 
ATOM     18  C   UNL     1       2.602   3.529   5.120  0.00  0.00    +0.146 A 
ATOM     19  F   UNL     1       1.523   4.045   4.492  0.00  0.00    -0.203 F 
ATOM     20 CL   UNL     1       5.271   4.720   7.843  0.00  0.00    -0.083 Cl
ENDBRANCH  11  13
BRANCH   1  22
ATOM     21  C   UNL     1      -0.198   1.005  -0.170  0.00  0.00    +0.277 C 
ATOM     22  O   UNL     1      -0.137  -0.422  -0.113  0.00  0.00    -0.491 OA
ENDBRANCH   1  22
BRANCH   6  23
ATOM     23  O   UNL     1       0.048  -3.153   0.105  0.00  0.00    -0.490 OA
BRANCH  23  24
ATOM     24  C   UNL     1       0.179  -4.566   0.273  0.00  0.00    +0.211 C 
BRANCH  24  25
ATOM     25  C   UNL     1      -0.527  -5.284  -0.878  0.00  0.00    -0.037 C 
BRANCH  25  26
ATOM     26  N   UNL     1       0.120  -4.928  -2.148  0.00  0.00    +0.385 N 
ATOM     27  C   UNL     1      -0.638  -5.508  -3.265  0.00  0.00    -0.050 C 
ATOM     28  C   UNL     1       0.038  -5.135  -4.586  0.00  0.00    +0.141 C 
ATOM     29  O   UNL     1       1.390  -5.601  -4.572  0.00  0.00    -0.383 OA
ATOM     30  C   UNL     1       2.164  -5.082  -3.487  0.00  0.00    +0.141 C 
ATOM     31  C   UNL     1       1.492  -5.455  -2.163  0.00  0.00    -0.050 C 
ATOM     32  H   UNL     1       0.145  -3.924  -2.243  0.00  0.00    -0.081 HD
ENDBRANCH  25  26
ENDBRANCH  24  25
ENDBRANCH  23  24
ENDBRANCH   6  23
TORSDOF 6
