REMARK  Name = CHEMBL578255
REMARK  10 active torsions:
REMARK  status: ('A' for Active; 'I' for Inactive)
REMARK    1  A    between atoms: C_1  and  C_2
REMARK    2  A    between atoms: C_2  and  C_3
REMARK    3  A    between atoms: C_9  and  N_10
REMARK    4  A    between atoms: N_10  and  C_11
REMARK    5  A    between atoms: N_19  and  C_20
REMARK    6  A    between atoms: C_20  and  C_21
REMARK    7  A    between atoms: C_30  and  O_32
REMARK    8  A    between atoms: O_32  and  C_33
REMARK    9  A    between atoms: C_33  and  C_34
REMARK   10  A    between atoms: C_34  and  N_35
REMARK                            x       y       z     vdW  Elec       q    Type
REMARK                         _______ _______ _______ _____ _____    ______ ____
ROOT
ATOM      1  C   UNL     1       0.140   0.542  -1.187  0.00  0.00    +0.003 C 
ATOM      2  C   UNL     1       1.270  -0.055  -0.837  0.00  0.00    +0.047 C 
ATOM      3  C   UNL     1       2.002  -0.375  -2.138  0.00  0.00    +0.258 C 
ATOM      4  N   UNL     1       2.458  -1.757  -1.990  0.00  0.00    -0.241 NA
ATOM      5  C   UNL     1       2.724  -2.219  -0.805  0.00  0.00    +0.220 C 
ATOM      6  N   UNL     1       2.600  -1.569   0.354  0.00  0.00    -0.219 NA
ATOM      7  C   UNL     1       1.871  -0.448   0.445  0.00  0.00    +0.152 C 
ATOM      8  N   UNL     1       1.013  -0.163  -3.183  0.00  0.00    -0.237 NA
ATOM      9  C   UNL     1      -0.032   0.404  -2.644  0.00  0.00    +0.129 C 
ATOM     10  N   UNL     1      -1.150   0.824  -3.348  0.00  0.00    -0.236 N 
ATOM     11  C   UNL     1      -1.210   0.652  -4.683  0.00  0.00    +0.406 C 
ATOM     12  O   UNL     1      -0.284   0.129  -5.270  0.00  0.00    -0.226 OA
ATOM     13  H   UNL     1      -1.889   1.241  -2.878  0.00  0.00    +0.160 HD
ENDROOT
BRANCH   1  15
ATOM     14  C   UNL     1      -0.504   2.737  -0.231  0.00  0.00    +0.009 C 
ATOM     15  C   UNL     1      -0.813   1.239  -0.251  0.00  0.00    +0.036 C 
ENDBRANCH   1  15
BRANCH   7  16
ATOM     16  N   UNL     1       1.704   0.257   1.611  0.00  0.00    -0.196 NA
BRANCH  16  17
ATOM     17  C   UNL     1       2.500  -0.034   2.724  0.00  0.00    +0.056 A 
ATOM     18  C   UNL     1       2.013   0.211   4.010  0.00  0.00    +0.027 A 
ATOM     19  C   UNL     1       2.773  -0.065   5.108  0.00  0.00    +0.030 A 
ATOM     20  C   UNL     1       4.052  -0.598   4.957  0.00  0.00    +0.069 A 
ATOM     21  C   UNL     1       4.553  -0.850   3.666  0.00  0.00    +0.022 A 
ATOM     22  C   UNL     1       3.761  -0.568   2.547  0.00  0.00    +0.036 A 
ATOM     23  C   UNL     1       5.894  -1.397   3.845  0.00  0.00    +0.143 A 
ATOM     24  N   UNL     1       6.134  -1.452   5.124  0.00  0.00    -0.178 NA
ATOM     25  N   UNL     1       5.033  -0.972   5.840  0.00  0.00    -0.259 N 
BRANCH  25  26
ATOM     26  C   UNL     1       4.941  -0.884   7.300  0.00  0.00    +0.179 C 
BRANCH  26  27
ATOM     27  C   UNL     1       4.368  -2.166   7.846  0.00  0.00    -0.026 A 
ATOM     28  C   UNL     1       3.000  -2.304   7.995  0.00  0.00    +0.005 A 
ATOM     29  C   UNL     1       2.474  -3.480   8.496  0.00  0.00    +0.000 A 
ATOM     30  C   UNL     1       3.316  -4.518   8.848  0.00  0.00    +0.000 A 
ATOM     31  C   UNL     1       4.683  -4.381   8.698  0.00  0.00    +0.000 A 
ATOM     32  C   UNL     1       5.209  -3.206   8.193  0.00  0.00    +0.005 A 
ENDBRANCH  26  27
ENDBRANCH  25  26
ENDBRANCH  16  17
ENDBRANCH   7  16
BRANCH  11  33
ATOM     33  O   UNL     1      -2.296   1.059  -5.366  0.00  0.00    -0.449 OA
BRANCH  33  34
ATOM     34  C   UNL     1      -2.292   0.846  -6.779  0.00  0.00    +0.249 C 
BRANCH  34  35
ATOM     35  C   UNL     1      -3.599   1.369  -7.378  0.00  0.00    +0.125 C 
BRANCH  35  36
ATOM     36  N   UNL     1      -3.681   2.823  -7.179  0.00  0.00    -0.295 NA
ATOM     37  C   UNL     1      -5.067   3.295  -7.308  0.00  0.00    +0.112 C 
ATOM     38  C   UNL     1      -5.114   4.801  -7.036  0.00  0.00    +0.175 C 
ATOM     39  O   UNL     1      -4.229   5.471  -7.936  0.00  0.00    -0.377 OA
ATOM     40  C   UNL     1      -2.870   5.036  -7.838  0.00  0.00    +0.175 C 
ATOM     41  C   UNL     1      -2.800   3.533  -8.118  0.00  0.00    +0.112 C 
ENDBRANCH  35  36
ENDBRANCH  34  35
ENDBRANCH  33  34
ENDBRANCH  11  33
TORSDOF 9
