REMARK  Name = CHEMBL408683
REMARK  6 active torsions:
REMARK  status: ('A' for Active; 'I' for Inactive)
REMARK    1  A    between atoms: C_3  and  C_8
REMARK    2  A    between atoms: C_5  and  O_7
REMARK    3  A    between atoms: N_10  and  C_18
REMARK    4  A    between atoms: C_13  and  N_17
REMARK    5  A    between atoms: N_21  and  C_23
REMARK    6  A    between atoms: C_23  and  C_24
REMARK                            x       y       z     vdW  Elec       q    Type
REMARK                         _______ _______ _______ _____ _____    ______ ____
ROOT
ATOM      1  C   UNL     1       3.659   2.171  -0.022  0.00  0.00    +0.012 A 
ATOM      2  C   UNL     1       4.723   1.980   0.795  0.00  0.00    +0.097 A 
ATOM      3  N   UNL     1       5.709   2.875   0.484  0.00  0.00    -0.327 N 
ATOM      4  C   UNL     1       5.311   3.679  -0.551  0.00  0.00    +0.147 A 
ATOM      5  C   UNL     1       4.016   3.276  -0.921  0.00  0.00    +0.066 A 
ATOM      6  C   UNL     1       3.378   3.945  -1.974  0.00  0.00    +0.129 A 
ATOM      7  N   UNL     1       4.029   4.933  -2.581  0.00  0.00    -0.220 NA
ATOM      8  C   UNL     1       5.246   5.278  -2.204  0.00  0.00    +0.225 A 
ATOM      9  N   UNL     1       5.880   4.683  -1.217  0.00  0.00    -0.218 NA
ENDROOT
BRANCH   1  12
ATOM     10  C   UNL     1      -0.017   1.378   0.010  0.00  0.00    +0.004 A 
ATOM     11  C   UNL     1       1.167   2.088   0.002  0.00  0.00    +0.009 A 
ATOM     12  C   UNL     1       2.386   1.411  -0.013  0.00  0.00    -0.012 A 
ATOM     13  C   UNL     1       2.404   0.018  -0.021  0.00  0.00    +0.054 A 
ATOM     14  C   UNL     1       1.211  -0.686  -0.013  0.00  0.00    +0.117 A 
ATOM     15  C   UNL     1       0.002  -0.004   0.002  0.00  0.00    +0.045 A 
BRANCH  14  16
ATOM     16  O   UNL     1       1.225  -2.045  -0.021  0.00  0.00    -0.507 OA
ATOM     17  H   UNL     1       1.237  -2.443   0.860  0.00  0.00    +0.292 HD
ENDBRANCH  14  16
ENDBRANCH   1  12
BRANCH   3  18
ATOM     18  C   UNL     1       7.006   2.962   1.160  0.00  0.00    +0.104 C 
ATOM     19  C   UNL     1       6.805   3.157   2.681  0.00  0.00    +0.042 C 
ATOM     20  C   UNL     1       6.942   1.716   3.235  0.00  0.00    +0.087 C 
ATOM     21  N   UNL     1       8.013   1.128   2.391  0.00  0.00    -0.292 NA
ATOM     22  C   UNL     1       7.771   1.633   1.022  0.00  0.00    +0.110 C 
BRANCH  21  23
ATOM     23  C   UNL     1       7.965  -0.340   2.426  0.00  0.00    +0.180 C 
BRANCH  23  24
ATOM     24  C   UNL     1       8.389  -0.824   3.789  0.00  0.00    +0.225 C 
ATOM     25  O   UNL     1       8.702  -0.025   4.646  0.00  0.00    -0.275 OA
ATOM     26  N   UNL     1       8.422  -2.145   4.055  0.00  0.00    -0.328 N 
ATOM     27  H   UNL     1       8.172  -2.784   3.369  0.00  0.00    +0.145 HD
ATOM     28  H   UNL     1       8.696  -2.456   4.932  0.00  0.00    +0.145 HD
ENDBRANCH  23  24
ENDBRANCH  21  23
ENDBRANCH   3  18
BRANCH   6  29
ATOM     29  N   UNL     1       2.102   3.586  -2.372  0.00  0.00    -0.343 N 
ATOM     30  H   UNL     1       1.639   2.863  -1.920  0.00  0.00    +0.144 HD
ATOM     31  H   UNL     1       1.671   4.057  -3.102  0.00  0.00    +0.144 HD
ENDBRANCH   6  29
TORSDOF 6
