REMARK  Name = CHEMBL94019
REMARK  5 active torsions:
REMARK  status: ('A' for Active; 'I' for Inactive)
REMARK    1  A    between atoms: C_1  and  O_2
REMARK    2  A    between atoms: O_2  and  C_3
REMARK    3  A    between atoms: C_8  and  O_9
REMARK    4  A    between atoms: O_9  and  C_10
REMARK    5  A    between atoms: N_15  and  C_16
REMARK                            x       y       z     vdW  Elec       q    Type
REMARK                         _______ _______ _______ _____ _____    ______ ____
ROOT
ATOM      1  C   UNL     1       0.606  -0.608  -1.056  0.00  0.00    +0.162 A 
ATOM      2  C   UNL     1       1.162   0.157  -2.043  0.00  0.00    +0.062 A 
ATOM      3  C   UNL     1       1.784  -0.463  -3.133  0.00  0.00    +0.044 A 
ATOM      4  C   UNL     1       1.835  -1.877  -3.207  0.00  0.00    +0.080 A 
ATOM      5  C   UNL     1       1.258  -2.641  -2.185  0.00  0.00    +0.078 A 
ATOM      6  C   UNL     1       0.657  -2.007  -1.120  0.00  0.00    +0.164 A 
ATOM      7  N   UNL     1       2.438  -2.447  -4.262  0.00  0.00    -0.235 NA
ATOM      8  C   UNL     1       2.970  -1.705  -5.204  0.00  0.00    +0.223 A 
ATOM      9  N   UNL     1       2.947  -0.382  -5.177  0.00  0.00    -0.220 NA
ATOM     10  C   UNL     1       2.376   0.282  -4.180  0.00  0.00    +0.130 A 
ATOM     11  N   UNL     1       2.359   1.661  -4.166  0.00  0.00    -0.322 N 
ATOM     12  H   UNL     1       1.938   2.133  -3.431  0.00  0.00    +0.148 HD
ENDROOT
BRANCH  11  13
ATOM     13  C   UNL     1       2.978   2.413  -5.261  0.00  0.00    +0.103 C 
ATOM     14  C   UNL     1       2.383   3.835  -5.337  0.00  0.00    +0.032 C 
ATOM     15  C   UNL     1       3.597   4.679  -5.780  0.00  0.00    +0.037 C 
ATOM     16  C   UNL     1       4.809   3.917  -5.290  0.00  0.00    -0.042 A 
ATOM     17  C   UNL     1       4.454   2.615  -4.991  0.00  0.00    -0.024 A 
ATOM     18  C   UNL     1       5.409   1.730  -4.522  0.00  0.00    +0.006 A 
ATOM     19  C   UNL     1       6.716   2.143  -4.352  0.00  0.00    +0.000 A 
ATOM     20  C   UNL     1       7.072   3.445  -4.650  0.00  0.00    +0.000 A 
ATOM     21  C   UNL     1       6.120   4.330  -5.119  0.00  0.00    +0.004 A 
ENDBRANCH  11  13
BRANCH   1  23
ATOM     22  C   UNL     1      -0.017   1.425   0.010  0.00  0.00    +0.277 C 
ATOM     23  O   UNL     1       0.002  -0.004   0.002  0.00  0.00    -0.491 OA
ENDBRANCH   1  23
BRANCH   6  24
ATOM     24  O   UNL     1       0.102  -2.745  -0.124  0.00  0.00    -0.491 OA
ATOM     25  C   UNL     1       0.185  -4.167  -0.246  0.00  0.00    +0.277 C 
ENDBRANCH   6  24
TORSDOF 3
