REMARK  Name = CHEMBL516365
REMARK  10 active torsions:
REMARK  status: ('A' for Active; 'I' for Inactive)
REMARK    1  A    between atoms: C_1  and  C_2
REMARK    2  A    between atoms: N_5  and  C_8
REMARK    3  A    between atoms: C_8  and  C_9
REMARK    4  A    between atoms: C_9  and  C_10
REMARK    5  A    between atoms: C_10  and  O_11
REMARK    6  A    between atoms: O_11  and  C_12
REMARK    7  A    between atoms: C_17  and  N_18
REMARK    8  A    between atoms: C_19  and  C_21
REMARK    9  A    between atoms: C_23  and  C_27
REMARK   10  A    between atoms: C_27  and  C_28
REMARK                            x       y       z     vdW  Elec       q    Type
REMARK                         _______ _______ _______ _____ _____    ______ ____
ROOT
ATOM      1  C   UNL     1       0.427  -7.660   4.362  0.00  0.00    +0.144 A 
ATOM      2  C   UNL     1      -0.077  -8.540   3.447  0.00  0.00    +0.076 A 
ATOM      3  C   UNL     1      -0.045  -9.914   3.716  0.00  0.00    +0.078 A 
ATOM      4  C   UNL     1       0.511 -10.373   4.939  0.00  0.00    +0.024 A 
ATOM      5  C   UNL     1       1.022  -9.448   5.862  0.00  0.00    +0.038 A 
ATOM      6  C   UNL     1       0.982  -8.114   5.570  0.00  0.00    +0.077 A 
ATOM      7  C   UNL     1       0.530 -11.757   5.183  0.00  0.00    +0.057 A 
ATOM      8  N   UNL     1       0.031 -12.562   4.266  0.00  0.00    -0.239 NA
ATOM      9  C   UNL     1      -0.479 -12.096   3.136  0.00  0.00    +0.222 A 
ATOM     10  N   UNL     1      -0.526 -10.816   2.851  0.00  0.00    -0.235 NA
ENDROOT
BRANCH   6  11
ATOM     11  N   UNL     1       1.496  -7.190   6.486  0.00  0.00    -0.279 N 
ATOM     12  C   UNL     1       2.442  -7.570   7.368  0.00  0.00    +0.241 C 
ATOM     13  O   UNL     1       2.921  -8.685   7.303  0.00  0.00    -0.271 OA
ATOM     14  H   UNL     1       1.171  -6.276   6.486  0.00  0.00    +0.155 HD
BRANCH  12  15
ATOM     15  C   UNL     1       2.894  -6.635   8.409  0.00  0.00    +0.060 C 
ATOM     16  C   UNL     1       3.827  -7.009   9.280  0.00  0.00    +0.013 C 
ENDBRANCH  12  15
ENDBRANCH   6  11
BRANCH   1  17
ATOM     17  O   UNL     1       0.395  -6.328   4.099  0.00  0.00    -0.490 OA
BRANCH  17  18
ATOM     18  C   UNL     1      -0.182  -5.926   2.855  0.00  0.00    +0.227 C 
BRANCH  18  19
ATOM     19  C   UNL     1      -0.129  -4.401   2.737  0.00  0.00    +0.022 C 
BRANCH  19  20
ATOM     20  C   UNL     1      -0.747  -3.971   1.405  0.00  0.00    -0.076 C 
BRANCH  20  25
ATOM     21  C   UNL     1       0.012   1.493  -0.040  0.00  0.00    +0.007 C 
ATOM     22  C   UNL     1       0.024  -0.037  -0.039  0.00  0.00    -0.018 C 
ATOM     23  C   UNL     1      -1.415  -0.560  -0.011  0.00  0.00    -0.016 C 
ATOM     24  C   UNL     1      -1.395  -2.088   0.071  0.00  0.00    -0.079 C 
ATOM     25  N   UNL     1      -0.696  -2.507   1.292  0.00  0.00    +0.380 N 
ATOM     26  C   UNL     1       0.705  -2.071   1.239  0.00  0.00    -0.079 C 
ATOM     27  C   UNL     1       0.765  -0.542   1.202  0.00  0.00    -0.016 C 
ATOM     28  H   UNL     1      -1.146  -2.094   2.095  0.00  0.00    -0.082 HD
ENDBRANCH  20  25
ENDBRANCH  19  20
ENDBRANCH  18  19
ENDBRANCH  17  18
ENDBRANCH   1  17
BRANCH   7  29
ATOM     29  C   UNL     1       1.107 -12.308   6.462  0.00  0.00    +0.091 C 
BRANCH  29  30
ATOM     30  C   UNL     1       0.022 -12.401   7.503  0.00  0.00    -0.041 A 
ATOM     31  C   UNL     1      -0.225 -11.329   8.342  0.00  0.00    +0.004 A 
ATOM     32  C   UNL     1      -1.220 -11.414   9.297  0.00  0.00    +0.001 A 
ATOM     33  C   UNL     1      -1.968 -12.570   9.415  0.00  0.00    +0.015 A 
ATOM     34  C   UNL     1      -1.722 -13.642   8.577  0.00  0.00    +0.018 A 
ATOM     35  C   UNL     1      -0.730 -13.555   7.617  0.00  0.00    +0.019 A 
ATOM     36 BR   UNL     1      -2.745 -15.224   8.739  0.00  0.00    -0.050 Br
ENDBRANCH  29  30
ENDBRANCH   7  29
TORSDOF 9
