REMARK  Name = CHEMBL304271
REMARK  14 active torsions:
REMARK  status: ('A' for Active; 'I' for Inactive)
REMARK    1  A    between atoms: C_1  and  C_2
REMARK    2  A    between atoms: C_2  and  N_3
REMARK    3  A    between atoms: N_3  and  C_4
REMARK    4  A    between atoms: N_3  and  C_6
REMARK    5  A    between atoms: C_4  and  C_5
REMARK    6  A    between atoms: C_6  and  C_7
REMARK    7  A    between atoms: C_7  and  C_8
REMARK    8  A    between atoms: C_7  and  O_39
REMARK    9  A    between atoms: C_8  and  N_9
REMARK   10  A    between atoms: C_10  and  C_12
REMARK   11  A    between atoms: C_14  and  C_38
REMARK   12  A    between atoms: C_15  and  C_18
REMARK   13  A    between atoms: C_25  and  N_26
REMARK   14  A    between atoms: N_26  and  C_27
REMARK                            x       y       z     vdW  Elec       q    Type
REMARK                         _______ _______ _______ _____ _____    ______ ____
ROOT
ATOM      1  C   UNL     1      -0.632  -6.678   5.467  0.00  0.00    +0.102 A 
ATOM      2  C   UNL     1      -0.947  -7.615   6.433  0.00  0.00    +0.036 A 
ATOM      3  C   UNL     1      -0.362  -7.202   7.625  0.00  0.00    -0.025 A 
ATOM      4  C   UNL     1       0.306  -6.013   7.373  0.00  0.00    +0.043 A 
ATOM      5  N   UNL     1       0.139  -5.704   6.049  0.00  0.00    -0.351 N 
ATOM      6  H   UNL     1       0.504  -4.926   5.598  0.00  0.00    +0.166 HD
ATOM      7  C   UNL     1      -0.441  -7.917   8.950  0.00  0.00    +0.046 C 
ENDROOT
BRANCH   4   8
ATOM      8  C   UNL     1       1.037  -5.254   8.318  0.00  0.00    +0.039 C 
ATOM      9  C   UNL     1       1.074  -3.880   8.218  0.00  0.00    +0.053 C 
ATOM     10  C   UNL     1       1.901  -2.943   9.001  0.00  0.00    +0.067 A 
ATOM     11  C   UNL     1       1.589  -1.655   8.540  0.00  0.00    +0.138 A 
ATOM     12  N   UNL     1       2.213  -0.618   9.098  0.00  0.00    -0.220 NA
ATOM     13  C   UNL     1       3.098  -0.798  10.056  0.00  0.00    +0.225 A 
ATOM     14  N   UNL     1       3.418  -1.991  10.517  0.00  0.00    -0.220 NA
ATOM     15  C   UNL     1       2.847  -3.088  10.021  0.00  0.00    +0.136 A 
ATOM     16  N   UNL     1       0.640  -1.746   7.542  0.00  0.00    -0.266 N 
ATOM     17  C   UNL     1       0.299  -3.024   7.300  0.00  0.00    +0.250 C 
ATOM     18  O   UNL     1      -0.507  -3.406   6.472  0.00  0.00    -0.270 OA
ATOM     19  H   UNL     1       0.269  -0.984   7.071  0.00  0.00    +0.157 HD
BRANCH  15  20
ATOM     20  N   UNL     1       3.182  -4.341  10.504  0.00  0.00    -0.299 N 
ATOM     21  H   UNL     1       2.808  -5.136  10.092  0.00  0.00    +0.154 HD
BRANCH  20  22
ATOM     22  C   UNL     1       4.059  -4.462  11.587  0.00  0.00    +0.034 A 
ATOM     23  C   UNL     1       4.056  -3.506  12.594  0.00  0.00    +0.026 A 
ATOM     24  C   UNL     1       4.923  -3.626  13.662  0.00  0.00    +0.041 A 
ATOM     25  C   UNL     1       5.795  -4.700  13.731  0.00  0.00    +0.142 A 
ATOM     26  C   UNL     1       5.800  -5.656  12.727  0.00  0.00    +0.078 A 
ATOM     27  C   UNL     1       4.930  -5.542  11.659  0.00  0.00    +0.046 A 
ATOM     28 CL   UNL     1       6.894  -7.000  12.815  0.00  0.00    -0.081 Cl
ATOM     29  F   UNL     1       6.642  -4.816  14.777  0.00  0.00    -0.204 F 
ENDBRANCH  20  22
ENDBRANCH  15  20
ENDBRANCH   4   8
BRANCH   1  31
ATOM     30  N   UNL     1      -0.665  -5.742   3.213  0.00  0.00    -0.308 N 
ATOM     31  C   UNL     1      -1.047  -6.720   4.057  0.00  0.00    +0.260 C 
ATOM     32  O   UNL     1      -1.734  -7.639   3.653  0.00  0.00    -0.269 OA
ATOM     33  H   UNL     1      -0.117  -5.009   3.535  0.00  0.00    +0.149 HD
BRANCH  30  34
ATOM     34  C   UNL     1      -1.079  -5.784   1.808  0.00  0.00    +0.134 C 
BRANCH  34  35
ATOM     35  C   UNL     1      -0.516  -4.566   1.073  0.00  0.00    +0.115 C 
BRANCH  35  36
ATOM     36  O   UNL     1       0.911  -4.641   1.050  0.00  0.00    -0.392 OA
ATOM     37  H   UNL     1       1.256  -5.426   0.605  0.00  0.00    +0.210 HD
ENDBRANCH  35  36
BRANCH  35  38
ATOM     38  C   UNL     1      -1.049  -4.543  -0.360  0.00  0.00    -0.046 C 
BRANCH  38  39
ATOM     39  N   UNL     1      -0.656  -3.286  -1.010  0.00  0.00    +0.381 N 
ATOM     40  H   UNL     1      -0.938  -2.507  -0.433  0.00  0.00    -0.082 HD
BRANCH  39  42
ATOM     41  C   UNL     1       1.247  -4.520  -1.933  0.00  0.00    -0.017 C 
ATOM     42  C   UNL     1       0.802  -3.261  -1.186  0.00  0.00    -0.082 C 
ENDBRANCH  39  42
BRANCH  39  43
ATOM     43  C   UNL     1      -1.310  -3.186  -2.321  0.00  0.00    -0.082 C 
ATOM     44  C   UNL     1      -1.019  -1.814  -2.933  0.00  0.00    -0.017 C 
ENDBRANCH  39  43
ENDBRANCH  38  39
ENDBRANCH  35  38
ENDBRANCH  34  35
ENDBRANCH  30  34
ENDBRANCH   1  31
TORSDOF 11
