REMARK  Name = CHEMBL248220
REMARK  9 active torsions:
REMARK  status: ('A' for Active; 'I' for Inactive)
REMARK    1  A    between atoms: C_1  and  O_2
REMARK    2  A    between atoms: O_2  and  C_3
REMARK    3  A    between atoms: C_8  and  O_9
REMARK    4  A    between atoms: O_9  and  C_10
REMARK    5  A    between atoms: C_10  and  C_11
REMARK    6  A    between atoms: C_17  and  N_23
REMARK    7  A    between atoms: C_18  and  C_21
REMARK    8  A    between atoms: N_23  and  C_24
REMARK    9  A    between atoms: C_27  and  C_29
REMARK                            x       y       z     vdW  Elec       q    Type
REMARK                         _______ _______ _______ _____ _____    ______ ____
ROOT
ATOM      1  C   UNL     1       1.530  -0.421  -0.845  0.00  0.00    +0.164 A 
ATOM      2  C   UNL     1       1.631   0.278  -2.026  0.00  0.00    +0.077 A 
ATOM      3  C   UNL     1       1.906  -0.407  -3.219  0.00  0.00    +0.076 A 
ATOM      4  C   UNL     1       2.076  -1.812  -3.185  0.00  0.00    +0.026 A 
ATOM      5  C   UNL     1       1.969  -2.501  -1.968  0.00  0.00    +0.061 A 
ATOM      6  C   UNL     1       1.706  -1.812  -0.819  0.00  0.00    +0.163 A 
ATOM      7  C   UNL     1       2.353  -2.499  -4.389  0.00  0.00    +0.056 A 
ATOM      8  C   UNL     1       2.446  -1.744  -5.568  0.00  0.00    +0.091 A 
ATOM      9  C   UNL     1       2.263  -0.353  -5.509  0.00  0.00    +0.132 A 
ATOM     10  N   UNL     1       2.007   0.258  -4.380  0.00  0.00    -0.253 NA
ENDROOT
BRANCH   1  12
ATOM     11  C   UNL     1       1.096   1.660   0.218  0.00  0.00    +0.277 C 
ATOM     12  O   UNL     1       1.264   0.244   0.310  0.00  0.00    -0.491 OA
ENDBRANCH   1  12
BRANCH   8  13
ATOM     13  C   UNL     1       2.725  -2.384  -6.818  0.00  0.00    +0.103 C 
ATOM     14  N   UNL     1       2.947  -2.892  -7.809  0.00  0.00    -0.191 NA
ENDBRANCH   8  13
BRANCH   7  15
ATOM     15  N   UNL     1       2.528  -3.868  -4.405  0.00  0.00    -0.339 N 
ATOM     16  H   UNL     1       2.094  -4.420  -3.736  0.00  0.00    +0.146 HD
BRANCH  15  17
ATOM     17  C   UNL     1       3.368  -4.488  -5.432  0.00  0.00    +0.078 C 
ATOM     18  C   UNL     1       2.740  -5.588  -6.290  0.00  0.00    +0.032 C 
ATOM     19  C   UNL     1       3.777  -5.948  -5.224  0.00  0.00    +0.041 C 
BRANCH  19  20
ATOM     20  C   UNL     1       5.147  -6.360  -5.698  0.00  0.00    -0.042 A 
ATOM     21  C   UNL     1       5.486  -6.229  -7.032  0.00  0.00    +0.004 A 
ATOM     22  C   UNL     1       6.742  -6.608  -7.466  0.00  0.00    +0.000 A 
ATOM     23  C   UNL     1       7.660  -7.117  -6.567  0.00  0.00    +0.000 A 
ATOM     24  C   UNL     1       7.322  -7.248  -5.233  0.00  0.00    +0.000 A 
ATOM     25  C   UNL     1       6.067  -6.865  -4.798  0.00  0.00    +0.004 A 
ENDBRANCH  19  20
ENDBRANCH  15  17
ENDBRANCH   7  15
BRANCH   6  26
ATOM     26  O   UNL     1       1.608  -2.482   0.361  0.00  0.00    -0.484 OA
BRANCH  26  27
ATOM     27  C   UNL     1       1.797  -3.897   0.321  0.00  0.00    +0.264 C 
BRANCH  27  28
ATOM     28  C   UNL     1       1.653  -4.463   1.710  0.00  0.00    -0.010 A 
ATOM     29  C   UNL     1       2.759  -4.566   2.532  0.00  0.00    +0.007 A 
ATOM     30  C   UNL     1       2.627  -5.085   3.807  0.00  0.00    +0.000 A 
ATOM     31  C   UNL     1       1.389  -5.500   4.259  0.00  0.00    +0.000 A 
ATOM     32  C   UNL     1       0.282  -5.397   3.437  0.00  0.00    +0.000 A 
ATOM     33  C   UNL     1       0.414  -4.874   2.164  0.00  0.00    +0.007 A 
ENDBRANCH  27  28
ENDBRANCH  26  27
ENDBRANCH   6  26
TORSDOF 8
