REMARK  Name = CHEMBL356324
REMARK  10 active torsions:
REMARK  status: ('A' for Active; 'I' for Inactive)
REMARK    1  A    between atoms: C_2  and  C_9
REMARK    2  A    between atoms: C_4  and  O_8
REMARK    3  A    between atoms: C_5  and  O_7
REMARK    4  A    between atoms: C_10  and  S_11
REMARK    5  A    between atoms: C_10  and  C_26
REMARK    6  A    between atoms: S_11  and  C_14
REMARK    7  A    between atoms: C_14  and  C_24
REMARK    8  A    between atoms: C_15  and  C_16
REMARK    9  A    between atoms: C_18  and  O_23
REMARK   10  A    between atoms: C_19  and  O_22
REMARK                            x       y       z     vdW  Elec       q    Type
REMARK                         _______ _______ _______ _____ _____    ______ ____
ROOT
ATOM      1  S   UNL     1       0.059   6.093  -0.218  0.00  0.00    +0.044 S 
ATOM      2  O   UNL     1      -0.951   6.369   0.743  0.00  0.00    -0.163 OA
ATOM      3  O   UNL     1       1.354   6.673  -0.150  0.00  0.00    -0.163 OA
ENDROOT
BRANCH   1   5
ATOM      4  C   UNL     1       1.534   3.830  -0.137  0.00  0.00    +0.046 C 
ATOM      5  C   UNL     1       0.289   4.346  -0.218  0.00  0.00    +0.171 C 
BRANCH   4   7
ATOM      6  C   UNL     1       0.808   1.638   0.787  0.00  0.00    +0.012 A 
ATOM      7  C   UNL     1       1.719   2.380   0.027  0.00  0.00    -0.019 A 
ATOM      8  C   UNL     1       2.806   1.739  -0.578  0.00  0.00    +0.057 A 
ATOM      9  C   UNL     1       2.974   0.377  -0.420  0.00  0.00    +0.159 A 
ATOM     10  C   UNL     1       2.062  -0.356   0.339  0.00  0.00    +0.158 A 
ATOM     11  C   UNL     1       0.984   0.280   0.939  0.00  0.00    +0.050 A 
BRANCH  10  12
ATOM     12  O   UNL     1       2.230  -1.695   0.491  0.00  0.00    -0.503 OA
ATOM     13  H   UNL     1       2.765  -1.940   1.258  0.00  0.00    +0.292 HD
ENDBRANCH  10  12
BRANCH   9  14
ATOM     14  O   UNL     1       4.029  -0.250  -1.006  0.00  0.00    -0.503 OA
ATOM     15  H   UNL     1       4.821  -0.287  -0.453  0.00  0.00    +0.292 HD
ENDBRANCH   9  14
ENDBRANCH   4   7
BRANCH   5  16
ATOM     16  C   UNL     1      -0.843   3.474  -0.304  0.00  0.00    +0.119 C 
ATOM     17  N   UNL     1      -1.742   2.783  -0.373  0.00  0.00    -0.189 NA
ENDBRANCH   5  16
ENDBRANCH   1   5
BRANCH   1  18
ATOM     18  C   UNL     1      -0.608   6.530  -1.790  0.00  0.00    +0.171 C 
ATOM     19  C   UNL     1      -1.853   7.043  -1.875  0.00  0.00    +0.046 C 
BRANCH  19  20
ATOM     20  C   UNL     1      -2.459   7.285  -3.193  0.00  0.00    -0.019 A 
ATOM     21  C   UNL     1      -2.163   6.439  -4.268  0.00  0.00    +0.057 A 
ATOM     22  C   UNL     1      -2.736   6.672  -5.503  0.00  0.00    +0.159 A 
ATOM     23  C   UNL     1      -3.606   7.747  -5.677  0.00  0.00    +0.158 A 
ATOM     24  C   UNL     1      -3.901   8.587  -4.611  0.00  0.00    +0.050 A 
ATOM     25  C   UNL     1      -3.338   8.358  -3.374  0.00  0.00    +0.012 A 
BRANCH  23  26
ATOM     26  O   UNL     1      -4.167   7.974  -6.893  0.00  0.00    -0.503 OA
ATOM     27  H   UNL     1      -5.012   7.523  -7.027  0.00  0.00    +0.292 HD
ENDBRANCH  23  26
BRANCH  22  28
ATOM     28  O   UNL     1      -2.450   5.852  -6.550  0.00  0.00    -0.503 OA
ATOM     29  H   UNL     1      -3.049   5.098  -6.634  0.00  0.00    +0.292 HD
ENDBRANCH  22  28
ENDBRANCH  19  20
BRANCH  18  30
ATOM     30  C   UNL     1       0.172   6.342  -2.976  0.00  0.00    +0.119 C 
ATOM     31  N   UNL     1       0.791   6.192  -3.917  0.00  0.00    -0.189 NA
ENDBRANCH  18  30
ENDBRANCH   1  18
TORSDOF 10
