REMARK  Name = CHEMBL545541
REMARK  6 active torsions:
REMARK  status: ('A' for Active; 'I' for Inactive)
REMARK    1  A    between atoms: C_1  and  O_2
REMARK    2  A    between atoms: O_2  and  C_3
REMARK    3  A    between atoms: C_8  and  O_9
REMARK    4  A    between atoms: O_9  and  C_10
REMARK    5  A    between atoms: N_15  and  C_16
REMARK    6  A    between atoms: C_16  and  C_17
REMARK                            x       y       z     vdW  Elec       q    Type
REMARK                         _______ _______ _______ _____ _____    ______ ____
ROOT
ATOM      1  C   UNL     1      -1.201  -0.638   0.010  0.00  0.00    +0.162 A 
ATOM      2  C   UNL     1      -2.352   0.098   0.019  0.00  0.00    +0.062 A 
ATOM      3  C   UNL     1      -3.591  -0.554   0.027  0.00  0.00    +0.044 A 
ATOM      4  C   UNL     1      -3.645  -1.970   0.025  0.00  0.00    +0.080 A 
ATOM      5  C   UNL     1      -2.453  -2.704   0.017  0.00  0.00    +0.078 A 
ATOM      6  C   UNL     1      -1.246  -2.039   0.003  0.00  0.00    +0.164 A 
ATOM      7  N   UNL     1      -4.846  -2.569   0.032  0.00  0.00    -0.235 NA
ATOM      8  C   UNL     1      -5.946  -1.855   0.040  0.00  0.00    +0.223 A 
ATOM      9  N   UNL     1      -5.944  -0.531   0.042  0.00  0.00    -0.220 NA
ATOM     10  C   UNL     1      -4.813   0.161   0.036  0.00  0.00    +0.130 A 
ATOM     11  N   UNL     1      -4.826   1.540   0.038  0.00  0.00    -0.324 N 
ATOM     12  H   UNL     1      -3.991   2.034   0.034  0.00  0.00    +0.148 HD
ENDROOT
BRANCH   1  14
ATOM     13  C   UNL     1      -0.017   1.425   0.010  0.00  0.00    +0.277 C 
ATOM     14  O   UNL     1       0.002  -0.004   0.002  0.00  0.00    -0.491 OA
ENDBRANCH   1  14
BRANCH   6  15
ATOM     15  O   UNL     1      -0.088  -2.749  -0.011  0.00  0.00    -0.491 OA
ATOM     16  C   UNL     1      -0.200  -4.173  -0.018  0.00  0.00    +0.277 C 
ENDBRANCH   6  15
BRANCH  11  17
ATOM     17  C   UNL     1      -6.102   2.260   0.048  0.00  0.00    +0.138 C 
BRANCH  17  18
ATOM     18  C   UNL     1      -5.841   3.745   0.049  0.00  0.00    -0.030 A 
ATOM     19  C   UNL     1      -5.709   4.422   1.246  0.00  0.00    +0.005 A 
ATOM     20  C   UNL     1      -5.469   5.784   1.247  0.00  0.00    +0.000 A 
ATOM     21  C   UNL     1      -5.362   6.468   0.050  0.00  0.00    +0.000 A 
ATOM     22  C   UNL     1      -5.494   5.790  -1.147  0.00  0.00    +0.000 A 
ATOM     23  C   UNL     1      -5.729   4.428  -1.148  0.00  0.00    +0.005 A 
ENDBRANCH  17  18
ENDBRANCH  11  17
TORSDOF 4
