REMARK  Name = CHEMBL101253
REMARK  4 active torsions:
REMARK  status: ('A' for Active; 'I' for Inactive)
REMARK    1  A    between atoms: C_7  and  C_19
REMARK    2  A    between atoms: C_10  and  N_11
REMARK    3  A    between atoms: N_11  and  C_12
REMARK    4  A    between atoms: C_19  and  C_20
REMARK                            x       y       z     vdW  Elec       q    Type
REMARK                         _______ _______ _______ _____ _____    ______ ____
ROOT
ATOM      1  C   UNL     1       0.010   1.310  -0.666  0.00  0.00    +0.001 A 
ATOM      2  C   UNL     1       1.193   2.045  -0.673  0.00  0.00    +0.001 A 
ATOM      3  C   UNL     1       2.399   1.439  -0.475  0.00  0.00    +0.012 A 
ATOM      4  C   UNL     1       2.446   0.058  -0.262  0.00  0.00    +0.026 A 
ATOM      5  C   UNL     1       1.241  -0.692  -0.254  0.00  0.00    +0.006 A 
ATOM      6  C   UNL     1       0.020  -0.038  -0.461  0.00  0.00    +0.010 A 
ATOM      7  C   UNL     1       1.334  -2.079  -0.035  0.00  0.00    +0.047 A 
ATOM      8  N   UNL     1       2.516  -2.619   0.151  0.00  0.00    -0.279 N 
ATOM      9  N   UNL     1       3.608  -1.949   0.146  0.00  0.00    -0.158 NA
ATOM     10  C   UNL     1       3.656  -0.642  -0.049  0.00  0.00    +0.151 A 
ATOM     11  H   UNL     1       2.566  -3.576   0.302  0.00  0.00    +0.189 HD
ENDROOT
BRANCH  10  12
ATOM     12  N   UNL     1       4.868   0.028  -0.044  0.00  0.00    -0.298 N 
ATOM     13  H   UNL     1       4.887   0.996  -0.104  0.00  0.00    +0.154 HD
BRANCH  12  14
ATOM     14  C   UNL     1       6.064  -0.690   0.047  0.00  0.00    +0.033 A 
ATOM     15  C   UNL     1       6.175  -1.936  -0.556  0.00  0.00    +0.025 A 
ATOM     16  C   UNL     1       7.357  -2.644  -0.465  0.00  0.00    +0.022 A 
ATOM     17  C   UNL     1       8.431  -2.112   0.227  0.00  0.00    +0.041 A 
ATOM     18  C   UNL     1       8.324  -0.871   0.829  0.00  0.00    +0.022 A 
ATOM     19  C   UNL     1       7.146  -0.156   0.735  0.00  0.00    +0.025 A 
ATOM     20 CL   UNL     1       9.916  -3.005   0.341  0.00  0.00    -0.084 Cl
ENDBRANCH  12  14
ENDBRANCH  10  12
BRANCH   7  21
ATOM     21  C   UNL     1       0.093  -2.933  -0.014  0.00  0.00    +0.090 C 
BRANCH  21  22
ATOM     22  C   UNL     1      -0.268  -3.330  -1.423  0.00  0.00    -0.039 A 
ATOM     23  C   UNL     1      -1.107  -2.537  -2.190  0.00  0.00    +0.023 A 
ATOM     24  C   UNL     1      -1.416  -2.933  -3.478  0.00  0.00    +0.111 A 
ATOM     25  N   UNL     1      -0.923  -4.049  -3.977  0.00  0.00    -0.263 NA
ATOM     26  C   UNL     1      -0.122  -4.828  -3.276  0.00  0.00    +0.111 A 
ATOM     27  C   UNL     1       0.236  -4.493  -1.984  0.00  0.00    +0.023 A 
ENDBRANCH  21  22
ENDBRANCH   7  21
TORSDOF 4
