REMARK  Name = CHEMBL90595
REMARK  5 active torsions:
REMARK  status: ('A' for Active; 'I' for Inactive)
REMARK    1  A    between atoms: C_3  and  N_8
REMARK    2  A    between atoms: C_12  and  N_19
REMARK    3  A    between atoms: C_20  and  C_22
REMARK    4  A    between atoms: C_23  and  C_24
REMARK    5  A    between atoms: C_24  and  N_25
REMARK                            x       y       z     vdW  Elec       q    Type
REMARK                         _______ _______ _______ _____ _____    ______ ____
ROOT
ATOM      1  N   UNL     1       3.578   2.120   0.547  0.00  0.00    -0.299 N 
ATOM      2  C   UNL     1       4.780   1.450   0.446  0.00  0.00    +0.134 A 
ATOM      3  C   UNL     1       6.004   2.160   0.364  0.00  0.00    +0.042 A 
ATOM      4  C   UNL     1       6.054   3.557   0.382  0.00  0.00    +0.036 A 
ATOM      5  C   UNL     1       7.276   4.192   0.300  0.00  0.00    +0.035 A 
ATOM      6  C   UNL     1       8.457   3.450   0.199  0.00  0.00    +0.025 A 
ATOM      7  C   UNL     1       8.430   2.089   0.179  0.00  0.00    +0.030 A 
ATOM      8  C   UNL     1       7.204   1.415   0.262  0.00  0.00    +0.076 A 
ATOM      9  N   UNL     1       7.130   0.075   0.247  0.00  0.00    -0.235 NA
ATOM     10  C   UNL     1       5.969  -0.529   0.326  0.00  0.00    +0.223 A 
ATOM     11  N   UNL     1       4.822   0.125   0.428  0.00  0.00    -0.220 NA
ATOM     12  H   UNL     1       3.554   3.088   0.479  0.00  0.00    +0.154 HD
ENDROOT
BRANCH   1  15
ATOM     13  C   UNL     1       1.235  -0.472   1.689  0.00  0.00    +0.003 A 
ATOM     14  C   UNL     1       2.407   0.233   1.493  0.00  0.00    +0.023 A 
ATOM     15  C   UNL     1       2.394   1.405   0.747  0.00  0.00    +0.033 A 
ATOM     16  C   UNL     1       1.202   1.865   0.201  0.00  0.00    +0.038 A 
ATOM     17  C   UNL     1       0.034   1.155   0.402  0.00  0.00    +0.020 A 
ATOM     18  C   UNL     1       0.050  -0.012   1.145  0.00  0.00    +0.015 A 
ATOM     19 BR   UNL     1      -1.590   1.780  -0.341  0.00  0.00    -0.050 Br
ENDBRANCH   1  15
BRANCH   5  20
ATOM     20  N   UNL     1       7.335   5.589   0.317  0.00  0.00    -0.275 N 
ATOM     21  C   UNL     1       8.377   6.213   0.902  0.00  0.00    +0.293 C 
ATOM     22  O   UNL     1       9.220   5.565   1.492  0.00  0.00    -0.260 OA
ATOM     23  H   UNL     1       6.626   6.109  -0.092  0.00  0.00    +0.156 HD
BRANCH  21  24
ATOM     24  C   UNL     1       8.490   7.639   0.829  0.00  0.00    -0.010 C 
ATOM     25  C   UNL     1       8.583   8.807   0.770  0.00  0.00    -0.111 C 
BRANCH  25  26
ATOM     26  C   UNL     1       8.700  10.273   0.695  0.00  0.00    +0.013 C 
BRANCH  26  27
ATOM     27  N   UNL     1       9.911  10.704   1.405  0.00  0.00    +0.387 N 
ATOM     28  C   UNL     1       9.778  10.389   2.833  0.00  0.00    -0.078 C 
ATOM     29  C   UNL     1      11.070  10.763   3.564  0.00  0.00    -0.019 C 
ATOM     30  C   UNL     1      11.332  12.262   3.393  0.00  0.00    -0.004 C 
ATOM     31  C   UNL     1      11.394  12.592   1.898  0.00  0.00    -0.019 C 
ATOM     32  C   UNL     1      10.091  12.151   1.229  0.00  0.00    -0.078 C 
ATOM     33  H   UNL     1      10.711  10.219   1.029  0.00  0.00    -0.080 HD
ENDBRANCH  26  27
ENDBRANCH  25  26
ENDBRANCH  21  24
ENDBRANCH   5  20
TORSDOF 5
