REMARK  Name = CHEMBL74722
REMARK  4 active torsions:
REMARK  status: ('A' for Active; 'I' for Inactive)
REMARK    1  A    between atoms: C_1  and  C_2
REMARK    2  A    between atoms: C_3  and  C_20
REMARK    3  A    between atoms: C_8  and  N_12
REMARK    4  A    between atoms: N_12  and  C_13
REMARK                            x       y       z     vdW  Elec       q    Type
REMARK                         _______ _______ _______ _____ _____    ______ ____
ROOT
ATOM      1  C   UNL     1       0.559   1.494   0.055  0.00  0.00    +0.046 C 
ATOM      2  C   UNL     1       0.494  -0.011   0.040  0.00  0.00    -0.018 A 
ATOM      3  C   UNL     1       0.639  -0.808  -1.032  0.00  0.00    +0.018 A 
ATOM      4  N   UNL     1       0.518  -2.121  -0.654  0.00  0.00    -0.343 N 
ATOM      5  H   UNL     1       0.585  -2.880  -1.254  0.00  0.00    +0.167 HD
ATOM      6  C   UNL     1       0.288  -2.202   0.692  0.00  0.00    +0.144 A 
ATOM      7  C   UNL     1       0.268  -0.885   1.189  0.00  0.00    +0.062 A 
ATOM      8  C   UNL     1       0.052  -0.687   2.561  0.00  0.00    +0.136 A 
ATOM      9  N   UNL     1      -0.121  -1.756   3.333  0.00  0.00    -0.220 NA
ATOM     10  C   UNL     1      -0.092  -2.975   2.825  0.00  0.00    +0.225 A 
ATOM     11  N   UNL     1       0.100  -3.207   1.545  0.00  0.00    -0.218 NA
ATOM     12  C   UNL     1       0.896  -0.332  -2.438  0.00  0.00    +0.063 C 
ENDROOT
BRANCH   8  13
ATOM     13  N   UNL     1       0.022   0.588   3.098  0.00  0.00    -0.299 N 
ATOM     14  H   UNL     1       0.067   1.361   2.514  0.00  0.00    +0.154 HD
BRANCH  13  15
ATOM     15  C   UNL     1      -0.074   0.762   4.482  0.00  0.00    +0.033 A 
ATOM     16  C   UNL     1       0.542  -0.140   5.341  0.00  0.00    +0.023 A 
ATOM     17  C   UNL     1       0.445   0.034   6.707  0.00  0.00    +0.003 A 
ATOM     18  C   UNL     1      -0.264   1.105   7.222  0.00  0.00    +0.015 A 
ATOM     19  C   UNL     1      -0.879   2.005   6.369  0.00  0.00    +0.020 A 
ATOM     20  C   UNL     1      -0.781   1.839   5.000  0.00  0.00    +0.038 A 
ATOM     21 BR   UNL     1      -1.847   3.466   7.077  0.00  0.00    -0.050 Br
ENDBRANCH  13  15
ENDBRANCH   8  13
TORSDOF 2
