REMARK  Name = CHEMBL31276
REMARK  8 active torsions:
REMARK  status: ('A' for Active; 'I' for Inactive)
REMARK    1  A    between atoms: C_1  and  N_2
REMARK    2  A    between atoms: N_2  and  C_3
REMARK    3  A    between atoms: N_2  and  C_4
REMARK    4  A    between atoms: C_4  and  C_5
REMARK    5  A    between atoms: C_6  and  C_7
REMARK    6  A    between atoms: C_18  and  C_28
REMARK    7  A    between atoms: C_19  and  N_20
REMARK    8  A    between atoms: N_20  and  C_21
REMARK                            x       y       z     vdW  Elec       q    Type
REMARK                         _______ _______ _______ _____ _____    ______ ____
ROOT
ATOM      1  C   UNL     1      -6.608  -8.896  -1.853  0.00  0.00    +0.242 C 
ATOM      2  O   UNL     1      -6.979  -9.546  -0.894  0.00  0.00    -0.270 OA
ATOM      3  N   UNL     1      -5.292  -8.700  -2.066  0.00  0.00    -0.267 N 
ATOM      4  C   UNL     1      -4.359  -9.160  -1.137  0.00  0.00    +0.126 A 
ATOM      5  C   UNL     1      -3.021  -8.857  -1.313  0.00  0.00    +0.055 A 
ATOM      6  C   UNL     1      -2.099  -9.327  -0.369  0.00  0.00    +0.028 A 
ATOM      7  C   UNL     1      -2.575 -10.091   0.725  0.00  0.00    +0.091 A 
ATOM      8  C   UNL     1      -3.953 -10.344   0.814  0.00  0.00    +0.141 A 
ATOM      9  N   UNL     1      -4.773  -9.875  -0.097  0.00  0.00    -0.238 NA
ATOM     10  N   UNL     1      -1.720 -10.555   1.645  0.00  0.00    -0.252 NA
ATOM     11  C   UNL     1      -0.433 -10.324   1.572  0.00  0.00    +0.132 A 
ATOM     12  C   UNL     1       0.126  -9.576   0.522  0.00  0.00    +0.091 A 
ATOM     13  C   UNL     1      -0.713  -9.061  -0.476  0.00  0.00    +0.060 A 
ATOM     14  H   UNL     1      -4.993  -8.240  -2.866  0.00  0.00    +0.157 HD
ENDROOT
BRANCH   1  16
ATOM     15  C   UNL     1      -8.895  -8.517  -2.569  0.00  0.00    -0.040 C 
ATOM     16  C   UNL     1      -7.596  -8.323  -2.779  0.00  0.00    +0.061 C 
BRANCH  15  17
ATOM     17  C   UNL     1      -9.908  -7.930  -3.518  0.00  0.00    -0.052 C 
BRANCH  17  19
ATOM     18  C   UNL     1     -11.846  -8.409  -4.848  0.00  0.00    -0.096 C 
ATOM     19  N   UNL     1     -10.786  -8.996  -4.018  0.00  0.00    +0.378 N 
ATOM     20  C   UNL     1      -9.999  -9.941  -4.823  0.00  0.00    -0.096 C 
ATOM     21  H   UNL     1     -11.201  -9.484  -3.238  0.00  0.00    -0.082 HD
ENDBRANCH  17  19
ENDBRANCH  15  17
ENDBRANCH   1  16
BRANCH  13  22
ATOM     22  N   UNL     1      -0.206  -8.321  -1.525  0.00  0.00    -0.313 N 
ATOM     23  H   UNL     1      -0.108  -7.360  -1.438  0.00  0.00    +0.152 HD
BRANCH  22  24
ATOM     24  C   UNL     1       0.166  -8.956  -2.712  0.00  0.00    +0.032 A 
ATOM     25  C   UNL     1      -0.054 -10.319  -2.872  0.00  0.00    +0.023 A 
ATOM     26  C   UNL     1       0.315 -10.944  -4.046  0.00  0.00    +0.003 A 
ATOM     27  C   UNL     1       0.902 -10.216  -5.064  0.00  0.00    +0.015 A 
ATOM     28  C   UNL     1       1.124  -8.859  -4.910  0.00  0.00    +0.020 A 
ATOM     29  C   UNL     1       0.752  -8.226  -3.738  0.00  0.00    +0.038 A 
ATOM     30 BR   UNL     1       1.928  -7.867  -6.304  0.00  0.00    -0.050 Br
ENDBRANCH  22  24
ENDBRANCH  13  22
BRANCH  12  31
ATOM     31  C   UNL     1       1.537  -9.341   0.473  0.00  0.00    +0.103 C 
ATOM     32  N   UNL     1       2.657  -9.155   0.434  0.00  0.00    -0.191 NA
ENDBRANCH  12  31
TORSDOF 6
