REMARK  Name = CHEMBL281467
REMARK  5 active torsions:
REMARK  status: ('A' for Active; 'I' for Inactive)
REMARK    1  A    between atoms: C_2  and  C_3
REMARK    2  A    between atoms: N_5  and  C_6
REMARK    3  A    between atoms: C_9  and  N_18
REMARK    4  A    between atoms: C_10  and  C_16
REMARK    5  A    between atoms: N_18  and  C_19
REMARK                            x       y       z     vdW  Elec       q    Type
REMARK                         _______ _______ _______ _____ _____    ______ ____
ROOT
ATOM      1  C   UNL     1      -4.125  -4.957  -3.544  0.00  0.00    +0.053 A 
ATOM      2  C   UNL     1      -3.643  -5.645  -2.443  0.00  0.00    +0.038 A 
ATOM      3  C   UNL     1      -4.350  -5.536  -1.237  0.00  0.00    +0.043 A 
ATOM      4  C   UNL     1      -3.919  -6.209  -0.070  0.00  0.00    +0.061 A 
ATOM      5  C   UNL     1      -4.682  -6.048   1.097  0.00  0.00    +0.092 A 
ATOM      6  C   UNL     1      -5.826  -5.236   1.059  0.00  0.00    +0.134 A 
ATOM      7  N   UNL     1      -6.201  -4.626  -0.036  0.00  0.00    -0.234 NA
ATOM      8  C   UNL     1      -5.518  -4.737  -1.185  0.00  0.00    +0.162 A 
ATOM      9  N   UNL     1      -5.932  -4.098  -2.283  0.00  0.00    -0.234 NA
ATOM     10  C   UNL     1      -5.281  -4.183  -3.418  0.00  0.00    +0.136 A 
ENDROOT
BRANCH   1  13
ATOM     11  C   UNL     1      -2.880  -6.188  -5.155  0.00  0.00    +0.241 C 
ATOM     12  O   UNL     1      -2.860  -7.139  -4.397  0.00  0.00    -0.271 OA
ATOM     13  N   UNL     1      -3.457  -5.032  -4.771  0.00  0.00    -0.281 N 
ATOM     14  H   UNL     1      -3.408  -4.252  -5.345  0.00  0.00    +0.155 HD
BRANCH  11  16
ATOM     15  C   UNL     1      -1.707  -7.441  -6.870  0.00  0.00    +0.013 C 
ATOM     16  C   UNL     1      -2.276  -6.300  -6.491  0.00  0.00    +0.060 C 
ENDBRANCH  11  16
ENDBRANCH   1  13
BRANCH   5  17
ATOM     17  C   UNL     1      -4.297  -6.703   2.310  0.00  0.00    +0.103 C 
ATOM     18  N   UNL     1      -3.993  -7.223   3.273  0.00  0.00    -0.191 NA
ENDBRANCH   5  17
BRANCH   4  19
ATOM     19  N   UNL     1      -2.787  -6.997  -0.079  0.00  0.00    -0.313 N 
ATOM     20  H   UNL     1      -1.935  -6.626   0.202  0.00  0.00    +0.152 HD
BRANCH  19  21
ATOM     21  C   UNL     1      -2.866  -8.330  -0.492  0.00  0.00    +0.032 A 
ATOM     22  C   UNL     1      -4.085  -8.863  -0.891  0.00  0.00    +0.023 A 
ATOM     23  C   UNL     1      -4.161 -10.180  -1.299  0.00  0.00    +0.003 A 
ATOM     24  C   UNL     1      -3.025 -10.969  -1.310  0.00  0.00    +0.015 A 
ATOM     25  C   UNL     1      -1.810 -10.441  -0.912  0.00  0.00    +0.020 A 
ATOM     26  C   UNL     1      -1.726  -9.122  -0.509  0.00  0.00    +0.038 A 
ATOM     27 BR   UNL     1      -0.260 -11.525  -0.928  0.00  0.00    -0.050 Br
ENDBRANCH  19  21
ENDBRANCH   4  19
TORSDOF 5
