REMARK  Name = CHEMBL118109
REMARK  9 active torsions:
REMARK  status: ('A' for Active; 'I' for Inactive)
REMARK    1  A    between atoms: C_1  and  O_2
REMARK    2  A    between atoms: O_2  and  C_3
REMARK    3  A    between atoms: C_5  and  C_21
REMARK    4  A    between atoms: C_7  and  C_10
REMARK    5  A    between atoms: C_8  and  O_9
REMARK    6  A    between atoms: C_10  and  S_11
REMARK    7  A    between atoms: S_11  and  C_12
REMARK    8  A    between atoms: C_22  and  C_23
REMARK    9  A    between atoms: C_22  and  C_25
REMARK                            x       y       z     vdW  Elec       q    Type
REMARK                         _______ _______ _______ _____ _____    ______ ____
ROOT
ATOM      1  C   UNL     1       0.284  -0.959  -1.399  0.00  0.00    +0.162 A 
ATOM      2  C   UNL     1       0.993  -0.092  -2.205  0.00  0.00    +0.057 A 
ATOM      3  C   UNL     1       1.639  -0.577  -3.351  0.00  0.00    -0.020 A 
ATOM      4  C   UNL     1       1.561  -1.940  -3.670  0.00  0.00    +0.016 A 
ATOM      5  C   UNL     1       0.852  -2.796  -2.859  0.00  0.00    +0.008 A 
ATOM      6  C   UNL     1       0.216  -2.315  -1.720  0.00  0.00    +0.163 A 
ENDROOT
BRANCH   1   8
ATOM      7  C   UNL     1      -0.233   0.906  -0.017  0.00  0.00    +0.277 C 
ATOM      8  O   UNL     1      -0.344  -0.493  -0.286  0.00  0.00    -0.491 OA
ENDBRANCH   1   8
BRANCH   6   9
ATOM      9  O   UNL     1      -0.477  -3.166  -0.922  0.00  0.00    -0.503 OA
ATOM     10  H   UNL     1      -1.408  -3.264  -1.165  0.00  0.00    +0.292 HD
ENDBRANCH   6   9
BRANCH   3  11
ATOM     11  C   UNL     1       2.392   0.337  -4.212  0.00  0.00    +0.032 C 
ATOM     12  C   UNL     1       3.539  -0.097  -4.841  0.00  0.00    +0.114 C 
BRANCH  12  13
ATOM     13  C   UNL     1       4.203   0.762  -5.834  0.00  0.00    +0.252 C 
ATOM     14  O   UNL     1       3.740   1.855  -6.099  0.00  0.00    -0.270 OA
ATOM     15  N   UNL     1       5.325   0.338  -6.449  0.00  0.00    -0.325 N 
ATOM     16  H   UNL     1       5.694  -0.533  -6.237  0.00  0.00    +0.145 HD
ATOM     17  H   UNL     1       5.763   0.904  -7.103  0.00  0.00    +0.145 HD
ENDBRANCH  12  13
BRANCH  12  18
ATOM     18  C   UNL     1       4.084  -1.383  -4.528  0.00  0.00    +0.104 C 
ATOM     19  N   UNL     1       4.517  -2.404  -4.280  0.00  0.00    -0.191 NA
ENDBRANCH  12  18
ENDBRANCH   3  11
BRANCH   5  20
ATOM     20  C   UNL     1       0.768  -4.261  -3.203  0.00  0.00    +0.115 C 
BRANCH  20  21
ATOM     21  S   UNL     1       2.146  -5.146  -2.420  0.00  0.00    -0.094 S 
BRANCH  21  22
ATOM     22  C   UNL     1       1.910  -6.821  -2.911  0.00  0.00    +0.136 A 
ATOM     23  N   UNL     1       0.968  -7.333  -3.672  0.00  0.00    -0.233 NA
ATOM     24  C   UNL     1       0.911  -8.650  -3.968  0.00  0.00    +0.079 A 
ATOM     25  C   UNL     1      -0.041  -9.324  -4.767  0.00  0.00    +0.029 A 
ATOM     26  C   UNL     1       0.046 -10.677  -4.969  0.00  0.00    +0.002 A 
ATOM     27  C   UNL     1       1.063 -11.430  -4.401  0.00  0.00    +0.001 A 
ATOM     28  C   UNL     1       2.012 -10.803  -3.614  0.00  0.00    +0.017 A 
ATOM     29  C   UNL     1       1.933  -9.449  -3.407  0.00  0.00    +0.040 A 
ATOM     30  S   UNL     1       2.896  -8.257  -2.508  0.00  0.00    -0.061 S 
ENDBRANCH  21  22
ENDBRANCH  20  21
ENDBRANCH   5  20
TORSDOF 8
