REMARK  Name = CHEMBL327023
REMARK  7 active torsions:
REMARK  status: ('A' for Active; 'I' for Inactive)
REMARK    1  A    between atoms: C_3  and  N_8
REMARK    2  A    between atoms: N_8  and  C_9
REMARK    3  A    between atoms: C_12  and  N_21
REMARK    4  A    between atoms: C_18  and  C_19
REMARK    5  A    between atoms: C_22  and  C_24
REMARK    6  A    between atoms: C_25  and  C_26
REMARK    7  A    between atoms: C_26  and  N_27
REMARK                            x       y       z     vdW  Elec       q    Type
REMARK                         _______ _______ _______ _____ _____    ______ ____
ROOT
ATOM      1  C   UNL     1       4.800   1.416   0.146  0.00  0.00    +0.060 A 
ATOM      2  C   UNL     1       5.979   2.094   0.539  0.00  0.00    +0.025 A 
ATOM      3  C   UNL     1       5.957   3.458   0.858  0.00  0.00    +0.035 A 
ATOM      4  C   UNL     1       7.125   4.086   1.237  0.00  0.00    +0.035 A 
ATOM      5  C   UNL     1       8.324   3.371   1.304  0.00  0.00    +0.025 A 
ATOM      6  C   UNL     1       8.367   2.046   0.998  0.00  0.00    +0.030 A 
ATOM      7  C   UNL     1       7.196   1.375   0.608  0.00  0.00    +0.073 A 
ATOM      8  N   UNL     1       7.226   0.069   0.305  0.00  0.00    -0.254 NA
ATOM      9  C   UNL     1       6.152  -0.583  -0.061  0.00  0.00    +0.132 A 
ATOM     10  C   UNL     1       4.901   0.049  -0.152  0.00  0.00    +0.091 A 
ENDROOT
BRANCH   4  11
ATOM     11  N   UNL     1       7.109   5.448   1.556  0.00  0.00    -0.275 N 
ATOM     12  C   UNL     1       6.033   5.985   2.165  0.00  0.00    +0.293 C 
ATOM     13  O   UNL     1       5.035   5.313   2.340  0.00  0.00    -0.260 OA
ATOM     14  H   UNL     1       7.873   6.005   1.340  0.00  0.00    +0.156 HD
BRANCH  12  15
ATOM     15  C   UNL     1       6.065   7.348   2.604  0.00  0.00    -0.006 C 
ATOM     16  C   UNL     1       6.091   8.464   2.965  0.00  0.00    -0.077 C 
BRANCH  16  17
ATOM     17  C   UNL     1       6.125   9.865   3.417  0.00  0.00    +0.174 C 
BRANCH  17  18
ATOM     18  N   UNL     1       4.841  10.208   4.044  0.00  0.00    -0.290 NA
ATOM     19  C   UNL     1       3.747  10.135   3.073  0.00  0.00    +0.096 C 
ATOM     20  C   UNL     1       2.405  10.037   3.808  0.00  0.00    +0.084 C 
ATOM     21  S   UNL     1       2.193  11.539   4.814  0.00  0.00    -0.158 S 
ATOM     22  C   UNL     1       3.767  11.639   5.722  0.00  0.00    +0.084 C 
ATOM     23  C   UNL     1       4.914  11.508   4.714  0.00  0.00    +0.096 C 
ENDBRANCH  17  18
ENDBRANCH  16  17
ENDBRANCH  12  15
ENDBRANCH   4  11
BRANCH   1  24
ATOM     24  N   UNL     1       3.591   2.076   0.064  0.00  0.00    -0.313 N 
ATOM     25  H   UNL     1       3.389   2.624  -0.710  0.00  0.00    +0.152 HD
BRANCH  24  28
ATOM     26  C   UNL     1       0.405   2.160   1.896  0.00  0.00    +0.003 A 
ATOM     27  C   UNL     1       1.326   2.282   0.874  0.00  0.00    +0.023 A 
ATOM     28  C   UNL     1       2.657   1.954   1.097  0.00  0.00    +0.032 A 
ATOM     29  C   UNL     1       3.058   1.503   2.348  0.00  0.00    +0.038 A 
ATOM     30  C   UNL     1       2.133   1.383   3.367  0.00  0.00    +0.020 A 
ATOM     31  C   UNL     1       0.807   1.712   3.141  0.00  0.00    +0.015 A 
ATOM     32 BR   UNL     1       2.677   0.771   5.071  0.00  0.00    -0.050 Br
ENDBRANCH  24  28
ENDBRANCH   1  24
BRANCH  10  33
ATOM     33  C   UNL     1       3.743  -0.693  -0.550  0.00  0.00    +0.103 C 
ATOM     34  N   UNL     1       2.824  -1.281  -0.866  0.00  0.00    -0.191 NA
ENDBRANCH  10  33
TORSDOF 7
