REMARK  Name = CHEMBL298637
REMARK  3 active torsions:
REMARK  status: ('A' for Active; 'I' for Inactive)
REMARK    1  A    between atoms: C_1  and  N_2
REMARK    2  A    between atoms: C_12  and  N_13
REMARK    3  A    between atoms: N_13  and  C_14
REMARK                            x       y       z     vdW  Elec       q    Type
REMARK                         _______ _______ _______ _____ _____    ______ ____
ROOT
ATOM      1  C   UNL     1      -0.058   1.368   1.122  0.00  0.00    +0.127 C 
ATOM      2  N   UNL     1      -0.029  -0.076   0.878  0.00  0.00    -0.332 N 
ATOM      3  C   UNL     1      -1.211  -0.767   0.670  0.00  0.00    +0.121 A 
ATOM      4  C   UNL     1      -2.425  -0.068   0.692  0.00  0.00    +0.044 A 
ATOM      5  C   UNL     1      -3.597  -0.737   0.488  0.00  0.00    +0.018 A 
ATOM      6  C   UNL     1      -3.539  -2.121   0.262  0.00  0.00    +0.059 A 
ATOM      7  C   UNL     1      -2.281  -2.773   0.252  0.00  0.00    +0.167 A 
ATOM      8  N   UNL     1      -1.167  -2.069   0.452  0.00  0.00    -0.213 NA
ATOM      9  N   UNL     1      -2.249  -4.096   0.034  0.00  0.00    -0.216 NA
ATOM     10  C   UNL     1      -3.360  -4.767  -0.166  0.00  0.00    +0.225 A 
ATOM     11  N   UNL     1      -4.554  -4.199  -0.165  0.00  0.00    -0.220 NA
ATOM     12  C   UNL     1      -4.700  -2.895   0.041  0.00  0.00    +0.135 A 
ATOM     13  H   UNL     1       0.818  -0.549   0.862  0.00  0.00    +0.147 HD
ENDROOT
BRANCH  12  14
ATOM     14  N   UNL     1      -5.950  -2.313   0.039  0.00  0.00    -0.299 N 
ATOM     15  H   UNL     1      -6.036  -1.349   0.107  0.00  0.00    +0.154 HD
BRANCH  14  16
ATOM     16  C   UNL     1      -7.093  -3.111  -0.060  0.00  0.00    +0.033 A 
ATOM     17  C   UNL     1      -7.119  -4.367   0.534  0.00  0.00    +0.023 A 
ATOM     18  C   UNL     1      -8.249  -5.154   0.435  0.00  0.00    +0.003 A 
ATOM     19  C   UNL     1      -9.355  -4.694  -0.256  0.00  0.00    +0.015 A 
ATOM     20  C   UNL     1      -9.334  -3.444  -0.850  0.00  0.00    +0.020 A 
ATOM     21  C   UNL     1      -8.207  -2.649  -0.749  0.00  0.00    +0.038 A 
ATOM     22 BR   UNL     1     -10.848  -2.820  -1.794  0.00  0.00    -0.050 Br
ENDBRANCH  14  16
ENDBRANCH  12  14
TORSDOF 2
