REMARK  Name = CHEMBL204420
REMARK  7 active torsions:
REMARK  status: ('A' for Active; 'I' for Inactive)
REMARK    1  A    between atoms: C_1  and  N_2
REMARK    2  A    between atoms: N_5  and  C_11
REMARK    3  A    between atoms: C_6  and  C_8
REMARK    4  A    between atoms: C_11  and  C_12
REMARK    5  A    between atoms: C_17  and  O_18
REMARK    6  A    between atoms: O_18  and  C_19
REMARK    7  A    between atoms: N_24  and  C_25
REMARK                            x       y       z     vdW  Elec       q    Type
REMARK                         _______ _______ _______ _____ _____    ______ ____
ROOT
ATOM      1  C   UNL     1      -1.399  -5.187   1.749  0.00  0.00    +0.009 A 
ATOM      2  C   UNL     1      -1.638  -5.547   3.042  0.00  0.00    +0.022 A 
ATOM      3  C   UNL     1      -2.654  -6.465   3.330  0.00  0.00    +0.041 A 
ATOM      4  C   UNL     1      -3.427  -7.016   2.277  0.00  0.00    +0.079 A 
ATOM      5  C   UNL     1      -3.163  -6.631   0.958  0.00  0.00    +0.074 A 
ATOM      6  C   UNL     1      -2.160  -5.720   0.705  0.00  0.00    +0.127 A 
ATOM      7  N   UNL     1      -4.396  -7.894   2.580  0.00  0.00    -0.235 NA
ATOM      8  C   UNL     1      -4.619  -8.234   3.827  0.00  0.00    +0.223 A 
ATOM      9  N   UNL     1      -3.923  -7.747   4.842  0.00  0.00    -0.220 NA
ATOM     10  C   UNL     1      -2.943  -6.872   4.654  0.00  0.00    +0.134 A 
ATOM     11  N   UNL     1      -2.226  -6.373   5.721  0.00  0.00    -0.297 N 
ATOM     12  H   UNL     1      -1.573  -5.668   5.580  0.00  0.00    +0.154 HD
ENDROOT
BRANCH  11  13
ATOM     13  C   UNL     1      -2.438  -6.882   7.007  0.00  0.00    +0.070 A 
ATOM     14  C   UNL     1      -3.036  -8.124   7.174  0.00  0.00    +0.026 A 
ATOM     15  C   UNL     1      -3.245  -8.625   8.444  0.00  0.00    +0.003 A 
ATOM     16  C   UNL     1      -2.859  -7.891   9.551  0.00  0.00    +0.023 A 
ATOM     17  C   UNL     1      -2.263  -6.653   9.391  0.00  0.00    +0.078 A 
ATOM     18  C   UNL     1      -2.046  -6.147   8.121  0.00  0.00    +0.163 A 
ATOM     19  F   UNL     1      -1.459  -4.941   7.964  0.00  0.00    -0.202 F 
ATOM     20 CL   UNL     1      -1.781  -5.736  10.784  0.00  0.00    -0.081 Cl
ENDBRANCH  11  13
BRANCH   6  21
ATOM     21  O   UNL     1      -1.904  -5.340  -0.573  0.00  0.00    -0.495 OA
ATOM     22  C   UNL     1      -2.716  -5.919  -1.597  0.00  0.00    +0.277 C 
ENDBRANCH   6  21
BRANCH   1  23
ATOM     23  C   UNL     1      -0.304  -4.198   1.443  0.00  0.00    +0.124 C 
BRANCH  23  28
ATOM     24  C   UNL     1      -1.927   0.882  -0.374  0.00  0.00    -0.096 C 
ATOM     25  N   UNL     1      -1.314  -0.443  -0.215  0.00  0.00    +0.380 N 
ATOM     26  C   UNL     1      -2.369  -1.461  -0.118  0.00  0.00    -0.064 C 
ATOM     27  C   UNL     1      -1.730  -2.844   0.029  0.00  0.00    +0.067 C 
ATOM     28  N   UNL     1      -0.890  -2.868   1.235  0.00  0.00    -0.290 NA
ATOM     29  C   UNL     1       0.155  -1.837   1.163  0.00  0.00    +0.126 C 
ATOM     30  C   UNL     1      -0.499  -0.462   1.007  0.00  0.00    -0.051 C 
ATOM     31  H   UNL     1      -0.729  -0.641  -1.013  0.00  0.00    -0.082 HD
BRANCH  29  32
ATOM     32  C   UNL     1       1.047  -2.107  -0.021  0.00  0.00    +0.226 C 
ATOM     33  O   UNL     1       0.770  -2.995  -0.799  0.00  0.00    -0.274 OA
ATOM     34  N   UNL     1       2.153  -1.362  -0.216  0.00  0.00    -0.328 N 
ATOM     35  H   UNL     1       2.374  -0.651   0.406  0.00  0.00    +0.145 HD
ATOM     36  H   UNL     1       2.727  -1.536  -0.978  0.00  0.00    +0.145 HD
ENDBRANCH  29  32
ENDBRANCH  23  28
ENDBRANCH   1  23
TORSDOF 5
