REMARK  Name = CHEMBL566337
REMARK  10 active torsions:
REMARK  status: ('A' for Active; 'I' for Inactive)
REMARK    1  A    between atoms: C_1  and  C_2
REMARK    2  A    between atoms: C_2  and  C_3
REMARK    3  A    between atoms: C_9  and  N_10
REMARK    4  A    between atoms: N_10  and  C_11
REMARK    5  A    between atoms: N_19  and  C_20
REMARK    6  A    between atoms: C_20  and  C_21
REMARK    7  A    between atoms: C_30  and  O_32
REMARK    8  A    between atoms: O_32  and  C_33
REMARK    9  A    between atoms: C_33  and  C_34
REMARK   10  A    between atoms: C_34  and  N_35
REMARK                            x       y       z     vdW  Elec       q    Type
REMARK                         _______ _______ _______ _____ _____    ______ ____
ROOT
ATOM      1  C   UNL     1      -1.317   0.405  -0.165  0.00  0.00    +0.003 C 
ATOM      2  C   UNL     1      -2.050  -0.244  -1.057  0.00  0.00    +0.047 C 
ATOM      3  C   UNL     1      -3.286  -0.741  -0.310  0.00  0.00    +0.258 C 
ATOM      4  N   UNL     1      -4.415  -0.413  -1.179  0.00  0.00    -0.241 NA
ATOM      5  C   UNL     1      -4.240  -0.369  -2.466  0.00  0.00    +0.220 C 
ATOM      6  N   UNL     1      -3.097  -0.567  -3.125  0.00  0.00    -0.219 NA
ATOM      7  C   UNL     1      -1.916  -0.520  -2.494  0.00  0.00    +0.152 C 
ATOM      8  N   UNL     1      -3.263  -0.033   0.960  0.00  0.00    -0.237 NA
ATOM      9  C   UNL     1      -2.112   0.572   1.065  0.00  0.00    +0.129 C 
ATOM     10  N   UNL     1      -1.695   1.280   2.182  0.00  0.00    -0.236 N 
ATOM     11  C   UNL     1      -2.499   1.374   3.259  0.00  0.00    +0.406 C 
ATOM     12  O   UNL     1      -3.589   0.838   3.252  0.00  0.00    -0.226 OA
ATOM     13  H   UNL     1      -0.825   1.708   2.187  0.00  0.00    +0.160 HD
ENDROOT
BRANCH   1  15
ATOM     14  C   UNL     1       0.076   2.350  -0.817  0.00  0.00    +0.009 C 
ATOM     15  C   UNL     1       0.096   0.886  -0.371  0.00  0.00    +0.036 C 
ENDBRANCH   1  15
BRANCH   7  16
ATOM     16  N   UNL     1      -0.710  -0.708  -3.122  0.00  0.00    -0.196 NA
BRANCH  16  17
ATOM     17  C   UNL     1      -0.632  -0.651  -4.518  0.00  0.00    +0.056 A 
ATOM     18  C   UNL     1       0.383  -1.338  -5.186  0.00  0.00    +0.027 A 
ATOM     19  C   UNL     1       0.476  -1.294  -6.546  0.00  0.00    +0.030 A 
ATOM     20  C   UNL     1      -0.447  -0.559  -7.287  0.00  0.00    +0.069 A 
ATOM     21  C   UNL     1      -1.475   0.137  -6.624  0.00  0.00    +0.022 A 
ATOM     22  C   UNL     1      -1.564   0.080  -5.229  0.00  0.00    +0.036 A 
ATOM     23  C   UNL     1      -2.260   0.796  -7.663  0.00  0.00    +0.143 A 
ATOM     24  N   UNL     1      -1.726   0.501  -8.813  0.00  0.00    -0.178 NA
ATOM     25  N   UNL     1      -0.614  -0.326  -8.629  0.00  0.00    -0.259 N 
BRANCH  25  26
ATOM     26  C   UNL     1       0.236  -0.859  -9.697  0.00  0.00    +0.179 C 
BRANCH  26  27
ATOM     27  C   UNL     1      -0.309  -2.186 -10.157  0.00  0.00    -0.026 A 
ATOM     28  C   UNL     1       0.111  -3.354  -9.549  0.00  0.00    +0.005 A 
ATOM     29  C   UNL     1      -0.388  -4.572  -9.971  0.00  0.00    +0.000 A 
ATOM     30  C   UNL     1      -1.308  -4.622 -11.002  0.00  0.00    +0.000 A 
ATOM     31  C   UNL     1      -1.729  -3.454 -11.609  0.00  0.00    +0.000 A 
ATOM     32  C   UNL     1      -1.233  -2.236 -11.184  0.00  0.00    +0.005 A 
ENDBRANCH  26  27
ENDBRANCH  25  26
ENDBRANCH  16  17
ENDBRANCH   7  16
BRANCH  11  33
ATOM     33  O   UNL     1      -2.094   2.062   4.343  0.00  0.00    -0.448 OA
BRANCH  33  34
ATOM     34  C   UNL     1      -2.997   2.120   5.449  0.00  0.00    +0.255 C 
BRANCH  34  35
ATOM     35  C   UNL     1      -2.368   2.938   6.579  0.00  0.00    +0.164 C 
BRANCH  35  36
ATOM     36  N   UNL     1      -3.293   2.998   7.713  0.00  0.00    -0.334 N 
ATOM     37  C   UNL     1      -4.259   3.945   7.924  0.00  0.00    +0.107 A 
ATOM     38  C   UNL     1      -4.876   3.622   9.077  0.00  0.00    +0.130 A 
ATOM     39  N   UNL     1      -4.303   2.508   9.556  0.00  0.00    -0.244 NA
ATOM     40  C   UNL     1      -3.358   2.125   8.742  0.00  0.00    +0.199 A 
ENDBRANCH  35  36
ENDBRANCH  34  35
ENDBRANCH  33  34
ENDBRANCH  11  33
TORSDOF 9
