REMARK  Name = CHEMBL593911
REMARK  12 active torsions:
REMARK  status: ('A' for Active; 'I' for Inactive)
REMARK    1  A    between atoms: C_1  and  N_2
REMARK    2  A    between atoms: N_5  and  C_8
REMARK    3  A    between atoms: C_8  and  C_9
REMARK    4  A    between atoms: C_9  and  C_10
REMARK    5  A    between atoms: C_10  and  O_11
REMARK    6  A    between atoms: O_11  and  C_12
REMARK    7  A    between atoms: C_17  and  O_18
REMARK    8  A    between atoms: O_18  and  C_19
REMARK    9  A    between atoms: N_24  and  C_25
REMARK   10  A    between atoms: C_28  and  C_33
REMARK   11  A    between atoms: C_29  and  O_31
REMARK   12  A    between atoms: O_31  and  C_32
REMARK                            x       y       z     vdW  Elec       q    Type
REMARK                         _______ _______ _______ _____ _____    ______ ____
ROOT
ATOM      1  C   UNL     1      -0.150  -7.857   4.282  0.00  0.00    +0.163 A 
ATOM      2  C   UNL     1      -0.364  -8.690   3.221  0.00  0.00    +0.062 A 
ATOM      3  C   UNL     1      -0.069 -10.054   3.339  0.00  0.00    +0.044 A 
ATOM      4  C   UNL     1       0.450 -10.561   4.557  0.00  0.00    +0.080 A 
ATOM      5  C   UNL     1       0.661  -9.689   5.631  0.00  0.00    +0.078 A 
ATOM      6  C   UNL     1       0.368  -8.351   5.487  0.00  0.00    +0.164 A 
ATOM      7  N   UNL     1       0.725 -11.872   4.644  0.00  0.00    -0.235 NA
ATOM      8  C   UNL     1       0.516 -12.665   3.619  0.00  0.00    +0.223 A 
ATOM      9  N   UNL     1       0.034 -12.236   2.464  0.00  0.00    -0.220 NA
ATOM     10  C   UNL     1      -0.271 -10.959   2.271  0.00  0.00    +0.134 A 
ATOM     11  N   UNL     1      -0.774 -10.526   1.060  0.00  0.00    -0.299 N 
ATOM     12  H   UNL     1      -0.914  -9.579   0.904  0.00  0.00    +0.154 HD
ENDROOT
BRANCH  11  13
ATOM     13  C   UNL     1      -1.079 -11.450   0.061  0.00  0.00    +0.036 A 
ATOM     14  C   UNL     1      -1.605 -12.693   0.402  0.00  0.00    +0.024 A 
ATOM     15  C   UNL     1      -1.909 -13.609  -0.579  0.00  0.00    +0.016 A 
ATOM     16  C   UNL     1      -1.689 -13.293  -1.922  0.00  0.00    +0.049 A 
ATOM     17  C   UNL     1      -1.159 -12.042  -2.265  0.00  0.00    +0.132 A 
ATOM     18  C   UNL     1      -0.862 -11.125  -1.272  0.00  0.00    +0.069 A 
BRANCH  16  19
ATOM     19  C   UNL     1      -2.013 -14.274  -2.976  0.00  0.00    +0.113 A 
ATOM     20  N   UNL     1      -1.872 -14.162  -4.280  0.00  0.00    -0.239 NA
ATOM     21  C   UNL     1      -2.213 -15.149  -5.132  0.00  0.00    +0.079 A 
ATOM     22  C   UNL     1      -2.113 -15.157  -6.544  0.00  0.00    +0.029 A 
ATOM     23  C   UNL     1      -2.505 -16.242  -7.264  0.00  0.00    +0.002 A 
ATOM     24  C   UNL     1      -3.015 -17.378  -6.651  0.00  0.00    +0.001 A 
ATOM     25  C   UNL     1      -3.128 -17.411  -5.273  0.00  0.00    +0.017 A 
ATOM     26  C   UNL     1      -2.736 -16.321  -4.537  0.00  0.00    +0.040 A 
ATOM     27  S   UNL     1      -2.689 -15.920  -2.807  0.00  0.00    -0.067 S 
ENDBRANCH  16  19
BRANCH  17  28
ATOM     28  O   UNL     1      -0.943 -11.728  -3.568  0.00  0.00    -0.494 OA
ATOM     29  C   UNL     1      -0.401 -10.435  -3.843  0.00  0.00    +0.277 C 
ENDBRANCH  17  28
ENDBRANCH  11  13
BRANCH   6  30
ATOM     30  O   UNL     1       0.578  -7.501   6.527  0.00  0.00    -0.491 OA
ATOM     31  C   UNL     1       1.108  -8.065   7.728  0.00  0.00    +0.277 C 
ENDBRANCH   6  30
BRANCH   1  32
ATOM     32  O   UNL     1      -0.437  -6.533   4.166  0.00  0.00    -0.488 OA
BRANCH  32  33
ATOM     33  C   UNL     1      -0.962  -6.091   2.913  0.00  0.00    +0.230 C 
BRANCH  33  34
ATOM     34  C   UNL     1      -1.221  -4.584   2.972  0.00  0.00    +0.056 C 
BRANCH  34  35
ATOM     35  C   UNL     1      -1.783  -4.110   1.630  0.00  0.00    +0.087 C 
BRANCH  35  40
ATOM     36  C   UNL     1      -2.089   1.460   0.841  0.00  0.00    -0.096 C 
ATOM     37  N   UNL     1      -1.811   0.022   0.738  0.00  0.00    +0.379 N 
ATOM     38  C   UNL     1      -3.078  -0.715   0.636  0.00  0.00    -0.064 C 
ATOM     39  C   UNL     1      -2.789  -2.213   0.510  0.00  0.00    +0.066 C 
ATOM     40  N   UNL     1      -2.032  -2.663   1.687  0.00  0.00    -0.306 NA
ATOM     41  C   UNL     1      -0.773  -1.917   1.815  0.00  0.00    +0.066 C 
ATOM     42  C   UNL     1      -1.079  -0.422   1.931  0.00  0.00    -0.064 C 
ATOM     43  H   UNL     1      -1.253  -0.155  -0.085  0.00  0.00    -0.082 HD
ENDBRANCH  35  40
ENDBRANCH  34  35
ENDBRANCH  33  34
ENDBRANCH  32  33
ENDBRANCH   1  32
TORSDOF 9
