REMARK  Name = CHEMBL25610
REMARK  7 active torsions:
REMARK  status: ('A' for Active; 'I' for Inactive)
REMARK    1  A    between atoms: C_1  and  O_2
REMARK    2  A    between atoms: O_2  and  C_3
REMARK    3  A    between atoms: C_8  and  O_9
REMARK    4  A    between atoms: O_9  and  C_10
REMARK    5  A    between atoms: C_10  and  C_11
REMARK    6  A    between atoms: C_11  and  N_12
REMARK    7  A    between atoms: N_22  and  C_23
REMARK                            x       y       z     vdW  Elec       q    Type
REMARK                         _______ _______ _______ _____ _____    ______ ____
ROOT
ATOM      1  C   UNL     1      -1.216  -0.110  -0.368  0.00  0.00    +0.162 A 
ATOM      2  C   UNL     1      -2.427   0.516  -0.461  0.00  0.00    +0.062 A 
ATOM      3  C   UNL     1      -3.604  -0.226  -0.304  0.00  0.00    +0.044 A 
ATOM      4  C   UNL     1      -3.534  -1.618  -0.051  0.00  0.00    +0.080 A 
ATOM      5  C   UNL     1      -2.282  -2.238   0.040  0.00  0.00    +0.078 A 
ATOM      6  C   UNL     1      -1.139  -1.488  -0.123  0.00  0.00    +0.164 A 
ATOM      7  N   UNL     1      -4.677  -2.306   0.095  0.00  0.00    -0.235 NA
ATOM      8  C   UNL     1      -5.835  -1.697   0.004  0.00  0.00    +0.223 A 
ATOM      9  N   UNL     1      -5.950  -0.400  -0.232  0.00  0.00    -0.220 NA
ATOM     10  C   UNL     1      -4.883   0.373  -0.392  0.00  0.00    +0.134 A 
ATOM     11  N   UNL     1      -5.018   1.725  -0.636  0.00  0.00    -0.297 N 
ATOM     12  H   UNL     1      -4.235   2.262  -0.834  0.00  0.00    +0.154 HD
ENDROOT
BRANCH  11  13
ATOM     13  C   UNL     1      -6.284   2.320  -0.599  0.00  0.00    +0.068 A 
ATOM     14  C   UNL     1      -7.331   1.688   0.057  0.00  0.00    +0.027 A 
ATOM     15  C   UNL     1      -8.580   2.277   0.093  0.00  0.00    +0.022 A 
ATOM     16  C   UNL     1      -8.789   3.498  -0.524  0.00  0.00    +0.044 A 
ATOM     17  C   UNL     1      -7.748   4.132  -1.180  0.00  0.00    +0.060 A 
ATOM     18  C   UNL     1      -6.495   3.550  -1.214  0.00  0.00    +0.146 A 
ATOM     19  F   UNL     1      -5.477   4.171  -1.850  0.00  0.00    -0.203 F 
ATOM     20 CL   UNL     1     -10.360   4.235  -0.477  0.00  0.00    -0.083 Cl
ENDBRANCH  11  13
BRANCH   1  22
ATOM     21  C   UNL     1      -0.218   2.012  -0.768  0.00  0.00    +0.277 C 
ATOM     22  O   UNL     1      -0.073   0.612  -0.520  0.00  0.00    -0.491 OA
ENDBRANCH   1  22
BRANCH   6  23
ATOM     23  O   UNL     1       0.077  -2.088  -0.041  0.00  0.00    -0.487 OA
BRANCH  23  24
ATOM     24  C   UNL     1       0.090  -3.495   0.210  0.00  0.00    +0.244 C 
BRANCH  24  25
ATOM     25  C   UNL     1       1.537  -3.989   0.269  0.00  0.00    +0.125 C 
BRANCH  25  26
ATOM     26  N   UNL     1       2.224  -3.359   1.405  0.00  0.00    -0.295 NA
ATOM     27  C   UNL     1       3.683  -3.426   1.241  0.00  0.00    +0.112 C 
ATOM     28  C   UNL     1       4.357  -2.708   2.414  0.00  0.00    +0.175 C 
ATOM     29  O   UNL     1       3.922  -3.298   3.641  0.00  0.00    -0.377 OA
ATOM     30  C   UNL     1       2.505  -3.249   3.834  0.00  0.00    +0.175 C 
ATOM     31  C   UNL     1       1.813  -3.973   2.676  0.00  0.00    +0.112 C 
ENDBRANCH  25  26
ENDBRANCH  24  25
ENDBRANCH  23  24
ENDBRANCH   6  23
TORSDOF 6
