REMARK  Name = CHEMBL461113
REMARK  10 active torsions:
REMARK  status: ('A' for Active; 'I' for Inactive)
REMARK    1  A    between atoms: C_4  and  C_7
REMARK    2  A    between atoms: C_7  and  O_8
REMARK    3  A    between atoms: O_8  and  C_9
REMARK    4  A    between atoms: C_12  and  N_16
REMARK    5  A    between atoms: C_18  and  C_24
REMARK    6  A    between atoms: C_19  and  N_23
REMARK    7  A    between atoms: C_24  and  O_26
REMARK    8  A    between atoms: O_26  and  C_27
REMARK    9  A    between atoms: C_27  and  C_28
REMARK   10  A    between atoms: C_28  and  N_29
REMARK                            x       y       z     vdW  Elec       q    Type
REMARK                         _______ _______ _______ _____ _____    ______ ____
ROOT
ATOM      1  N   UNL     1       8.610  -4.057   2.343  0.00  0.00    -0.299 N 
ATOM      2  C   UNL     1       9.035  -4.420   3.604  0.00  0.00    +0.142 A 
ATOM      3  C   UNL     1      10.313  -4.982   3.796  0.00  0.00    +0.138 A 
ATOM      4  C   UNL     1      10.689  -5.332   5.109  0.00  0.00    +0.135 A 
ATOM      5  N   UNL     1       9.828  -5.117   6.100  0.00  0.00    -0.220 NA
ATOM      6  C   UNL     1       8.643  -4.589   5.870  0.00  0.00    +0.225 A 
ATOM      7  N   UNL     1       8.248  -4.241   4.662  0.00  0.00    -0.220 NA
ATOM      8  H   UNL     1       9.221  -4.109   1.591  0.00  0.00    +0.154 HD
ENDROOT
BRANCH   1  12
ATOM      9  C   UNL     1       4.698  -2.737   1.759  0.00  0.00    +0.139 A 
ATOM     10  C   UNL     1       5.729  -2.208   0.997  0.00  0.00    +0.049 A 
ATOM     11  C   UNL     1       7.025  -2.645   1.190  0.00  0.00    +0.027 A 
ATOM     12  C   UNL     1       7.296  -3.614   2.147  0.00  0.00    +0.034 A 
ATOM     13  C   UNL     1       6.264  -4.143   2.910  0.00  0.00    +0.047 A 
ATOM     14  C   UNL     1       4.968  -3.701   2.720  0.00  0.00    +0.084 A 
ATOM     15 CL   UNL     1       3.678  -4.357   3.679  0.00  0.00    -0.080 Cl
BRANCH   9  16
ATOM     16  O   UNL     1       3.422  -2.306   1.568  0.00  0.00    -0.486 OA
BRANCH  16  17
ATOM     17  C   UNL     1       3.216  -1.312   0.562  0.00  0.00    +0.264 C 
BRANCH  17  21
ATOM     18  C   UNL     1      -0.933  -0.317   0.368  0.00  0.00    +0.000 A 
ATOM     19  C   UNL     1      -0.094   0.382   1.216  0.00  0.00    +0.000 A 
ATOM     20  C   UNL     1       1.249   0.059   1.279  0.00  0.00    +0.007 A 
ATOM     21  C   UNL     1       1.752  -0.962   0.494  0.00  0.00    -0.010 A 
ATOM     22  C   UNL     1       0.913  -1.661  -0.352  0.00  0.00    +0.007 A 
ATOM     23  C   UNL     1      -0.430  -1.337  -0.416  0.00  0.00    +0.000 A 
ENDBRANCH  17  21
ENDBRANCH  16  17
ENDBRANCH   9  16
ENDBRANCH   1  12
BRANCH   4  24
ATOM     24  N   UNL     1      11.926  -5.886   5.361  0.00  0.00    -0.342 N 
ATOM     25  H   UNL     1      12.547  -6.038   4.631  0.00  0.00    +0.144 HD
ATOM     26  H   UNL     1      12.175  -6.123   6.268  0.00  0.00    +0.144 HD
ENDBRANCH   4  24
BRANCH   3  27
ATOM     27  C   UNL     1      11.224  -5.197   2.665  0.00  0.00    +0.346 C 
ATOM     28  O   UNL     1      12.004  -4.323   2.337  0.00  0.00    -0.245 OA
BRANCH  27  29
ATOM     29  O   UNL     1      11.197  -6.364   1.989  0.00  0.00    -0.460 OA
BRANCH  29  30
ATOM     30  C   UNL     1      12.111  -6.504   0.900  0.00  0.00    +0.248 C 
BRANCH  30  31
ATOM     31  C   UNL     1      11.934  -7.882   0.260  0.00  0.00    +0.125 C 
BRANCH  31  32
ATOM     32  N   UNL     1      10.587  -7.985  -0.318  0.00  0.00    -0.295 NA
ATOM     33  C   UNL     1      10.205  -9.390  -0.518  0.00  0.00    +0.112 C 
ATOM     34  C   UNL     1       8.777  -9.453  -1.064  0.00  0.00    +0.175 C 
ATOM     35  O   UNL     1       8.700  -8.693  -2.274  0.00  0.00    -0.377 OA
ATOM     36  C   UNL     1       9.065  -7.319  -2.115  0.00  0.00    +0.175 C 
ATOM     37  C   UNL     1      10.497  -7.235  -1.579  0.00  0.00    +0.112 C 
ENDBRANCH  31  32
ENDBRANCH  30  31
ENDBRANCH  29  30
ENDBRANCH  27  29
ENDBRANCH   3  27
TORSDOF 10
