REMARK  Name = CHEMBL178265
REMARK  14 active torsions:
REMARK  status: ('A' for Active; 'I' for Inactive)
REMARK    1  A    between atoms: C_1  and  C_2
REMARK    2  A    between atoms: C_2  and  O_3
REMARK    3  A    between atoms: O_3  and  C_4
REMARK    4  A    between atoms: C_9  and  N_10
REMARK    5  A    between atoms: C_11  and  C_13
REMARK    6  A    between atoms: C_14  and  C_15
REMARK    7  A    between atoms: C_15  and  N_16
REMARK    8  A    between atoms: N_16  and  C_17
REMARK    9  A    between atoms: N_16  and  C_18
REMARK   10  A    between atoms: C_19  and  N_25
REMARK   11  A    between atoms: C_20  and  C_23
REMARK   12  A    between atoms: N_25  and  C_26
REMARK   13  A    between atoms: C_29  and  O_33
REMARK   14  A    between atoms: O_33  and  C_34
REMARK                            x       y       z     vdW  Elec       q    Type
REMARK                         _______ _______ _______ _____ _____    ______ ____
ROOT
ATOM      1  C   UNL     1       0.408  -3.943  -2.266  0.00  0.00    +0.144 A 
ATOM      2  C   UNL     1       0.701  -4.078  -0.929  0.00  0.00    +0.076 A 
ATOM      3  C   UNL     1      -0.149  -4.824  -0.098  0.00  0.00    +0.076 A 
ATOM      4  C   UNL     1      -1.303  -5.430  -0.653  0.00  0.00    +0.025 A 
ATOM      5  C   UNL     1      -1.585  -5.280  -2.018  0.00  0.00    +0.039 A 
ATOM      6  C   UNL     1      -0.738  -4.540  -2.813  0.00  0.00    +0.077 A 
ATOM      7  C   UNL     1      -2.157  -6.181   0.189  0.00  0.00    +0.060 A 
ATOM      8  C   UNL     1      -1.811  -6.287   1.544  0.00  0.00    +0.091 A 
ATOM      9  C   UNL     1      -0.648  -5.652   2.009  0.00  0.00    +0.132 A 
ATOM     10  N   UNL     1       0.124  -4.963   1.208  0.00  0.00    -0.253 NA
ENDROOT
BRANCH   6  11
ATOM     11  N   UNL     1      -1.020  -4.385  -4.175  0.00  0.00    -0.279 N 
ATOM     12  C   UNL     1      -1.670  -5.359  -4.844  0.00  0.00    +0.241 C 
ATOM     13  O   UNL     1      -2.080  -6.336  -4.247  0.00  0.00    -0.271 OA
ATOM     14  H   UNL     1      -0.749  -3.577  -4.638  0.00  0.00    +0.155 HD
BRANCH  12  15
ATOM     15  C   UNL     1      -1.883  -5.239  -6.294  0.00  0.00    +0.064 C 
ATOM     16  C   UNL     1      -2.523  -6.200  -6.954  0.00  0.00    -0.007 C 
BRANCH  16  17
ATOM     17  C   UNL     1      -2.741  -6.077  -8.440  0.00  0.00    +0.111 C 
BRANCH  17  18
ATOM     18  N   UNL     1      -2.201  -7.265  -9.114  0.00  0.00    -0.305 NA
ATOM     19  C   UNL     1      -2.602  -7.296 -10.527  0.00  0.00    +0.104 C 
ATOM     20  C   UNL     1      -0.740  -7.329  -8.979  0.00  0.00    +0.104 C 
ENDBRANCH  17  18
ENDBRANCH  16  17
ENDBRANCH  12  15
ENDBRANCH   6  11
BRANCH   8  21
ATOM     21  C   UNL     1      -2.637  -7.033   2.445  0.00  0.00    +0.103 C 
ATOM     22  N   UNL     1      -3.292  -7.625   3.160  0.00  0.00    -0.191 NA
ENDBRANCH   8  21
BRANCH   7  23
ATOM     23  N   UNL     1      -3.292  -6.789  -0.307  0.00  0.00    -0.313 N 
ATOM     24  H   UNL     1      -4.093  -6.265  -0.467  0.00  0.00    +0.152 HD
BRANCH  23  25
ATOM     25  C   UNL     1      -3.288  -8.161  -0.581  0.00  0.00    +0.033 A 
ATOM     26  C   UNL     1      -2.087  -8.822  -0.802  0.00  0.00    +0.027 A 
ATOM     27  C   UNL     1      -2.083 -10.176  -1.071  0.00  0.00    +0.049 A 
ATOM     28  C   UNL     1      -3.279 -10.877  -1.121  0.00  0.00    +0.147 A 
ATOM     29  C   UNL     1      -4.481 -10.218  -0.900  0.00  0.00    +0.085 A 
ATOM     30  C   UNL     1      -4.485  -8.864  -0.625  0.00  0.00    +0.047 A 
ATOM     31 CL   UNL     1      -5.977 -11.096  -0.963  0.00  0.00    -0.080 Cl
BRANCH  28  32
ATOM     32  O   UNL     1      -3.275 -12.211  -1.386  0.00  0.00    -0.454 OA
BRANCH  32  33
ATOM     33  C   UNL     1      -2.076 -12.819  -1.573  0.00  0.00    +0.131 A 
ATOM     34  C   UNL     1      -1.260 -13.137  -0.489  0.00  0.00    +0.066 A 
ATOM     35  C   UNL     1      -0.049 -13.756  -0.721  0.00  0.00    +0.114 A 
ATOM     36  N   UNL     1       0.338 -14.046  -1.948  0.00  0.00    -0.263 NA
ATOM     37  C   UNL     1      -0.406 -13.761  -3.000  0.00  0.00    +0.114 A 
ATOM     38  C   UNL     1      -1.633 -13.148  -2.852  0.00  0.00    +0.066 A 
ENDBRANCH  32  33
ENDBRANCH  28  32
ENDBRANCH  23  25
ENDBRANCH   7  23
BRANCH   1  39
ATOM     39  O   UNL     1       1.235  -3.219  -3.065  0.00  0.00    -0.490 OA
BRANCH  39  41
ATOM     40  C   UNL     1       3.190  -1.866  -3.498  0.00  0.00    +0.048 C 
ATOM     41  C   UNL     1       2.386  -2.636  -2.450  0.00  0.00    +0.226 C 
ENDBRANCH  39  41
ENDBRANCH   1  39
TORSDOF 11
