REMARK  Name = CHEMBL180018
REMARK  14 active torsions:
REMARK  status: ('A' for Active; 'I' for Inactive)
REMARK    1  A    between atoms: C_1  and  C_2
REMARK    2  A    between atoms: C_2  and  O_3
REMARK    3  A    between atoms: O_3  and  C_4
REMARK    4  A    between atoms: C_9  and  N_10
REMARK    5  A    between atoms: C_11  and  C_13
REMARK    6  A    between atoms: C_14  and  C_15
REMARK    7  A    between atoms: C_15  and  N_16
REMARK    8  A    between atoms: N_16  and  C_17
REMARK    9  A    between atoms: N_16  and  C_18
REMARK   10  A    between atoms: C_19  and  N_25
REMARK   11  A    between atoms: C_20  and  C_23
REMARK   12  A    between atoms: N_25  and  C_26
REMARK   13  A    between atoms: C_29  and  O_33
REMARK   14  A    between atoms: O_33  and  C_34
REMARK                            x       y       z     vdW  Elec       q    Type
REMARK                         _______ _______ _______ _____ _____    ______ ____
ROOT
ATOM      1  C   UNL     1       0.395  -3.948  -2.285  0.00  0.00    +0.144 A 
ATOM      2  C   UNL     1       0.692  -4.076  -0.947  0.00  0.00    +0.076 A 
ATOM      3  C   UNL     1      -0.156  -4.817  -0.110  0.00  0.00    +0.076 A 
ATOM      4  C   UNL     1      -1.311  -5.426  -0.658  0.00  0.00    +0.025 A 
ATOM      5  C   UNL     1      -1.597  -5.284  -2.023  0.00  0.00    +0.039 A 
ATOM      6  C   UNL     1      -0.754  -4.548  -2.824  0.00  0.00    +0.077 A 
ATOM      7  C   UNL     1      -2.162  -6.172   0.191  0.00  0.00    +0.060 A 
ATOM      8  C   UNL     1      -1.812  -6.270   1.546  0.00  0.00    +0.091 A 
ATOM      9  C   UNL     1      -0.647  -5.634   2.003  0.00  0.00    +0.132 A 
ATOM     10  N   UNL     1       0.122  -4.949   1.196  0.00  0.00    -0.253 NA
ENDROOT
BRANCH   6  11
ATOM     11  N   UNL     1      -1.041  -4.400  -4.186  0.00  0.00    -0.279 N 
ATOM     12  C   UNL     1      -1.689  -5.379  -4.848  0.00  0.00    +0.241 C 
ATOM     13  O   UNL     1      -2.095  -6.355  -4.246  0.00  0.00    -0.271 OA
ATOM     14  H   UNL     1      -0.773  -3.594  -4.654  0.00  0.00    +0.155 HD
BRANCH  12  15
ATOM     15  C   UNL     1      -1.907  -5.267  -6.298  0.00  0.00    +0.064 C 
ATOM     16  C   UNL     1      -2.547  -6.233  -6.951  0.00  0.00    -0.007 C 
BRANCH  16  17
ATOM     17  C   UNL     1      -2.769  -6.119  -8.437  0.00  0.00    +0.111 C 
BRANCH  17  18
ATOM     18  N   UNL     1      -2.228  -7.309  -9.107  0.00  0.00    -0.305 NA
ATOM     19  C   UNL     1      -2.633  -7.349 -10.518  0.00  0.00    +0.104 C 
ATOM     20  C   UNL     1      -0.766  -7.368  -8.976  0.00  0.00    +0.104 C 
ENDBRANCH  17  18
ENDBRANCH  16  17
ENDBRANCH  12  15
ENDBRANCH   6  11
BRANCH   8  21
ATOM     21  C   UNL     1      -2.635  -7.012   2.454  0.00  0.00    +0.103 C 
ATOM     22  N   UNL     1      -3.288  -7.600   3.174  0.00  0.00    -0.191 NA
ENDBRANCH   8  21
BRANCH   7  23
ATOM     23  N   UNL     1      -3.299  -6.783  -0.298  0.00  0.00    -0.313 N 
ATOM     24  H   UNL     1      -4.101  -6.260  -0.457  0.00  0.00    +0.152 HD
BRANCH  23  25
ATOM     25  C   UNL     1      -3.296  -8.156  -0.564  0.00  0.00    +0.033 A 
ATOM     26  C   UNL     1      -2.096  -8.819  -0.786  0.00  0.00    +0.027 A 
ATOM     27  C   UNL     1      -2.093 -10.174  -1.048  0.00  0.00    +0.049 A 
ATOM     28  C   UNL     1      -3.289 -10.875  -1.091  0.00  0.00    +0.147 A 
ATOM     29  C   UNL     1      -4.490 -10.215  -0.869  0.00  0.00    +0.085 A 
ATOM     30  C   UNL     1      -4.494  -8.859  -0.600  0.00  0.00    +0.047 A 
ATOM     31 CL   UNL     1      -5.987 -11.093  -0.922  0.00  0.00    -0.080 Cl
BRANCH  28  32
ATOM     32  O   UNL     1      -3.286 -12.210  -1.350  0.00  0.00    -0.455 OA
BRANCH  32  33
ATOM     33  C   UNL     1      -2.086 -12.821  -1.536  0.00  0.00    +0.129 A 
ATOM     34  C   UNL     1      -1.285 -13.127  -0.446  0.00  0.00    +0.046 A 
ATOM     35  C   UNL     1      -0.066 -13.747  -0.638  0.00  0.00    +0.004 A 
ATOM     36  C   UNL     1       0.356 -14.063  -1.916  0.00  0.00    +0.000 A 
ATOM     37  C   UNL     1      -0.440 -13.760  -3.005  0.00  0.00    +0.004 A 
ATOM     38  C   UNL     1      -1.663 -13.144  -2.818  0.00  0.00    +0.046 A 
ENDBRANCH  32  33
ENDBRANCH  28  32
ENDBRANCH  23  25
ENDBRANCH   7  23
BRANCH   1  39
ATOM     39  O   UNL     1       1.219  -3.229  -3.090  0.00  0.00    -0.490 OA
BRANCH  39  41
ATOM     40  C   UNL     1       3.173  -1.879  -3.538  0.00  0.00    +0.048 C 
ATOM     41  C   UNL     1       2.372  -2.644  -2.482  0.00  0.00    +0.226 C 
ENDBRANCH  39  41
ENDBRANCH   1  39
TORSDOF 11
