REMARK  Name = CHEMBL554
REMARK  12 active torsions:
REMARK  status: ('A' for Active; 'I' for Inactive)
REMARK    1  A    between atoms: C_1  and  S_2
REMARK    2  A    between atoms: S_2  and  C_5
REMARK    3  A    between atoms: C_5  and  C_6
REMARK    4  A    between atoms: C_6  and  N_7
REMARK    5  A    between atoms: N_7  and  C_8
REMARK    6  A    between atoms: C_8  and  C_9
REMARK    7  A    between atoms: C_12  and  C_14
REMARK    8  A    between atoms: C_20  and  N_24
REMARK    9  A    between atoms: N_24  and  C_25
REMARK   10  A    between atoms: C_28  and  O_32
REMARK   11  A    between atoms: O_32  and  C_33
REMARK   12  A    between atoms: C_33  and  C_34
REMARK                            x       y       z     vdW  Elec       q    Type
REMARK                         _______ _______ _______ _____ _____    ______ ____
ROOT
ATOM      1  C   UNL     1       2.575  -5.337  -7.877  0.00  0.00    +0.018 A 
ATOM      2  C   UNL     1       3.670  -5.593  -8.719  0.00  0.00    +0.013 A 
ATOM      3  C   UNL     1       3.524  -5.598 -10.071  0.00  0.00    +0.029 A 
ATOM      4  C   UNL     1       2.267  -5.346 -10.641  0.00  0.00    +0.076 A 
ATOM      5  C   UNL     1       1.156  -5.088  -9.800  0.00  0.00    +0.041 A 
ATOM      6  C   UNL     1       1.318  -5.090  -8.413  0.00  0.00    +0.025 A 
ATOM      7  C   UNL     1      -0.100  -4.837 -10.408  0.00  0.00    +0.134 A 
ATOM      8  N   UNL     1      -0.170  -4.859 -11.733  0.00  0.00    -0.220 NA
ATOM      9  C   UNL     1       0.896  -5.105 -12.477  0.00  0.00    +0.223 A 
ATOM     10  N   UNL     1       2.082  -5.343 -11.969  0.00  0.00    -0.235 NA
ENDROOT
BRANCH   1  14
ATOM     11  C   UNL     1       2.333  -5.191  -4.263  0.00  0.00    +0.089 A 
ATOM     12  C   UNL     1       3.647  -5.468  -4.378  0.00  0.00    +0.043 A 
ATOM     13  C   UNL     1       3.930  -5.563  -5.755  0.00  0.00    +0.050 A 
ATOM     14  C   UNL     1       2.760  -5.337  -6.411  0.00  0.00    +0.135 A 
ATOM     15  O   UNL     1       1.800  -5.118  -5.493  0.00  0.00    -0.462 OA
BRANCH  11  16
ATOM     16  C   UNL     1       1.586  -5.003  -2.968  0.00  0.00    -0.007 C 
BRANCH  16  17
ATOM     17  N   UNL     1       1.619  -3.585  -2.586  0.00  0.00    +0.385 N 
ATOM     18  H   UNL     1       1.184  -3.031  -3.309  0.00  0.00    -0.085 HD
ATOM     19  H   UNL     1       2.576  -3.291  -2.467  0.00  0.00    -0.085 HD
BRANCH  17  20
ATOM     20  C   UNL     1       0.890  -3.400  -1.324  0.00  0.00    -0.059 C 
BRANCH  20  21
ATOM     21  C   UNL     1       0.924  -1.923  -0.926  0.00  0.00    +0.146 C 
BRANCH  21  23
ATOM     22  C   UNL     1       0.178   0.087   0.928  0.00  0.00    +0.193 C 
ATOM     23  S   UNL     1       0.024  -1.696   0.633  0.00  0.00    -0.036 S 
ATOM     24  O   UNL     1       0.724  -2.384   1.661  0.00  0.00    -0.175 OA
ATOM     25  O   UNL     1      -1.346  -1.998   0.409  0.00  0.00    -0.175 OA
ENDBRANCH  21  23
ENDBRANCH  20  21
ENDBRANCH  17  20
ENDBRANCH  16  17
ENDBRANCH  11  16
ENDBRANCH   1  14
BRANCH   7  26
ATOM     26  N   UNL     1      -1.218  -4.580  -9.644  0.00  0.00    -0.299 N 
ATOM     27  H   UNL     1      -1.137  -4.485  -8.682  0.00  0.00    +0.154 HD
BRANCH  26  28
ATOM     28  C   UNL     1      -2.471  -4.455 -10.256  0.00  0.00    +0.034 A 
ATOM     29  C   UNL     1      -3.397  -3.545  -9.763  0.00  0.00    +0.027 A 
ATOM     30  C   UNL     1      -4.633  -3.422 -10.367  0.00  0.00    +0.049 A 
ATOM     31  C   UNL     1      -4.950  -4.206 -11.466  0.00  0.00    +0.139 A 
ATOM     32  C   UNL     1      -4.025  -5.116 -11.960  0.00  0.00    +0.084 A 
ATOM     33  C   UNL     1      -2.786  -5.236 -11.359  0.00  0.00    +0.047 A 
ATOM     34 CL   UNL     1      -4.422  -6.098 -13.335  0.00  0.00    -0.080 Cl
BRANCH  31  35
ATOM     35  O   UNL     1      -6.167  -4.085 -12.060  0.00  0.00    -0.486 OA
BRANCH  35  36
ATOM     36  C   UNL     1      -7.070  -3.129 -11.499  0.00  0.00    +0.264 C 
BRANCH  36  37
ATOM     37  C   UNL     1      -8.357  -3.135 -12.283  0.00  0.00    -0.008 A 
ATOM     38  C   UNL     1      -8.506  -2.299 -13.374  0.00  0.00    +0.007 A 
ATOM     39  C   UNL     1      -9.686  -2.303 -14.093  0.00  0.00    +0.003 A 
ATOM     40  C   UNL     1     -10.720  -3.142 -13.722  0.00  0.00    +0.038 A 
ATOM     41  C   UNL     1     -10.572  -3.980 -12.630  0.00  0.00    +0.124 A 
ATOM     42  C   UNL     1      -9.387  -3.979 -11.914  0.00  0.00    +0.045 A 
ATOM     43  F   UNL     1     -11.581  -4.801 -12.266  0.00  0.00    -0.205 F 
ENDBRANCH  36  37
ENDBRANCH  35  36
ENDBRANCH  31  35
ENDBRANCH  26  28
ENDBRANCH   7  26
TORSDOF 11
