REMARK  Name = CHEMBL248321
REMARK  7 active torsions:
REMARK  status: ('A' for Active; 'I' for Inactive)
REMARK    1  A    between atoms: C_3  and  O_26
REMARK    2  A    between atoms: C_6  and  N_7
REMARK    3  A    between atoms: C_10  and  C_17
REMARK    4  A    between atoms: C_17  and  N_18
REMARK    5  A    between atoms: C_21  and  N_24
REMARK    6  A    between atoms: O_26  and  C_27
REMARK    7  A    between atoms: C_27  and  C_28
REMARK                            x       y       z     vdW  Elec       q    Type
REMARK                         _______ _______ _______ _____ _____    ______ ____
ROOT
ATOM      1  N   UNL     1      -1.206  -0.773  -0.428  0.00  0.00    -0.298 N 
ATOM      2  C   UNL     1      -1.221  -2.153  -0.458  0.00  0.00    +0.151 A 
ATOM      3  C   UNL     1      -2.443  -2.858  -0.354  0.00  0.00    +0.110 A 
ATOM      4  C   UNL     1      -3.761  -2.471  -0.217  0.00  0.00    -0.003 A 
ATOM      5  C   UNL     1      -4.523  -3.640  -0.169  0.00  0.00    +0.027 A 
ATOM      6  C   UNL     1      -3.674  -4.696  -0.276  0.00  0.00    +0.113 A 
ATOM      7  N   UNL     1      -2.413  -4.239  -0.389  0.00  0.00    -0.235 N 
ATOM      8  N   UNL     1      -1.171  -4.874  -0.525  0.00  0.00    -0.155 NA
ATOM      9  C   UNL     1      -0.080  -4.164  -0.616  0.00  0.00    +0.245 A 
ATOM     10  N   UNL     1      -0.093  -2.833  -0.589  0.00  0.00    -0.217 NA
ATOM     11  H   UNL     1      -2.026  -0.282  -0.263  0.00  0.00    +0.154 HD
ENDROOT
BRANCH   1  17
ATOM     12  C   UNL     1      -0.008   1.117  -1.337  0.00  0.00    +0.027 A 
ATOM     13  C   UNL     1       1.176   1.799  -1.541  0.00  0.00    +0.049 A 
ATOM     14  C   UNL     1       2.366   1.288  -1.044  0.00  0.00    +0.139 A 
ATOM     15  C   UNL     1       2.368   0.090  -0.342  0.00  0.00    +0.084 A 
ATOM     16  C   UNL     1       1.185  -0.593  -0.138  0.00  0.00    +0.047 A 
ATOM     17  C   UNL     1      -0.006  -0.081  -0.635  0.00  0.00    +0.034 A 
ATOM     18 CL   UNL     1       3.858  -0.549   0.278  0.00  0.00    -0.080 Cl
BRANCH  14  19
ATOM     19  O   UNL     1       3.531   1.961  -1.246  0.00  0.00    -0.484 OA
BRANCH  19  20
ATOM     20  C   UNL     1       3.454   3.186  -1.977  0.00  0.00    +0.286 C 
BRANCH  20  21
ATOM     21  C   UNL     1       4.832   3.785  -2.099  0.00  0.00    +0.096 A 
ATOM     22  C   UNL     1       5.920   3.135  -1.545  0.00  0.00    +0.137 A 
ATOM     23  N   UNL     1       7.128   3.659  -1.653  0.00  0.00    -0.260 NA
ATOM     24  C   UNL     1       7.297   4.805  -2.290  0.00  0.00    +0.130 A 
ATOM     25  C   UNL     1       6.208   5.454  -2.845  0.00  0.00    +0.131 A 
ATOM     26  N   UNL     1       5.001   4.927  -2.741  0.00  0.00    -0.253 NA
ENDBRANCH  20  21
ENDBRANCH  19  20
ENDBRANCH  14  19
ENDBRANCH   1  17
BRANCH   4  27
ATOM     27  C   UNL     1      -4.279  -1.058  -0.133  0.00  0.00    +0.121 C 
BRANCH  27  28
ATOM     28  N   UNL     1      -4.066  -0.538   1.224  0.00  0.00    -0.298 NA
ATOM     29  C   UNL     1      -4.939  -1.216   2.191  0.00  0.00    +0.083 C 
ATOM     30  C   UNL     1      -4.589  -0.755   3.607  0.00  0.00    -0.001 C 
ATOM     31  C   UNL     1      -4.770   0.762   3.705  0.00  0.00    -0.073 C 
ATOM     32  C   UNL     1      -3.886   1.442   2.655  0.00  0.00    -0.001 C 
ATOM     33  C   UNL     1      -4.257   0.917   1.266  0.00  0.00    +0.083 C 
BRANCH  31  34
ATOM     34  N   UNL     1      -4.379   1.218   5.045  0.00  0.00    +0.380 N 
ATOM     35  H   UNL     1      -3.412   0.984   5.212  0.00  0.00    -0.090 HD
ATOM     36  H   UNL     1      -4.499   2.218   5.109  0.00  0.00    -0.090 HD
ATOM     37  H   UNL     1      -4.959   0.766   5.737  0.00  0.00    -0.090 HD
ENDBRANCH  31  34
ENDBRANCH  27  28
ENDBRANCH   4  27
TORSDOF 7
