REMARK  Name = CHEMBL207674
REMARK  6 active torsions:
REMARK  status: ('A' for Active; 'I' for Inactive)
REMARK    1  A    between atoms: C_1  and  O_2
REMARK    2  A    between atoms: O_2  and  C_3
REMARK    3  A    between atoms: C_8  and  C_9
REMARK    4  A    between atoms: C_9  and  N_10
REMARK    5  A    between atoms: C_15  and  C_16
REMARK    6  A    between atoms: N_23  and  C_24
REMARK                            x       y       z     vdW  Elec       q    Type
REMARK                         _______ _______ _______ _____ _____    ______ ____
ROOT
ATOM      1  C   UNL     1       0.461  -0.909   0.822  0.00  0.00    +0.127 A 
ATOM      2  C   UNL     1       1.295  -0.010   0.192  0.00  0.00    +0.074 A 
ATOM      3  C   UNL     1       2.183  -0.465  -0.789  0.00  0.00    +0.079 A 
ATOM      4  C   UNL     1       2.209  -1.843  -1.117  0.00  0.00    +0.041 A 
ATOM      5  C   UNL     1       1.351  -2.733  -0.460  0.00  0.00    +0.022 A 
ATOM      6  C   UNL     1       0.498  -2.268   0.495  0.00  0.00    +0.009 A 
ATOM      7  C   UNL     1       3.118  -2.276  -2.112  0.00  0.00    +0.134 A 
ATOM      8  N   UNL     1       3.898  -1.368  -2.686  0.00  0.00    -0.220 NA
ATOM      9  C   UNL     1       3.838  -0.091  -2.347  0.00  0.00    +0.223 A 
ATOM     10  N   UNL     1       3.016   0.367  -1.433  0.00  0.00    -0.235 NA
ATOM     11  N   UNL     1       3.191  -3.604  -2.475  0.00  0.00    -0.297 N 
ATOM     12  H   UNL     1       2.559  -4.243  -2.110  0.00  0.00    +0.154 HD
ENDROOT
BRANCH  11  13
ATOM     13  C   UNL     1       4.178  -4.032  -3.371  0.00  0.00    +0.070 A 
ATOM     14  C   UNL     1       5.307  -3.252  -3.586  0.00  0.00    +0.026 A 
ATOM     15  C   UNL     1       6.280  -3.676  -4.470  0.00  0.00    +0.003 A 
ATOM     16  C   UNL     1       6.132  -4.875  -5.142  0.00  0.00    +0.023 A 
ATOM     17  C   UNL     1       5.009  -5.656  -4.931  0.00  0.00    +0.078 A 
ATOM     18  C   UNL     1       4.033  -5.240  -4.043  0.00  0.00    +0.163 A 
ATOM     19  F   UNL     1       2.939  -6.004  -3.833  0.00  0.00    -0.202 F 
ATOM     20 CL   UNL     1       4.828  -7.161  -5.777  0.00  0.00    -0.081 Cl
ENDBRANCH  11  13
BRANCH   1  22
ATOM     21  C   UNL     1      -0.393   0.928   2.064  0.00  0.00    +0.277 C 
ATOM     22  O   UNL     1      -0.402  -0.472   1.775  0.00  0.00    -0.495 OA
ENDBRANCH   1  22
BRANCH   6  23
ATOM     23  C   UNL     1      -0.421  -3.229   1.204  0.00  0.00    +0.124 C 
BRANCH  23  24
ATOM     24  N   UNL     1      -1.761  -3.155   0.608  0.00  0.00    -0.283 NA
ATOM     25  C   UNL     1      -2.424  -1.890   0.955  0.00  0.00    +0.113 C 
ATOM     26  C   UNL     1      -3.789  -1.829   0.265  0.00  0.00    +0.175 C 
ATOM     27  O   UNL     1      -4.563  -2.969   0.650  0.00  0.00    -0.376 OA
ATOM     28  C   UNL     1      -3.947  -4.218   0.327  0.00  0.00    +0.188 C 
ATOM     29  C   UNL     1      -2.583  -4.303   1.017  0.00  0.00    +0.169 C 
BRANCH  29  30
ATOM     30  C   UNL     1      -1.896  -5.583   0.617  0.00  0.00    +0.230 C 
ATOM     31  O   UNL     1      -1.150  -5.598  -0.340  0.00  0.00    -0.274 OA
ATOM     32  N   UNL     1      -2.109  -6.712   1.322  0.00  0.00    -0.328 N 
ATOM     33  H   UNL     1      -2.705  -6.700   2.087  0.00  0.00    +0.145 HD
ATOM     34  H   UNL     1      -1.667  -7.535   1.064  0.00  0.00    +0.145 HD
ENDBRANCH  29  30
ENDBRANCH  23  24
ENDBRANCH   6  23
TORSDOF 5
