REMARK  Name = CHEMBL475767
REMARK  9 active torsions:
REMARK  status: ('A' for Active; 'I' for Inactive)
REMARK    1  A    between atoms: C_1  and  N_2
REMARK    2  A    between atoms: N_2  and  C_3
REMARK    3  A    between atoms: N_2  and  C_4
REMARK    4  A    between atoms: C_4  and  C_5
REMARK    5  A    between atoms: C_8  and  C_11
REMARK    6  A    between atoms: N_20  and  C_21
REMARK    7  A    between atoms: C_24  and  O_28
REMARK    8  A    between atoms: O_28  and  C_29
REMARK    9  A    between atoms: C_29  and  C_30
REMARK                            x       y       z     vdW  Elec       q    Type
REMARK                         _______ _______ _______ _____ _____    ______ ____
ROOT
ATOM      1  C   UNL     1      -2.980  -0.575  -4.798  0.00  0.00    +0.038 A 
ATOM      2  C   UNL     1      -3.691   0.079  -5.753  0.00  0.00    +0.031 A 
ATOM      3  C   UNL     1      -3.907  -0.567  -7.031  0.00  0.00    +0.048 A 
ATOM      4  C   UNL     1      -4.608  -0.099  -8.179  0.00  0.00    +0.134 A 
ATOM      5  N   UNL     1      -4.679  -0.871  -9.251  0.00  0.00    -0.220 NA
ATOM      6  C   UNL     1      -4.120  -2.067  -9.294  0.00  0.00    +0.224 A 
ATOM      7  N   UNL     1      -3.457  -2.556  -8.264  0.00  0.00    -0.228 NA
ATOM      8  C   UNL     1      -3.336  -1.855  -7.154  0.00  0.00    +0.114 A 
ATOM      9  S   UNL     1      -2.552  -2.117  -5.586  0.00  0.00    -0.067 S 
ATOM     10  N   UNL     1      -5.208   1.148  -8.172  0.00  0.00    -0.299 N 
ATOM     11  H   UNL     1      -5.223   1.675  -7.358  0.00  0.00    +0.154 HD
ENDROOT
BRANCH  10  12
ATOM     12  C   UNL     1      -5.795   1.649  -9.341  0.00  0.00    +0.034 A 
ATOM     13  C   UNL     1      -6.914   2.468  -9.261  0.00  0.00    +0.027 A 
ATOM     14  C   UNL     1      -7.492   2.962 -10.413  0.00  0.00    +0.049 A 
ATOM     15  C   UNL     1      -6.956   2.640 -11.652  0.00  0.00    +0.139 A 
ATOM     16  C   UNL     1      -5.838   1.822 -11.733  0.00  0.00    +0.084 A 
ATOM     17  C   UNL     1      -5.255   1.331 -10.580  0.00  0.00    +0.047 A 
ATOM     18 CL   UNL     1      -5.168   1.420 -13.283  0.00  0.00    -0.080 Cl
BRANCH  15  19
ATOM     19  O   UNL     1      -7.526   3.127 -12.786  0.00  0.00    -0.486 OA
BRANCH  19  20
ATOM     20  C   UNL     1      -8.675   3.962 -12.628  0.00  0.00    +0.264 C 
BRANCH  20  21
ATOM     21  C   UNL     1      -9.165   4.403 -13.983  0.00  0.00    -0.008 A 
ATOM     22  C   UNL     1      -8.677   5.566 -14.550  0.00  0.00    +0.007 A 
ATOM     23  C   UNL     1      -9.127   5.972 -15.793  0.00  0.00    +0.003 A 
ATOM     24  C   UNL     1     -10.065   5.215 -16.470  0.00  0.00    +0.038 A 
ATOM     25  C   UNL     1     -10.554   4.051 -15.903  0.00  0.00    +0.124 A 
ATOM     26  C   UNL     1     -10.099   3.642 -14.661  0.00  0.00    +0.045 A 
ATOM     27  F   UNL     1     -11.471   3.311 -16.564  0.00  0.00    -0.205 F 
ENDBRANCH  20  21
ENDBRANCH  19  20
ENDBRANCH  15  19
ENDBRANCH  10  12
BRANCH   1  31
ATOM     28  C   UNL     1      -1.811  -0.064  -1.379  0.00  0.00    -0.000 A 
ATOM     29  C   UNL     1      -2.465   1.101  -1.581  0.00  0.00    +0.021 A 
ATOM     30  C   UNL     1      -2.993   1.076  -2.882  0.00  0.00    +0.028 A 
ATOM     31  C   UNL     1      -2.640  -0.119  -3.441  0.00  0.00    +0.053 A 
ATOM     32  N   UNL     1      -1.906  -0.816  -2.513  0.00  0.00    -0.359 N 
ATOM     33  H   UNL     1      -1.522  -1.697  -2.642  0.00  0.00    +0.166 HD
BRANCH  28  34
ATOM     34  C   UNL     1      -1.092  -0.462  -0.117  0.00  0.00    -0.025 C 
BRANCH  34  36
ATOM     35  C   UNL     1       0.481   1.338  -0.324  0.00  0.00    -0.096 C 
ATOM     36  N   UNL     1       0.332  -0.121  -0.236  0.00  0.00    +0.380 N 
ATOM     37  C   UNL     1       1.055  -0.616   0.943  0.00  0.00    -0.096 C 
ATOM     38  H   UNL     1       0.712  -0.548  -1.067  0.00  0.00    -0.082 HD
ENDBRANCH  34  36
ENDBRANCH  28  34
ENDBRANCH   1  31
TORSDOF 7
