REMARK  Name = CHEMBL186580
REMARK  7 active torsions:
REMARK  status: ('A' for Active; 'I' for Inactive)
REMARK    1  A    between atoms: C_1  and  O_2
REMARK    2  A    between atoms: O_2  and  C_3
REMARK    3  A    between atoms: C_8  and  O_9
REMARK    4  A    between atoms: O_9  and  C_10
REMARK    5  A    between atoms: N_15  and  C_16
REMARK    6  A    between atoms: C_18  and  N_24
REMARK    7  A    between atoms: C_25  and  C_27
REMARK                            x       y       z     vdW  Elec       q    Type
REMARK                         _______ _______ _______ _____ _____    ______ ____
ROOT
ATOM      1  C   UNL     1       3.007   2.321  -5.204  0.00  0.00    +0.070 A 
ATOM      2  C   UNL     1       3.600   1.609  -6.237  0.00  0.00    +0.052 A 
ATOM      3  C   UNL     1       4.282   2.283  -7.239  0.00  0.00    +0.071 A 
ATOM      4  C   UNL     1       4.372   3.670  -7.206  0.00  0.00    +0.147 A 
ATOM      5  C   UNL     1       3.780   4.378  -6.176  0.00  0.00    +0.080 A 
ATOM      6  C   UNL     1       3.094   3.708  -5.178  0.00  0.00    +0.147 A 
ATOM      7  F   UNL     1       2.513   4.403  -4.175  0.00  0.00    -0.203 F 
ATOM      8  F   UNL     1       5.037   4.327  -8.182  0.00  0.00    -0.203 F 
ENDROOT
BRANCH   1  19
ATOM      9  C   UNL     1       0.529  -0.644  -1.115  0.00  0.00    +0.162 A 
ATOM     10  C   UNL     1       1.114   0.122  -2.083  0.00  0.00    +0.062 A 
ATOM     11  C   UNL     1       1.187  -0.358  -3.397  0.00  0.00    +0.044 A 
ATOM     12  C   UNL     1       0.654  -1.632  -3.714  0.00  0.00    +0.080 A 
ATOM     13  C   UNL     1       0.059  -2.400  -2.706  0.00  0.00    +0.078 A 
ATOM     14  C   UNL     1       0.005  -1.908  -1.421  0.00  0.00    +0.164 A 
ATOM     15  N   UNL     1       0.738  -2.068  -4.981  0.00  0.00    -0.235 NA
ATOM     16  C   UNL     1       1.301  -1.326  -5.904  0.00  0.00    +0.223 A 
ATOM     17  N   UNL     1       1.812  -0.131  -5.654  0.00  0.00    -0.220 NA
ATOM     18  C   UNL     1       1.782   0.395  -4.437  0.00  0.00    +0.134 A 
ATOM     19  N   UNL     1       2.318   1.643  -4.191  0.00  0.00    -0.297 N 
ATOM     20  H   UNL     1       2.217   2.050  -3.317  0.00  0.00    +0.154 HD
BRANCH   9  22
ATOM     21  C   UNL     1       1.011   1.117   0.408  0.00  0.00    +0.277 C 
ATOM     22  O   UNL     1       0.459  -0.178   0.160  0.00  0.00    -0.491 OA
ENDBRANCH   9  22
BRANCH  14  23
ATOM     23  O   UNL     1      -0.567  -2.653  -0.439  0.00  0.00    -0.491 OA
ATOM     24  C   UNL     1      -1.082  -3.932  -0.813  0.00  0.00    +0.277 C 
ENDBRANCH  14  23
ENDBRANCH   1  19
BRANCH   3  25
ATOM     25  N   UNL     1       4.882   1.567  -8.283  0.00  0.00    -0.279 N 
ATOM     26  C   UNL     1       5.243   0.281  -8.098  0.00  0.00    +0.248 C 
ATOM     27  O   UNL     1       5.145  -0.225  -6.997  0.00  0.00    -0.270 OA
ATOM     28  H   UNL     1       5.037   1.995  -9.139  0.00  0.00    +0.155 HD
BRANCH  26  29
ATOM     29  C   UNL     1       5.759  -0.512  -9.233  0.00  0.00    +0.037 A 
ATOM     30  C   UNL     1       5.878   0.068 -10.497  0.00  0.00    +0.013 A 
ATOM     31  C   UNL     1       6.360  -0.679 -11.552  0.00  0.00    +0.001 A 
ATOM     32  C   UNL     1       6.725  -1.999 -11.360  0.00  0.00    +0.000 A 
ATOM     33  C   UNL     1       6.609  -2.580 -10.110  0.00  0.00    +0.001 A 
ATOM     34  C   UNL     1       6.134  -1.844  -9.044  0.00  0.00    +0.013 A 
ENDBRANCH  26  29
ENDBRANCH   3  25
TORSDOF 5
