REMARK  Name = CHEMBL435902
REMARK  13 active torsions:
REMARK  status: ('A' for Active; 'I' for Inactive)
REMARK    1  A    between atoms: C_4  and  C_7
REMARK    2  A    between atoms: C_7  and  C_8
REMARK    3  A    between atoms: C_8  and  C_9
REMARK    4  A    between atoms: C_9  and  C_10
REMARK    5  A    between atoms: C_10  and  O_11
REMARK    6  A    between atoms: O_11  and  C_12
REMARK    7  A    between atoms: C_12  and  C_14
REMARK    8  A    between atoms: C_16  and  N_21
REMARK    9  A    between atoms: C_19  and  O_20
REMARK   10  A    between atoms: N_21  and  C_22
REMARK   11  A    between atoms: C_22  and  C_23
REMARK   12  A    between atoms: C_25  and  O_30
REMARK   13  A    between atoms: C_28  and  O_29
REMARK                            x       y       z     vdW  Elec       q    Type
REMARK                         _______ _______ _______ _____ _____    ______ ____
ROOT
ATOM      1  C   UNL     1       9.046  -3.688   4.055  0.00  0.00    +0.102 A 
ATOM      2  C   UNL     1       9.704  -4.050   2.876  0.00  0.00    +0.041 A 
ATOM      3  C   UNL     1      10.910  -4.725   2.941  0.00  0.00    +0.028 A 
ATOM      4  C   UNL     1      11.468  -5.043   4.175  0.00  0.00    +0.026 A 
ATOM      5  C   UNL     1      10.823  -4.689   5.343  0.00  0.00    +0.048 A 
ATOM      6  C   UNL     1       9.617  -4.006   5.294  0.00  0.00    +0.131 A 
ENDROOT
BRANCH   1   7
ATOM      7  C   UNL     1       7.760  -2.969   3.995  0.00  0.00    +0.343 C 
ATOM      8  O   UNL     1       7.193  -2.651   5.021  0.00  0.00    -0.245 OA
BRANCH   7   9
ATOM      9  O   UNL     1       7.214  -2.664   2.801  0.00  0.00    -0.461 OA
BRANCH   9  10
ATOM     10  C   UNL     1       5.967  -1.966   2.818  0.00  0.00    +0.232 C 
BRANCH  10  11
ATOM     11  C   UNL     1       5.507  -1.710   1.381  0.00  0.00    +0.041 C 
BRANCH  11  12
ATOM     12  C   UNL     1       4.171  -0.963   1.399  0.00  0.00    +0.008 C 
BRANCH  12  13
ATOM     13  C   UNL     1       3.711  -0.707  -0.038  0.00  0.00    +0.035 C 
BRANCH  13  17
ATOM     14  C   UNL     1      -0.017   1.378   0.010  0.00  0.00    +0.000 A 
ATOM     15  C   UNL     1       1.171   2.086   0.002  0.00  0.00    +0.000 A 
ATOM     16  C   UNL     1       2.377   1.411  -0.013  0.00  0.00    +0.003 A 
ATOM     17  C   UNL     1       2.396   0.029  -0.020  0.00  0.00    -0.047 A 
ATOM     18  C   UNL     1       1.208  -0.679  -0.012  0.00  0.00    +0.003 A 
ATOM     19  C   UNL     1       0.002  -0.004   0.002  0.00  0.00    +0.000 A 
ENDBRANCH  13  17
ENDBRANCH  12  13
ENDBRANCH  11  12
ENDBRANCH  10  11
ENDBRANCH   9  10
ENDBRANCH   7   9
ENDBRANCH   1   7
BRANCH   6  20
ATOM     20  O   UNL     1       8.988  -3.653   6.444  0.00  0.00    -0.506 OA
ATOM     21  H   UNL     1       8.375  -4.321   6.778  0.00  0.00    +0.292 HD
ENDBRANCH   6  20
BRANCH   3  22
ATOM     22  N   UNL     1      11.570  -5.088   1.761  0.00  0.00    -0.340 N 
ATOM     23  H   UNL     1      11.182  -4.868   0.900  0.00  0.00    +0.146 HD
BRANCH  22  24
ATOM     24  C   UNL     1      12.848  -5.803   1.828  0.00  0.00    +0.140 C 
BRANCH  24  25
ATOM     25  C   UNL     1      13.345  -6.074   0.431  0.00  0.00    +0.014 A 
ATOM     26  C   UNL     1      13.160  -7.320  -0.138  0.00  0.00    +0.054 A 
ATOM     27  C   UNL     1      13.617  -7.569  -1.423  0.00  0.00    +0.117 A 
ATOM     28  C   UNL     1      14.259  -6.569  -2.138  0.00  0.00    +0.049 A 
ATOM     29  C   UNL     1      14.444  -5.324  -1.569  0.00  0.00    +0.049 A 
ATOM     30  C   UNL     1      13.982  -5.072  -0.285  0.00  0.00    +0.122 A 
BRANCH  30  31
ATOM     31  O   UNL     1      14.158  -3.845   0.273  0.00  0.00    -0.506 OA
ATOM     32  H   UNL     1      14.987  -3.751   0.762  0.00  0.00    +0.292 HD
ENDBRANCH  30  31
BRANCH  27  33
ATOM     33  O   UNL     1      13.436  -8.795  -1.983  0.00  0.00    -0.507 OA
ATOM     34  H   UNL     1      12.607  -8.886  -2.472  0.00  0.00    +0.292 HD
ENDBRANCH  27  33
ENDBRANCH  24  25
ENDBRANCH  22  24
ENDBRANCH   3  22
TORSDOF 13
