REMARK  Name = CHEMBL519757
REMARK  9 active torsions:
REMARK  status: ('A' for Active; 'I' for Inactive)
REMARK    1  A    between atoms: C_4  and  C_7
REMARK    2  A    between atoms: C_7  and  N_8
REMARK    3  A    between atoms: N_8  and  C_9
REMARK    4  A    between atoms: C_9  and  C_10
REMARK    5  A    between atoms: C_13  and  C_15
REMARK    6  A    between atoms: N_24  and  C_25
REMARK    7  A    between atoms: C_28  and  O_32
REMARK    8  A    between atoms: O_32  and  C_33
REMARK    9  A    between atoms: C_33  and  C_34
REMARK                            x       y       z     vdW  Elec       q    Type
REMARK                         _______ _______ _______ _____ _____    ______ ____
ROOT
ATOM      1  C   UNL     1       7.673  -1.071   5.820  0.00  0.00    +0.057 A 
ATOM      2  C   UNL     1       8.303   0.132   5.831  0.00  0.00    +0.032 A 
ATOM      3  C   UNL     1       9.160   0.463   6.951  0.00  0.00    +0.048 A 
ATOM      4  C   UNL     1       9.921   1.642   7.195  0.00  0.00    +0.134 A 
ATOM      5  N   UNL     1      10.642   1.726   8.302  0.00  0.00    -0.220 NA
ATOM      6  C   UNL     1      10.681   0.751   9.192  0.00  0.00    +0.224 A 
ATOM      7  N   UNL     1       9.999  -0.365   9.022  0.00  0.00    -0.228 NA
ATOM      8  C   UNL     1       9.253  -0.535   7.948  0.00  0.00    +0.114 A 
ATOM      9  S   UNL     1       8.203  -1.830   7.344  0.00  0.00    -0.065 S 
ATOM     10  N   UNL     1       9.906   2.686   6.287  0.00  0.00    -0.299 N 
ATOM     11  H   UNL     1       9.442   2.586   5.442  0.00  0.00    +0.154 HD
ENDROOT
BRANCH  10  12
ATOM     12  C   UNL     1      10.562   3.885   6.589  0.00  0.00    +0.034 A 
ATOM     13  C   UNL     1      11.146   4.632   5.574  0.00  0.00    +0.027 A 
ATOM     14  C   UNL     1      11.794   5.814   5.872  0.00  0.00    +0.049 A 
ATOM     15  C   UNL     1      11.861   6.258   7.184  0.00  0.00    +0.139 A 
ATOM     16  C   UNL     1      11.278   5.512   8.200  0.00  0.00    +0.084 A 
ATOM     17  C   UNL     1      10.625   4.331   7.902  0.00  0.00    +0.047 A 
ATOM     18 CL   UNL     1      11.363   6.067   9.842  0.00  0.00    -0.080 Cl
BRANCH  15  19
ATOM     19  O   UNL     1      12.499   7.423   7.477  0.00  0.00    -0.486 OA
BRANCH  19  20
ATOM     20  C   UNL     1      13.077   8.138   6.383  0.00  0.00    +0.264 C 
BRANCH  20  21
ATOM     21  C   UNL     1      13.735   9.393   6.895  0.00  0.00    -0.008 A 
ATOM     22  C   UNL     1      13.009  10.567   6.986  0.00  0.00    +0.007 A 
ATOM     23  C   UNL     1      13.612  11.719   7.456  0.00  0.00    +0.003 A 
ATOM     24  C   UNL     1      14.941  11.698   7.835  0.00  0.00    +0.038 A 
ATOM     25  C   UNL     1      15.668  10.524   7.745  0.00  0.00    +0.124 A 
ATOM     26  C   UNL     1      15.062   9.369   7.280  0.00  0.00    +0.045 A 
ATOM     27  F   UNL     1      16.968  10.504   8.115  0.00  0.00    -0.205 F 
ENDBRANCH  20  21
ENDBRANCH  19  20
ENDBRANCH  15  19
ENDBRANCH  10  12
BRANCH   1  31
ATOM     28  C   UNL     1       5.559  -1.795   2.971  0.00  0.00    +0.089 A 
ATOM     29  C   UNL     1       5.382  -2.937   3.663  0.00  0.00    +0.043 A 
ATOM     30  C   UNL     1       6.152  -2.832   4.838  0.00  0.00    +0.050 A 
ATOM     31  C   UNL     1       6.765  -1.616   4.798  0.00  0.00    +0.142 A 
ATOM     32  O   UNL     1       6.399  -1.001   3.656  0.00  0.00    -0.461 OA
BRANCH  28  33
ATOM     33  C   UNL     1       4.925  -1.465   1.644  0.00  0.00    -0.006 C 
BRANCH  33  34
ATOM     34  N   UNL     1       3.642  -0.786   1.870  0.00  0.00    +0.386 N 
ATOM     35  H   UNL     1       3.799   0.065   2.389  0.00  0.00    -0.085 HD
ATOM     36  H   UNL     1       3.029  -1.391   2.395  0.00  0.00    -0.085 HD
BRANCH  34  37
ATOM     37  C   UNL     1       3.024  -0.464   0.577  0.00  0.00    -0.046 C 
BRANCH  37  41
ATOM     38  C   UNL     1      -0.707   1.510   1.231  0.00  0.00    +0.000 A 
ATOM     39  C   UNL     1       0.456   2.249   1.122  0.00  0.00    +0.000 A 
ATOM     40  C   UNL     1       1.664   1.610   0.911  0.00  0.00    +0.002 A 
ATOM     41  C   UNL     1       1.708   0.232   0.808  0.00  0.00    -0.064 A 
ATOM     42  C   UNL     1       0.545  -0.507   0.918  0.00  0.00    +0.002 A 
ATOM     43  C   UNL     1      -0.663   0.132   1.129  0.00  0.00    +0.000 A 
ENDBRANCH  37  41
ENDBRANCH  34  37
ENDBRANCH  33  34
ENDBRANCH  28  33
ENDBRANCH   1  31
TORSDOF 9
