REMARK  Name = CHEMBL193368
REMARK  11 active torsions:
REMARK  status: ('A' for Active; 'I' for Inactive)
REMARK    1  A    between atoms: C_1  and  C_2
REMARK    2  A    between atoms: C_2  and  C_3
REMARK    3  A    between atoms: C_4  and  C_29
REMARK    4  A    between atoms: N_12  and  C_13
REMARK    5  A    between atoms: N_21  and  C_22
REMARK    6  A    between atoms: C_22  and  C_23
REMARK    7  A    between atoms: C_29  and  O_31
REMARK    8  A    between atoms: O_31  and  C_32
REMARK    9  A    between atoms: C_32  and  C_33
REMARK   10  A    between atoms: C_33  and  C_34
REMARK   11  A    between atoms: C_34  and  N_35
REMARK                            x       y       z     vdW  Elec       q    Type
REMARK                         _______ _______ _______ _____ _____    ______ ____
ROOT
ATOM      1  C   UNL     1       0.765  -0.614  -1.268  0.00  0.00    -0.003 A 
ATOM      2  C   UNL     1       0.144  -1.259  -2.358  0.00  0.00    +0.082 A 
ATOM      3  C   UNL     1       1.046  -2.187  -2.854  0.00  0.00    +0.128 A 
ATOM      4  N   UNL     1       2.167  -2.131  -2.122  0.00  0.00    -0.234 N 
ATOM      5  C   UNL     1       2.019  -1.166  -1.143  0.00  0.00    +0.109 A 
ATOM      6  C   UNL     1       3.099  -0.937  -0.253  0.00  0.00    +0.151 A 
ATOM      7  N   UNL     1       4.207  -1.645  -0.386  0.00  0.00    -0.217 NA
ATOM      8  C   UNL     1       4.335  -2.569  -1.337  0.00  0.00    +0.245 A 
ATOM      9  N   UNL     1       3.379  -2.836  -2.184  0.00  0.00    -0.155 NA
ATOM     10  N   UNL     1       2.994   0.015   0.741  0.00  0.00    -0.298 N 
ATOM     11  H   UNL     1       2.152   0.474   0.886  0.00  0.00    +0.154 HD
ENDROOT
BRANCH  10  12
ATOM     12  C   UNL     1       4.102   0.316   1.542  0.00  0.00    +0.033 A 
ATOM     13  C   UNL     1       5.387   0.255   1.000  0.00  0.00    +0.025 A 
ATOM     14  C   UNL     1       6.481   0.545   1.763  0.00  0.00    +0.030 A 
ATOM     15  C   UNL     1       6.324   0.907   3.099  0.00  0.00    +0.069 A 
ATOM     16  C   UNL     1       5.033   0.972   3.656  0.00  0.00    +0.021 A 
ATOM     17  C   UNL     1       3.919   0.678   2.861  0.00  0.00    +0.034 A 
ATOM     18  C   UNL     1       5.206   1.372   5.048  0.00  0.00    +0.143 A 
ATOM     19  N   UNL     1       6.481   1.521   5.264  0.00  0.00    -0.178 NA
ATOM     20  N   UNL     1       7.202   1.246   4.098  0.00  0.00    -0.259 N 
BRANCH  20  21
ATOM     21  C   UNL     1       8.659   1.310   3.963  0.00  0.00    +0.179 C 
BRANCH  21  22
ATOM     22  C   UNL     1       9.064   2.697   3.536  0.00  0.00    -0.026 A 
ATOM     23  C   UNL     1       9.153   3.008   2.192  0.00  0.00    +0.005 A 
ATOM     24  C   UNL     1       9.524   4.281   1.801  0.00  0.00    +0.000 A 
ATOM     25  C   UNL     1       9.807   5.242   2.753  0.00  0.00    +0.000 A 
ATOM     26  C   UNL     1       9.717   4.931   4.097  0.00  0.00    +0.000 A 
ATOM     27  C   UNL     1       9.341   3.660   4.489  0.00  0.00    +0.005 A 
ENDBRANCH  21  22
ENDBRANCH  20  21
ENDBRANCH  10  12
BRANCH   1  29
ATOM     28  C   UNL     1       0.616   1.839  -0.938  0.00  0.00    +0.009 C 
ATOM     29  C   UNL     1       0.172   0.473  -0.410  0.00  0.00    +0.035 C 
ENDBRANCH   1  29
BRANCH   2  30
ATOM     30  C   UNL     1      -1.211  -0.995  -2.873  0.00  0.00    +0.341 C 
ATOM     31  O   UNL     1      -1.907  -0.149  -2.346  0.00  0.00    -0.245 OA
BRANCH  30  32
ATOM     32  O   UNL     1      -1.678  -1.690  -3.928  0.00  0.00    -0.461 OA
BRANCH  32  33
ATOM     33  C   UNL     1      -3.001  -1.382  -4.375  0.00  0.00    +0.234 C 
BRANCH  33  34
ATOM     34  C   UNL     1      -3.354  -2.266  -5.572  0.00  0.00    +0.063 C 
BRANCH  34  35
ATOM     35  C   UNL     1      -4.769  -1.936  -6.050  0.00  0.00    +0.126 C 
BRANCH  35  36
ATOM     36  N   UNL     1      -5.107  -2.783  -7.197  0.00  0.00    -0.338 N 
ATOM     37  C   UNL     1      -4.881  -2.493  -8.515  0.00  0.00    +0.104 A 
ATOM     38  C   UNL     1      -5.343  -3.538  -9.229  0.00  0.00    +0.101 A 
ATOM     39  N   UNL     1      -5.837  -4.441  -8.369  0.00  0.00    -0.352 N 
ATOM     40  C   UNL     1      -5.695  -3.998  -7.150  0.00  0.00    +0.173 A 
ATOM     41  H   UNL     1      -6.234  -5.291  -8.615  0.00  0.00    +0.166 HD
ENDBRANCH  35  36
ENDBRANCH  34  35
ENDBRANCH  33  34
ENDBRANCH  32  33
ENDBRANCH  30  32
ENDBRANCH   2  30
TORSDOF 10
