REMARK  Name = CHEMBL552859
REMARK  9 active torsions:
REMARK  status: ('A' for Active; 'I' for Inactive)
REMARK    1  A    between atoms: C_1  and  N_2
REMARK    2  A    between atoms: N_2  and  C_3
REMARK    3  A    between atoms: N_2  and  C_4
REMARK    4  A    between atoms: C_4  and  C_5
REMARK    5  A    between atoms: C_5  and  C_7
REMARK    6  A    between atoms: C_7  and  C_9
REMARK    7  A    between atoms: C_12  and  O_15
REMARK    8  A    between atoms: O_15  and  C_16
REMARK    9  A    between atoms: C_16  and  C_17
REMARK                            x       y       z     vdW  Elec       q    Type
REMARK                         _______ _______ _______ _____ _____    ______ ____
ROOT
ATOM      1  C   UNL     1      -2.677   2.171  -0.303  0.00  0.00    +0.022 A 
ATOM      2  C   UNL     1      -1.933   1.996   0.867  0.00  0.00    +0.015 A 
ATOM      3  C   UNL     1      -1.936   2.975   1.835  0.00  0.00    +0.046 A 
ATOM      4  C   UNL     1      -2.679   4.135   1.651  0.00  0.00    +0.121 A 
ATOM      5  C   UNL     1      -3.421   4.313   0.488  0.00  0.00    +0.046 A 
ATOM      6  C   UNL     1      -3.418   3.342  -0.488  0.00  0.00    +0.015 A 
ENDROOT
BRANCH   1   7
ATOM      7  C   UNL     1      -2.676   1.124  -1.344  0.00  0.00    +0.187 C 
ATOM      8  O   UNL     1      -3.302   1.290  -2.374  0.00  0.00    -0.287 OA
BRANCH   7   9
ATOM      9  C   UNL     1      -1.919  -0.119  -1.136  0.00  0.00    -0.024 C 
ATOM     10  C   UNL     1      -2.563  -1.277  -1.004  0.00  0.00    +0.014 C 
BRANCH   9  11
ATOM     11  C   UNL     1      -0.414  -0.082  -1.072  0.00  0.00    -0.041 C 
BRANCH  11  13
ATOM     12  C   UNL     1      -0.247   1.052  -3.179  0.00  0.00    -0.096 C 
ATOM     13  N   UNL     1       0.136  -0.154  -2.432  0.00  0.00    +0.379 N 
ATOM     14  C   UNL     1       1.601  -0.243  -2.365  0.00  0.00    -0.096 C 
ATOM     15  H   UNL     1      -0.230  -0.970  -2.900  0.00  0.00    -0.082 HD
ENDBRANCH  11  13
ENDBRANCH   9  11
ENDBRANCH   7   9
ENDBRANCH   1   7
BRANCH   4  16
ATOM     16  O   UNL     1      -2.680   5.098   2.607  0.00  0.00    -0.487 OA
BRANCH  16  17
ATOM     17  C   UNL     1      -3.465   6.264   2.353  0.00  0.00    +0.264 C 
BRANCH  17  18
ATOM     18  C   UNL     1      -3.344   7.214   3.517  0.00  0.00    -0.010 A 
ATOM     19  C   UNL     1      -4.228   7.126   4.576  0.00  0.00    +0.007 A 
ATOM     20  C   UNL     1      -4.118   7.997   5.644  0.00  0.00    +0.000 A 
ATOM     21  C   UNL     1      -3.122   8.956   5.653  0.00  0.00    +0.000 A 
ATOM     22  C   UNL     1      -2.237   9.044   4.594  0.00  0.00    +0.000 A 
ATOM     23  C   UNL     1      -2.345   8.170   3.529  0.00  0.00    +0.007 A 
ENDBRANCH  17  18
ENDBRANCH  16  17
ENDBRANCH   4  16
TORSDOF 7
