REMARK  Name = CHEMBL305246
REMARK  6 active torsions:
REMARK  status: ('A' for Active; 'I' for Inactive)
REMARK    1  A    between atoms: C_1  and  C_2
REMARK    2  A    between atoms: C_4  and  C_28
REMARK    3  A    between atoms: C_7  and  C_8
REMARK    4  A    between atoms: C_15  and  N_16
REMARK    5  A    between atoms: N_16  and  C_17
REMARK    6  A    between atoms: N_33  and  C_36
REMARK                            x       y       z     vdW  Elec       q    Type
REMARK                         _______ _______ _______ _____ _____    ______ ____
ROOT
ATOM      1  C   UNL     1       1.425   0.768   1.708  0.00  0.00    +0.039 C 
ATOM      2  C   UNL     1       2.239  -0.167   2.309  0.00  0.00    +0.053 C 
ATOM      3  C   UNL     1       2.530  -0.315   3.748  0.00  0.00    +0.067 A 
ATOM      4  C   UNL     1       3.408  -1.403   3.867  0.00  0.00    +0.138 A 
ATOM      5  N   UNL     1       3.825  -1.744   5.085  0.00  0.00    -0.220 NA
ATOM      6  C   UNL     1       3.426  -1.078   6.149  0.00  0.00    +0.225 A 
ATOM      7  N   UNL     1       2.602  -0.051   6.078  0.00  0.00    -0.220 NA
ATOM      8  C   UNL     1       2.131   0.366   4.903  0.00  0.00    +0.136 A 
ATOM      9  N   UNL     1       3.666  -1.919   2.613  0.00  0.00    -0.266 N 
ATOM     10  C   UNL     1       3.006  -1.244   1.656  0.00  0.00    +0.250 C 
ATOM     11  O   UNL     1       3.039  -1.478   0.462  0.00  0.00    -0.270 OA
ATOM     12  H   UNL     1       4.247  -2.677   2.445  0.00  0.00    +0.157 HD
ENDROOT
BRANCH   1  19
ATOM     13  C   UNL     1       0.932   3.240  -0.115  0.00  0.00    +0.046 C 
ATOM     14  C   UNL     1       0.961   1.789  -0.523  0.00  0.00    -0.025 A 
ATOM     15  C   UNL     1       0.776   1.293  -1.808  0.00  0.00    +0.036 A 
ATOM     16  C   UNL     1       0.880  -0.084  -1.744  0.00  0.00    +0.103 A 
ATOM     17  N   UNL     1       1.126  -0.435  -0.441  0.00  0.00    -0.351 N 
ATOM     18  H   UNL     1       1.244  -1.340  -0.111  0.00  0.00    +0.166 HD
ATOM     19  C   UNL     1       1.183   0.706   0.315  0.00  0.00    +0.043 A 
BRANCH  16  20
ATOM     20  C   UNL     1       0.749  -1.012  -2.876  0.00  0.00    +0.263 C 
ATOM     21  O   UNL     1       1.065  -0.654  -3.996  0.00  0.00    -0.268 OA
ATOM     22  N   UNL     1       0.280  -2.259  -2.675  0.00  0.00    -0.294 N 
ATOM     23  C   UNL     1      -0.215  -2.675  -1.354  0.00  0.00    +0.123 C 
ATOM     24  C   UNL     1      -1.605  -3.295  -1.528  0.00  0.00    +0.103 C 
ATOM     25  N   UNL     1      -1.539  -4.365  -2.532  0.00  0.00    -0.302 NA
ATOM     26  C   UNL     1      -1.160  -3.837  -3.849  0.00  0.00    +0.103 C 
ATOM     27  C   UNL     1       0.243  -3.238  -3.772  0.00  0.00    +0.123 C 
ATOM     28  C   UNL     1      -2.810  -5.098  -2.604  0.00  0.00    +0.105 C 
ENDBRANCH  16  20
ENDBRANCH   1  19
BRANCH   8  29
ATOM     29  N   UNL     1       1.267   1.444   4.827  0.00  0.00    -0.299 N 
ATOM     30  H   UNL     1       0.905   1.717   3.970  0.00  0.00    +0.154 HD
BRANCH  29  31
ATOM     31  C   UNL     1       0.915   2.141   5.988  0.00  0.00    +0.034 A 
ATOM     32  C   UNL     1       1.826   2.262   7.030  0.00  0.00    +0.026 A 
ATOM     33  C   UNL     1       1.478   2.951   8.175  0.00  0.00    +0.041 A 
ATOM     34  C   UNL     1       0.221   3.520   8.287  0.00  0.00    +0.142 A 
ATOM     35  C   UNL     1      -0.690   3.401   7.249  0.00  0.00    +0.078 A 
ATOM     36  C   UNL     1      -0.343   2.718   6.099  0.00  0.00    +0.046 A 
ATOM     37 CL   UNL     1      -2.266   4.116   7.392  0.00  0.00    -0.081 Cl
ATOM     38  F   UNL     1      -0.118   4.193   9.408  0.00  0.00    -0.204 F 
ENDBRANCH  29  31
ENDBRANCH   8  29
TORSDOF 4
