REMARK  Name = CHEMBL474147
REMARK  5 active torsions:
REMARK  status: ('A' for Active; 'I' for Inactive)
REMARK    1  A    between atoms: C_1  and  C_2
REMARK    2  A    between atoms: C_6  and  N_8
REMARK    3  A    between atoms: N_8  and  C_9
REMARK    4  A    between atoms: C_16  and  N_18
REMARK    5  A    between atoms: C_19  and  C_21
REMARK                            x       y       z     vdW  Elec       q    Type
REMARK                         _______ _______ _______ _____ _____    ______ ____
ROOT
ATOM      1  C   UNL     1      -0.033  -4.157   2.384  0.00  0.00    +0.135 C 
ATOM      2  N   UNL     1      -0.026  -4.837   1.257  0.00  0.00    -0.222 NA
ATOM      3  C   UNL     1      -0.042  -6.172   1.190  0.00  0.00    +0.223 C 
ATOM      4  N   UNL     1       0.255  -6.938   2.224  0.00  0.00    -0.239 NA
ATOM      5  C   UNL     1       0.508  -6.293   3.374  0.00  0.00    +0.059 C 
ATOM      6  C   UNL     1       1.300  -6.551   4.419  0.00  0.00    +0.026 C 
ATOM      7  C   UNL     1       1.470  -5.394   5.216  0.00  0.00    +0.022 C 
ATOM      8  C   UNL     1       0.671  -4.390   4.800  0.00  0.00    +0.027 C 
ATOM      9  C   UNL     1      -0.131  -4.942   3.663  0.00  0.00    +0.147 C 
ENDROOT
BRANCH   8  10
ATOM     10  N   UNL     1       0.609  -3.108   5.319  0.00  0.00    -0.285 N 
ATOM     11  C   UNL     1       1.404  -2.759   6.350  0.00  0.00    +0.240 C 
ATOM     12  O   UNL     1       2.177  -3.570   6.824  0.00  0.00    -0.271 OA
ATOM     13  H   UNL     1      -0.007  -2.461   4.941  0.00  0.00    +0.155 HD
BRANCH  11  14
ATOM     14  C   UNL     1       1.338  -1.397   6.901  0.00  0.00    +0.060 C 
ATOM     15  C   UNL     1       2.124  -1.053   7.918  0.00  0.00    +0.013 C 
ENDBRANCH  11  14
ENDBRANCH   8  10
BRANCH   1  16
ATOM     16  N   UNL     1       0.052  -2.797   2.391  0.00  0.00    -0.199 NA
BRANCH  16  22
ATOM     17  C   UNL     1      -2.276  -2.471  -1.926  0.00  0.00    +0.044 C 
ATOM     18  C   UNL     1      -1.360  -1.891  -0.879  0.00  0.00    -0.049 A 
ATOM     19  C   UNL     1      -0.802  -0.639  -1.067  0.00  0.00    +0.003 A 
ATOM     20  C   UNL     1       0.038  -0.102  -0.109  0.00  0.00    +0.002 A 
ATOM     21  C   UNL     1       0.324  -0.816   1.039  0.00  0.00    +0.025 A 
ATOM     22  C   UNL     1      -0.235  -2.073   1.230  0.00  0.00    +0.055 A 
ATOM     23  C   UNL     1      -1.083  -2.606   0.268  0.00  0.00    +0.028 A 
ENDBRANCH  16  22
ENDBRANCH   1  16
TORSDOF 4
