REMARK  Name = CHEMBL180175
REMARK  14 active torsions:
REMARK  status: ('A' for Active; 'I' for Inactive)
REMARK    1  A    between atoms: C_1  and  N_2
REMARK    2  A    between atoms: C_6  and  S_7
REMARK    3  A    between atoms: S_7  and  C_8
REMARK    4  A    between atoms: C_11  and  N_15
REMARK    5  A    between atoms: N_15  and  C_16
REMARK    6  A    between atoms: C_19  and  N_30
REMARK    7  A    between atoms: C_20  and  O_28
REMARK    8  A    between atoms: C_25  and  C_26
REMARK    9  A    between atoms: O_28  and  C_29
REMARK   10  A    between atoms: C_31  and  C_33
REMARK   11  A    between atoms: C_34  and  C_35
REMARK   12  A    between atoms: C_35  and  N_36
REMARK   13  A    between atoms: N_36  and  C_37
REMARK   14  A    between atoms: N_36  and  C_38
REMARK                            x       y       z     vdW  Elec       q    Type
REMARK                         _______ _______ _______ _____ _____    ______ ____
ROOT
ATOM      1  C   UNL     1       0.674  -4.852   7.732  0.00  0.00    +0.060 A 
ATOM      2  C   UNL     1       0.585  -6.058   8.467  0.00  0.00    +0.025 A 
ATOM      3  C   UNL     1       0.997  -7.276   7.907  0.00  0.00    +0.039 A 
ATOM      4  C   UNL     1       0.899  -8.434   8.646  0.00  0.00    +0.077 A 
ATOM      5  C   UNL     1       0.392  -8.401   9.954  0.00  0.00    +0.143 A 
ATOM      6  C   UNL     1      -0.016  -7.216  10.520  0.00  0.00    +0.076 A 
ATOM      7  C   UNL     1       0.073  -6.023   9.787  0.00  0.00    +0.076 A 
ATOM      8  N   UNL     1      -0.321  -4.860  10.327  0.00  0.00    -0.253 NA
ATOM      9  C   UNL     1      -0.250  -3.730   9.670  0.00  0.00    +0.132 A 
ATOM     10  C   UNL     1       0.250  -3.671   8.359  0.00  0.00    +0.091 A 
ENDROOT
BRANCH   4  11
ATOM     11  N   UNL     1       1.309  -9.651   8.088  0.00  0.00    -0.279 N 
ATOM     12  C   UNL     1       1.043  -9.924   6.796  0.00  0.00    +0.241 C 
ATOM     13  O   UNL     1       0.493  -9.091   6.099  0.00  0.00    -0.271 OA
ATOM     14  H   UNL     1       1.784 -10.298   8.633  0.00  0.00    +0.155 HD
BRANCH  12  15
ATOM     15  C   UNL     1       1.417 -11.227   6.227  0.00  0.00    +0.061 C 
ATOM     16  C   UNL     1       1.155 -11.496   4.951  0.00  0.00    -0.040 C 
BRANCH  16  17
ATOM     17  C   UNL     1       1.538 -12.832   4.368  0.00  0.00    -0.052 C 
BRANCH  17  18
ATOM     18  N   UNL     1       0.354 -13.465   3.773  0.00  0.00    +0.378 N 
ATOM     19  C   UNL     1      -0.110 -12.662   2.633  0.00  0.00    -0.096 C 
ATOM     20  C   UNL     1       0.701 -14.816   3.312  0.00  0.00    -0.096 C 
ATOM     21  H   UNL     1      -0.379 -13.523   4.464  0.00  0.00    -0.082 HD
ENDBRANCH  17  18
ENDBRANCH  16  17
ENDBRANCH  12  15
ENDBRANCH   4  11
BRANCH   1  22
ATOM     22  N   UNL     1       1.166  -4.838   6.443  0.00  0.00    -0.313 N 
ATOM     23  H   UNL     1       2.117  -4.725   6.288  0.00  0.00    +0.152 HD
BRANCH  22  27
ATOM     24  C   UNL     1      -1.433  -5.279   3.212  0.00  0.00    +0.034 A 
ATOM     25  C   UNL     1      -0.095  -4.979   2.992  0.00  0.00    +0.018 A 
ATOM     26  C   UNL     1       0.766  -4.833   4.061  0.00  0.00    +0.024 A 
ATOM     27  C   UNL     1       0.293  -4.986   5.359  0.00  0.00    +0.033 A 
ATOM     28  C   UNL     1      -1.044  -5.286   5.581  0.00  0.00    +0.044 A 
ATOM     29  C   UNL     1      -1.907  -5.427   4.511  0.00  0.00    +0.057 A 
ATOM     30 CL   UNL     1      -3.581  -5.795   4.788  0.00  0.00    -0.082 Cl
BRANCH  24  31
ATOM     31  S   UNL     1      -2.531  -5.466   1.847  0.00  0.00    -0.050 S 
BRANCH  31  37
ATOM     32  C   UNL     1      -4.434  -7.201  -0.174  0.00  0.00    +0.151 C 
ATOM     33  N   UNL     1      -3.645  -7.833   0.887  0.00  0.00    -0.328 N 
ATOM     34  C   UNL     1      -3.585  -9.178   1.172  0.00  0.00    +0.107 A 
ATOM     35  C   UNL     1      -2.748  -9.322   2.214  0.00  0.00    +0.131 A 
ATOM     36  N   UNL     1      -2.301  -8.105   2.567  0.00  0.00    -0.230 NA
ATOM     37  C   UNL     1      -2.828  -7.202   1.774  0.00  0.00    +0.173 A 
ENDBRANCH  31  37
ENDBRANCH  24  31
ENDBRANCH  22  27
ENDBRANCH   1  22
BRANCH  10  38
ATOM     38  C   UNL     1       0.321  -2.419   7.668  0.00  0.00    +0.103 C 
ATOM     39  N   UNL     1       0.378  -1.425   7.120  0.00  0.00    -0.191 NA
ENDBRANCH  10  38
BRANCH   5  40
ATOM     40  O   UNL     1       0.302  -9.553  10.669  0.00  0.00    -0.493 OA
ATOM     41  C   UNL     1      -0.222  -9.455  11.995  0.00  0.00    +0.277 C 
ENDBRANCH   5  40
TORSDOF 10
