REMARK  Name = CHEMBL434828
REMARK  3 active torsions:
REMARK  status: ('A' for Active; 'I' for Inactive)
REMARK    1  A    between atoms: C_4  and  C_7
REMARK    2  A    between atoms: C_8  and  C_9
REMARK    3  A    between atoms: N_22  and  C_23
REMARK                            x       y       z     vdW  Elec       q    Type
REMARK                         _______ _______ _______ _____ _____    ______ ____
ROOT
ATOM      1  C   UNL     1       3.887  -4.831  -0.181  0.00  0.00    +0.242 C 
ATOM      2  O   UNL     1       3.903  -6.041  -0.051  0.00  0.00    -0.270 OA
ATOM      3  N   UNL     1       5.044  -4.140  -0.200  0.00  0.00    -0.267 N 
ATOM      4  C   UNL     1       6.252  -4.796   0.034  0.00  0.00    +0.126 A 
ATOM      5  C   UNL     1       7.419  -4.056   0.122  0.00  0.00    +0.057 A 
ATOM      6  C   UNL     1       8.617  -4.734   0.357  0.00  0.00    +0.045 A 
ATOM      7  C   UNL     1       8.588  -6.146   0.495  0.00  0.00    +0.094 A 
ATOM      8  C   UNL     1       7.356  -6.805   0.390  0.00  0.00    +0.141 A 
ATOM      9  N   UNL     1       6.258  -6.117   0.174  0.00  0.00    -0.238 NA
ATOM     10  N   UNL     1       9.740  -6.790   0.720  0.00  0.00    -0.234 NA
ATOM     11  C   UNL     1      10.871  -6.134   0.812  0.00  0.00    +0.224 A 
ATOM     12  N   UNL     1      10.973  -4.820   0.694  0.00  0.00    -0.220 NA
ATOM     13  C   UNL     1       9.907  -4.061   0.469  0.00  0.00    +0.134 A 
ATOM     14  N   UNL     1      10.015  -2.691   0.345  0.00  0.00    -0.299 N 
ATOM     15  H   UNL     1       5.036  -3.186  -0.376  0.00  0.00    +0.157 HD
ATOM     16  H   UNL     1       9.216  -2.148   0.258  0.00  0.00    +0.154 HD
ENDROOT
BRANCH  14  17
ATOM     17  C   UNL     1      11.275  -2.086   0.347  0.00  0.00    +0.033 A 
ATOM     18  C   UNL     1      12.369  -2.756  -0.185  0.00  0.00    +0.023 A 
ATOM     19  C   UNL     1      13.613  -2.156  -0.182  0.00  0.00    +0.003 A 
ATOM     20  C   UNL     1      13.770  -0.890   0.351  0.00  0.00    +0.015 A 
ATOM     21  C   UNL     1      12.683  -0.220   0.882  0.00  0.00    +0.020 A 
ATOM     22  C   UNL     1      11.434  -0.812   0.876  0.00  0.00    +0.038 A 
ATOM     23 BR   UNL     1      12.904   1.511   1.611  0.00  0.00    -0.050 Br
ENDBRANCH  14  17
BRANCH   1  25
ATOM     24  C   UNL     1       1.454  -4.818  -0.299  0.00  0.00    +0.013 C 
ATOM     25  C   UNL     1       2.611  -4.126  -0.317  0.00  0.00    +0.068 C 
BRANCH  24  29
ATOM     26  C   UNL     1      -2.244  -2.776  -0.693  0.00  0.00    +0.000 A 
ATOM     27  C   UNL     1      -2.230  -4.152  -0.545  0.00  0.00    +0.001 A 
ATOM     28  C   UNL     1      -1.032  -4.823  -0.417  0.00  0.00    +0.008 A 
ATOM     29  C   UNL     1       0.171  -4.109  -0.436  0.00  0.00    -0.025 A 
ATOM     30  C   UNL     1       0.148  -2.719  -0.585  0.00  0.00    +0.008 A 
ATOM     31  C   UNL     1      -1.058  -2.063  -0.713  0.00  0.00    +0.001 A 
ENDBRANCH  24  29
ENDBRANCH   1  25
TORSDOF 3
