REMARK  Name = CHEMBL593860
REMARK  12 active torsions:
REMARK  status: ('A' for Active; 'I' for Inactive)
REMARK    1  A    between atoms: C_1  and  N_2
REMARK    2  A    between atoms: N_5  and  C_8
REMARK    3  A    between atoms: C_8  and  C_9
REMARK    4  A    between atoms: C_9  and  C_10
REMARK    5  A    between atoms: C_10  and  O_11
REMARK    6  A    between atoms: O_11  and  C_12
REMARK    7  A    between atoms: C_17  and  O_18
REMARK    8  A    between atoms: O_18  and  C_19
REMARK    9  A    between atoms: N_24  and  C_25
REMARK   10  A    between atoms: C_28  and  C_33
REMARK   11  A    between atoms: C_29  and  O_31
REMARK   12  A    between atoms: O_31  and  C_32
REMARK                            x       y       z     vdW  Elec       q    Type
REMARK                         _______ _______ _______ _____ _____    ______ ____
ROOT
ATOM      1  C   UNL     1       1.060  -7.867   3.778  0.00  0.00    +0.164 A 
ATOM      2  C   UNL     1       0.424  -8.700   2.885  0.00  0.00    +0.078 A 
ATOM      3  C   UNL     1       0.288 -10.060   3.187  0.00  0.00    +0.080 A 
ATOM      4  C   UNL     1       0.808 -10.558   4.407  0.00  0.00    +0.044 A 
ATOM      5  C   UNL     1       1.451  -9.691   5.298  0.00  0.00    +0.062 A 
ATOM      6  C   UNL     1       1.577  -8.368   4.981  0.00  0.00    +0.162 A 
ATOM      7  C   UNL     1       0.656 -11.938   4.684  0.00  0.00    +0.134 A 
ATOM      8  N   UNL     1       0.035 -12.693   3.788  0.00  0.00    -0.220 NA
ATOM      9  C   UNL     1      -0.435 -12.184   2.660  0.00  0.00    +0.223 A 
ATOM     10  N   UNL     1      -0.324 -10.914   2.350  0.00  0.00    -0.235 NA
ATOM     11  N   UNL     1       1.141 -12.483   5.856  0.00  0.00    -0.299 N 
ATOM     12  H   UNL     1       1.519 -11.907   6.539  0.00  0.00    +0.154 HD
ENDROOT
BRANCH  11  13
ATOM     13  C   UNL     1       1.089 -13.863   6.058  0.00  0.00    +0.036 A 
ATOM     14  C   UNL     1       1.288 -14.729   4.986  0.00  0.00    +0.024 A 
ATOM     15  C   UNL     1       1.237 -16.091   5.178  0.00  0.00    +0.016 A 
ATOM     16  C   UNL     1       0.986 -16.608   6.451  0.00  0.00    +0.049 A 
ATOM     17  C   UNL     1       0.786 -15.735   7.530  0.00  0.00    +0.132 A 
ATOM     18  C   UNL     1       0.844 -14.367   7.328  0.00  0.00    +0.069 A 
BRANCH  16  19
ATOM     19  C   UNL     1       0.930 -18.068   6.660  0.00  0.00    +0.113 A 
ATOM     20  N   UNL     1       0.703 -18.735   7.771  0.00  0.00    -0.239 NA
ATOM     21  C   UNL     1       0.681 -20.082   7.816  0.00  0.00    +0.079 A 
ATOM     22  C   UNL     1       0.451 -20.916   8.935  0.00  0.00    +0.029 A 
ATOM     23  C   UNL     1       0.463 -22.270   8.810  0.00  0.00    +0.002 A 
ATOM     24  C   UNL     1       0.700 -22.887   7.590  0.00  0.00    +0.001 A 
ATOM     25  C   UNL     1       0.930 -22.108   6.470  0.00  0.00    +0.017 A 
ATOM     26  C   UNL     1       0.919 -20.740   6.586  0.00  0.00    +0.040 A 
ATOM     27  S   UNL     1       1.147 -19.380   5.466  0.00  0.00    -0.067 S 
ENDBRANCH  16  19
BRANCH  17  28
ATOM     28  O   UNL     1       0.542 -16.231   8.770  0.00  0.00    -0.494 OA
ATOM     29  C   UNL     1       0.348 -15.282   9.821  0.00  0.00    +0.277 C 
ENDBRANCH  17  28
ENDBRANCH  11  13
BRANCH   6  30
ATOM     30  O   UNL     1       2.207  -7.527   5.844  0.00  0.00    -0.491 OA
ATOM     31  C   UNL     1       2.712  -8.097   7.053  0.00  0.00    +0.277 C 
ENDBRANCH   6  30
BRANCH   1  32
ATOM     32  O   UNL     1       1.193  -6.546   3.488  0.00  0.00    -0.488 OA
BRANCH  32  33
ATOM     33  C   UNL     1       0.646  -6.096   2.247  0.00  0.00    +0.230 C 
BRANCH  33  34
ATOM     34  C   UNL     1       0.891  -4.594   2.096  0.00  0.00    +0.056 C 
BRANCH  34  35
ATOM     35  C   UNL     1       0.304  -4.112   0.768  0.00  0.00    +0.087 C 
BRANCH  35  40
ATOM     36  C   UNL     1       1.661   1.111  -0.851  0.00  0.00    -0.096 C 
ATOM     37  N   UNL     1       1.449  -0.339  -0.756  0.00  0.00    +0.379 N 
ATOM     38  C   UNL     1       0.014  -0.614  -0.598  0.00  0.00    -0.064 C 
ATOM     39  C   UNL     1      -0.210  -2.125  -0.518  0.00  0.00    +0.066 C 
ATOM     40  N   UNL     1       0.539  -2.669   0.623  0.00  0.00    -0.306 NA
ATOM     41  C   UNL     1       1.974  -2.380   0.491  0.00  0.00    +0.066 C 
ATOM     42  C   UNL     1       2.180  -0.866   0.403  0.00  0.00    -0.064 C 
ATOM     43  H   UNL     1       1.785  -0.784  -1.597  0.00  0.00    -0.082 HD
ENDBRANCH  35  40
ENDBRANCH  34  35
ENDBRANCH  33  34
ENDBRANCH  32  33
ENDBRANCH   1  32
TORSDOF 9
