REMARK  Name = CHEMBL490496
REMARK  7 active torsions:
REMARK  status: ('A' for Active; 'I' for Inactive)
REMARK    1  A    between atoms: C_2  and  C_3
REMARK    2  A    between atoms: C_7  and  C_25
REMARK    3  A    between atoms: C_12  and  C_16
REMARK    4  A    between atoms: C_16  and  C_17
REMARK    5  A    between atoms: C_26  and  C_27
REMARK    6  A    between atoms: C_27  and  C_28
REMARK    7  A    between atoms: C_28  and  N_29
REMARK                            x       y       z     vdW  Elec       q    Type
REMARK                         _______ _______ _______ _____ _____    ______ ____
ROOT
ATOM      1  C   UNL     1       1.285  -0.722  -0.014  0.00  0.00    +0.242 C 
ATOM      2  O   UNL     1       2.330  -0.100  -0.021  0.00  0.00    -0.270 OA
ATOM      3  N   UNL     1       1.304  -2.070  -0.021  0.00  0.00    -0.266 N 
ATOM      4  C   UNL     1       2.515  -2.747  -0.037  0.00  0.00    +0.133 A 
ATOM      5  C   UNL     1       2.518  -4.163  -0.050  0.00  0.00    +0.017 A 
ATOM      6  C   UNL     1       3.726  -4.843  -0.065  0.00  0.00    +0.041 A 
ATOM      7  C   UNL     1       4.910  -4.085  -0.067  0.00  0.00    +0.093 A 
ATOM      8  C   UNL     1       4.825  -2.670  -0.053  0.00  0.00    +0.113 A 
ATOM      9  N   UNL     1       3.637  -2.061  -0.044  0.00  0.00    -0.228 NA
ATOM     10  C   UNL     1       6.028  -1.938  -0.055  0.00  0.00    +0.075 A 
ATOM     11  N   UNL     1       7.167  -2.600  -0.070  0.00  0.00    -0.238 NA
ATOM     12  C   UNL     1       7.202  -3.924  -0.083  0.00  0.00    +0.222 A 
ATOM     13  N   UNL     1       6.117  -4.662  -0.081  0.00  0.00    -0.234 NA
ATOM     14  H   UNL     1       0.470  -2.566  -0.016  0.00  0.00    +0.157 HD
ENDROOT
BRANCH   1  16
ATOM     15  C   UNL     1      -0.016   1.326   0.009  0.00  0.00    +0.013 C 
ATOM     16  C   UNL     1       0.002  -0.004   0.002  0.00  0.00    +0.060 C 
ENDBRANCH   1  16
BRANCH   5  17
ATOM     17  C   UNL     1       1.244  -4.909  -0.048  0.00  0.00    +0.007 C 
ATOM     18  C   UNL     1       1.252  -6.236  -0.060  0.00  0.00    -0.028 C 
BRANCH  18  19
ATOM     19  C   UNL     1      -0.048  -6.997  -0.057  0.00  0.00    +0.008 C 
BRANCH  19  20
ATOM     20  C   UNL     1      -0.079  -7.958  -1.248  0.00  0.00    -0.075 C 
BRANCH  20  21
ATOM     21  N   UNL     1      -1.346  -8.701  -1.245  0.00  0.00    +0.383 N 
ATOM     22  C   UNL     1      -1.409  -9.558  -0.054  0.00  0.00    -0.050 C 
ATOM     23  C   UNL     1      -2.731 -10.330  -0.053  0.00  0.00    +0.141 C 
ATOM     24  O   UNL     1      -2.830 -11.096  -1.257  0.00  0.00    -0.383 OA
ATOM     25  C   UNL     1      -2.749 -10.307  -2.447  0.00  0.00    +0.141 C 
ATOM     26  C   UNL     1      -1.428  -9.534  -2.452  0.00  0.00    -0.050 C 
ATOM     27  H   UNL     1      -2.117  -8.050  -1.233  0.00  0.00    -0.082 HD
ENDBRANCH  20  21
ENDBRANCH  19  20
ENDBRANCH  18  19
ENDBRANCH   5  17
BRANCH  10  28
ATOM     28  C   UNL     1       6.013  -0.431  -0.041  0.00  0.00    +0.093 C 
BRANCH  28  29
ATOM     29  C   UNL     1       6.019   0.058   1.384  0.00  0.00    -0.040 A 
ATOM     30  C   UNL     1       4.824   0.265   2.048  0.00  0.00    +0.007 A 
ATOM     31  C   UNL     1       4.827   0.714   3.355  0.00  0.00    +0.040 A 
ATOM     32  C   UNL     1       6.028   0.956   4.001  0.00  0.00    +0.142 A 
ATOM     33  C   UNL     1       7.225   0.748   3.335  0.00  0.00    +0.076 A 
ATOM     34  C   UNL     1       7.219   0.294   2.028  0.00  0.00    +0.027 A 
ATOM     35 CL   UNL     1       8.732   1.051   4.142  0.00  0.00    -0.081 Cl
ATOM     36  F   UNL     1       6.032   1.394   5.279  0.00  0.00    -0.204 F 
ENDBRANCH  28  29
ENDBRANCH  10  28
TORSDOF 7
