REMARK  Name = CHEMBL415738
REMARK  6 active torsions:
REMARK  status: ('A' for Active; 'I' for Inactive)
REMARK    1  A    between atoms: C_1  and  C_2
REMARK    2  A    between atoms: C_6  and  N_8
REMARK    3  A    between atoms: C_11  and  N_15
REMARK    4  A    between atoms: N_15  and  C_16
REMARK    5  A    between atoms: C_16  and  C_17
REMARK    6  A    between atoms: C_17  and  O_18
REMARK                            x       y       z     vdW  Elec       q    Type
REMARK                         _______ _______ _______ _____ _____    ______ ____
ROOT
ATOM      1  N   UNL     1       0.051  -2.797   2.391  0.00  0.00    -0.301 N 
ATOM      2  C   UNL     1      -0.035  -4.182   2.384  0.00  0.00    +0.105 A 
ATOM      3  C   UNL     1      -0.027  -4.883   1.182  0.00  0.00    +0.085 A 
ATOM      4  C   UNL     1      -0.116  -6.271   1.228  0.00  0.00    +0.124 A 
ATOM      5  N   UNL     1      -0.205  -6.874   2.412  0.00  0.00    -0.223 NA
ATOM      6  C   UNL     1      -0.210  -6.174   3.529  0.00  0.00    +0.199 A 
ATOM      7  N   UNL     1      -0.122  -4.859   3.527  0.00  0.00    -0.334 N 
ATOM      8  H   UNL     1       0.176  -2.324   3.228  0.00  0.00    +0.154 HD
ATOM      9  H   UNL     1      -0.125  -4.379   4.369  0.00  0.00    +0.168 HD
ENDROOT
BRANCH   1  15
ATOM     10  C   UNL     1      -2.065  -2.162  -2.000  0.00  0.00    +0.044 C 
ATOM     11  C   UNL     1      -1.059  -1.755  -0.954  0.00  0.00    -0.049 A 
ATOM     12  C   UNL     1      -0.226  -0.674  -1.181  0.00  0.00    +0.003 A 
ATOM     13  C   UNL     1       0.699  -0.297  -0.225  0.00  0.00    +0.002 A 
ATOM     14  C   UNL     1       0.793  -0.999   0.961  0.00  0.00    +0.023 A 
ATOM     15  C   UNL     1      -0.042  -2.084   1.192  0.00  0.00    +0.033 A 
ATOM     16  C   UNL     1      -0.974  -2.457   0.231  0.00  0.00    +0.026 A 
ENDBRANCH   1  15
BRANCH   4  17
ATOM     17  N   UNL     1      -0.112  -7.015   0.058  0.00  0.00    -0.327 N 
ATOM     18  H   UNL     1      -0.175  -7.982   0.099  0.00  0.00    +0.148 HD
BRANCH  17  19
ATOM     19  C   UNL     1      -0.014  -6.341  -1.238  0.00  0.00    +0.130 C 
BRANCH  19  20
ATOM     20  C   UNL     1      -0.031  -7.384  -2.358  0.00  0.00    +0.174 C 
BRANCH  20  21
ATOM     21  O   UNL     1      -1.297  -8.047  -2.372  0.00  0.00    -0.393 OA
ATOM     22  H   UNL     1      -1.379  -8.724  -3.058  0.00  0.00    +0.209 HD
ENDBRANCH  20  21
ENDBRANCH  19  20
ENDBRANCH  17  19
ENDBRANCH   4  17
TORSDOF 5
