REMARK  Name = CHEMBL255376
REMARK  9 active torsions:
REMARK  status: ('A' for Active; 'I' for Inactive)
REMARK    1  A    between atoms: C_3  and  C_8
REMARK    2  A    between atoms: C_8  and  O_9
REMARK    3  A    between atoms: O_9  and  C_10
REMARK    4  A    between atoms: C_13  and  N_17
REMARK    5  A    between atoms: C_24  and  O_25
REMARK    6  A    between atoms: O_25  and  C_26
REMARK    7  A    between atoms: C_26  and  C_27
REMARK    8  A    between atoms: C_27  and  N_28
REMARK    9  A    between atoms: C_31  and  O_34
REMARK                            x       y       z     vdW  Elec       q    Type
REMARK                         _______ _______ _______ _____ _____    ______ ____
ROOT
ATOM      1  N   UNL     1       8.489   5.248   1.620  0.00  0.00    -0.299 N 
ATOM      2  C   UNL     1       8.845   5.471   2.936  0.00  0.00    +0.141 A 
ATOM      3  C   UNL     1      10.014   6.183   3.256  0.00  0.00    +0.121 A 
ATOM      4  C   UNL     1      10.329   6.381   4.615  0.00  0.00    +0.164 A 
ATOM      5  N   UNL     1      11.493   7.088   4.649  0.00  0.00    -0.257 N 
ATOM      6  H   UNL     1      11.954   7.371   5.454  0.00  0.00    +0.191 HD
ATOM      7  N   UNL     1      11.920   7.340   3.341  0.00  0.00    -0.134 NA
ATOM      8  C   UNL     1      11.076   6.823   2.488  0.00  0.00    +0.246 A 
ATOM      9  N   UNL     1       9.507   5.887   5.541  0.00  0.00    -0.216 NA
ATOM     10  C   UNL     1       8.424   5.228   5.193  0.00  0.00    +0.225 A 
ATOM     11  N   UNL     1       8.087   5.022   3.932  0.00  0.00    -0.220 NA
ATOM     12  H   UNL     1       9.088   5.514   0.904  0.00  0.00    +0.154 HD
ENDROOT
BRANCH   1  16
ATOM     13  C   UNL     1       4.844   3.434   0.723  0.00  0.00    +0.139 A 
ATOM     14  C   UNL     1       4.956   4.252   1.838  0.00  0.00    +0.049 A 
ATOM     15  C   UNL     1       6.163   4.853   2.136  0.00  0.00    +0.027 A 
ATOM     16  C   UNL     1       7.266   4.638   1.319  0.00  0.00    +0.034 A 
ATOM     17  C   UNL     1       7.153   3.820   0.203  0.00  0.00    +0.047 A 
ATOM     18  C   UNL     1       5.946   3.215  -0.091  0.00  0.00    +0.084 A 
ATOM     19 CL   UNL     1       5.806   2.186  -1.482  0.00  0.00    -0.080 Cl
BRANCH  13  20
ATOM     20  O   UNL     1       3.654   2.843   0.431  0.00  0.00    -0.486 OA
BRANCH  20  21
ATOM     21  C   UNL     1       2.562   3.112   1.312  0.00  0.00    +0.264 C 
BRANCH  21  24
ATOM     22  C   UNL     1      -0.043   0.419   0.843  0.00  0.00    +0.003 A 
ATOM     23  C   UNL     1       1.081   1.095   1.282  0.00  0.00    +0.007 A 
ATOM     24  C   UNL     1       1.337   2.377   0.833  0.00  0.00    -0.008 A 
ATOM     25  C   UNL     1       0.469   2.985  -0.054  0.00  0.00    +0.045 A 
ATOM     26  C   UNL     1      -0.656   2.310  -0.494  0.00  0.00    +0.124 A 
ATOM     27  C   UNL     1      -0.911   1.025  -0.044  0.00  0.00    +0.038 A 
ATOM     28  F   UNL     1      -1.505   2.903  -1.361  0.00  0.00    -0.205 F 
ENDBRANCH  21  24
ENDBRANCH  20  21
ENDBRANCH  13  20
ENDBRANCH   1  16
BRANCH   8  29
ATOM     29  O   UNL     1      11.170   6.872   1.133  0.00  0.00    -0.477 OA
BRANCH  29  30
ATOM     30  C   UNL     1      12.300   7.555   0.586  0.00  0.00    +0.212 C 
BRANCH  30  31
ATOM     31  C   UNL     1      12.234   7.506  -0.942  0.00  0.00    -0.037 C 
BRANCH  31  32
ATOM     32  N   UNL     1      11.053   8.246  -1.405  0.00  0.00    +0.382 N 
ATOM     33  C   UNL     1      10.904   8.069  -2.855  0.00  0.00    -0.076 C 
ATOM     34  C   UNL     1       9.630   8.771  -3.330  0.00  0.00    +0.013 C 
ATOM     35  C   UNL     1       9.725  10.264  -3.003  0.00  0.00    +0.111 C 
ATOM     36  C   UNL     1       9.954  10.434  -1.499  0.00  0.00    +0.013 C 
ATOM     37  C   UNL     1      11.216   9.671  -1.091  0.00  0.00    -0.076 C 
ATOM     38  H   UNL     1      10.231   7.892  -0.939  0.00  0.00    -0.082 HD
BRANCH  35  39
ATOM     39  O   UNL     1       8.507  10.913  -3.377  0.00  0.00    -0.392 OA
ATOM     40  H   UNL     1       8.497  11.863  -3.198  0.00  0.00    +0.210 HD
ENDBRANCH  35  39
ENDBRANCH  31  32
ENDBRANCH  30  31
ENDBRANCH  29  30
ENDBRANCH   8  29
TORSDOF 9
