REMARK  Name = CHEMBL474147
REMARK  4 active torsions:
REMARK  status: ('A' for Active; 'I' for Inactive)
REMARK    1  A    between atoms: C_1  and  C_2
REMARK    2  A    between atoms: C_6  and  N_8
REMARK    3  A    between atoms: C_16  and  N_18
REMARK    4  A    between atoms: C_19  and  C_21
REMARK                            x       y       z     vdW  Elec       q    Type
REMARK                         _______ _______ _______ _____ _____    ______ ____
ROOT
ATOM      1  N   UNL     1       0.052  -2.797   2.391  0.00  0.00    -0.302 N 
ATOM      2  C   UNL     1      -0.033  -4.157   2.384  0.00  0.00    +0.116 C 
ATOM      3  N   UNL     1      -0.026  -4.837   1.257  0.00  0.00    -0.224 NA
ATOM      4  C   UNL     1      -0.170  -6.164   1.185  0.00  0.00    +0.223 C 
ATOM      5  N   UNL     1      -0.648  -6.882   2.184  0.00  0.00    -0.239 NA
ATOM      6  C   UNL     1      -0.917  -6.205   3.312  0.00  0.00    +0.059 C 
ATOM      7  C   UNL     1      -1.823  -6.357   4.283  0.00  0.00    +0.026 C 
ATOM      8  C   UNL     1      -1.916  -5.184   5.068  0.00  0.00    +0.022 C 
ATOM      9  C   UNL     1      -0.966  -4.289   4.729  0.00  0.00    +0.027 C 
ATOM     10  C   UNL     1      -0.131  -4.942   3.663  0.00  0.00    +0.145 C 
ATOM     11  H   UNL     1       0.127  -2.320   3.232  0.00  0.00    +0.153 HD
ENDROOT
BRANCH   1  17
ATOM     12  C   UNL     1      -1.529  -2.381  -2.245  0.00  0.00    +0.044 C 
ATOM     13  C   UNL     1      -0.728  -1.865  -1.078  0.00  0.00    -0.049 A 
ATOM     14  C   UNL     1      -0.011  -0.687  -1.199  0.00  0.00    +0.003 A 
ATOM     15  C   UNL     1       0.725  -0.209  -0.131  0.00  0.00    +0.002 A 
ATOM     16  C   UNL     1       0.748  -0.906   1.061  0.00  0.00    +0.023 A 
ATOM     17  C   UNL     1       0.030  -2.089   1.186  0.00  0.00    +0.032 A 
ATOM     18  C   UNL     1      -0.713  -2.564   0.113  0.00  0.00    +0.026 A 
ENDBRANCH   1  17
BRANCH   9  19
ATOM     19  N   UNL     1      -0.791  -3.021   5.259  0.00  0.00    -0.285 N 
ATOM     20  C   UNL     1      -1.623  -2.571   6.218  0.00  0.00    +0.240 C 
ATOM     21  O   UNL     1      -2.528  -3.278   6.620  0.00  0.00    -0.271 OA
ATOM     22  H   UNL     1      -0.069  -2.457   4.939  0.00  0.00    +0.155 HD
BRANCH  20  23
ATOM     23  C   UNL     1      -1.437  -1.225   6.780  0.00  0.00    +0.060 C 
ATOM     24  C   UNL     1      -2.258  -0.780   7.728  0.00  0.00    +0.013 C 
ENDBRANCH  20  23
ENDBRANCH   9  19
TORSDOF 3
