REMARK  Name = CHEMBL338049
REMARK  6 active torsions:
REMARK  status: ('A' for Active; 'I' for Inactive)
REMARK    1  A    between atoms: C_1  and  C_2
REMARK    2  A    between atoms: C_3  and  O_39
REMARK    3  A    between atoms: C_5  and  N_37
REMARK    4  A    between atoms: C_34  and  O_36
REMARK    5  A    between atoms: N_37  and  C_38
REMARK    6  A    between atoms: O_39  and  C_40
REMARK                            x       y       z     vdW  Elec       q    Type
REMARK                         _______ _______ _______ _____ _____    ______ ____
ROOT
ATOM      1  C   UNL     1      -0.019   1.526   0.010  0.00  0.00    +0.069 C 
ATOM      2  C   UNL     1       0.002  -0.004   0.002  0.00  0.00    +0.174 C 
ATOM      3  C   UNL     1      -1.444  -0.472   0.115  0.00  0.00    +0.187 C 
ATOM      4  C   UNL     1      -1.470  -1.974   0.417  0.00  0.00    +0.091 C 
ATOM      5  C   UNL     1      -0.727  -2.208   1.737  0.00  0.00    +0.076 C 
ATOM      6  C   UNL     1       0.710  -1.719   1.602  0.00  0.00    +0.224 C 
ATOM      7  O   UNL     1       0.791  -0.414   1.096  0.00  0.00    -0.328 OA
ATOM      8  N   UNL     1       1.503  -2.664   0.815  0.00  0.00    -0.311 N 
ATOM      9  C   UNL     1       2.122  -3.796   1.284  0.00  0.00    +0.052 A 
ATOM     10  C   UNL     1       2.174  -4.338   2.568  0.00  0.00    +0.026 A 
ATOM     11  C   UNL     1       2.893  -5.510   2.728  0.00  0.00    +0.002 A 
ATOM     12  C   UNL     1       3.536  -6.132   1.672  0.00  0.00    +0.001 A 
ATOM     13  C   UNL     1       3.500  -5.615   0.389  0.00  0.00    +0.010 A 
ATOM     14  C   UNL     1       2.781  -4.431   0.206  0.00  0.00    +0.008 A 
ATOM     15  C   UNL     1       2.534  -3.614  -0.978  0.00  0.00    +0.022 A 
ATOM     16  C   UNL     1       1.750  -2.540  -0.549  0.00  0.00    +0.077 A 
ATOM     17  C   UNL     1       1.347  -1.558  -1.461  0.00  0.00    +0.077 A 
ATOM     18  N   UNL     1       0.567  -0.419  -1.283  0.00  0.00    -0.307 N 
ATOM     19  C   UNL     1       0.436   0.243  -2.480  0.00  0.00    +0.053 A 
ATOM     20  C   UNL     1      -0.230   1.428  -2.793  0.00  0.00    +0.026 A 
ATOM     21  C   UNL     1      -0.181   1.850  -4.111  0.00  0.00    +0.002 A 
ATOM     22  C   UNL     1       0.493   1.139  -5.088  0.00  0.00    +0.001 A 
ATOM     23  C   UNL     1       1.161  -0.041  -4.802  0.00  0.00    +0.010 A 
ATOM     24  C   UNL     1       1.123  -0.480  -3.479  0.00  0.00    +0.008 A 
ATOM     25  C   UNL     1       1.728  -1.653  -2.809  0.00  0.00    +0.018 A 
ATOM     26  C   UNL     1       2.501  -2.728  -3.235  0.00  0.00    +0.021 A 
ATOM     27  C   UNL     1       2.908  -3.710  -2.338  0.00  0.00    +0.054 A 
ATOM     28  C   UNL     1       3.700  -4.709  -3.072  0.00  0.00    +0.247 C 
ATOM     29  O   UNL     1       4.202  -5.699  -2.574  0.00  0.00    -0.270 OA
ATOM     30  N   UNL     1       3.791  -4.374  -4.370  0.00  0.00    -0.282 N 
ATOM     31  C   UNL     1       3.059  -3.121  -4.582  0.00  0.00    +0.235 C 
ATOM     32  H   UNL     1       4.262  -4.877  -5.053  0.00  0.00    +0.152 HD
ENDROOT
BRANCH   4  33
ATOM     33  N   UNL     1      -0.804  -2.709  -0.666  0.00  0.00    -0.314 NA
ATOM     34  C   UNL     1      -1.296  -4.091  -0.745  0.00  0.00    +0.101 C 
ATOM     35  H   UNL     1      -0.917  -2.234  -1.549  0.00  0.00    +0.122 HD
ENDBRANCH   4  33
BRANCH  31  36
ATOM     36  O   UNL     1       3.946  -2.108  -5.060  0.00  0.00    -0.370 OA
ATOM     37  H   UNL     1       4.337  -2.303  -5.922  0.00  0.00    +0.212 HD
ENDBRANCH  31  36
BRANCH   3  38
ATOM     38  O   UNL     1      -2.124  -0.220  -1.116  0.00  0.00    -0.373 OA
ATOM     39  C   UNL     1      -3.522   0.034  -0.966  0.00  0.00    +0.194 C 
ENDBRANCH   3  38
TORSDOF 3
