REMARK  Name = CHEMBL420059
REMARK  8 active torsions:
REMARK  status: ('A' for Active; 'I' for Inactive)
REMARK    1  A    between atoms: C_1  and  O_2
REMARK    2  A    between atoms: O_2  and  C_3
REMARK    3  A    between atoms: C_8  and  O_9
REMARK    4  A    between atoms: O_9  and  C_10
REMARK    5  A    between atoms: C_10  and  C_11
REMARK    6  A    between atoms: C_11  and  N_12
REMARK    7  A    between atoms: N_22  and  C_23
REMARK    8  A    between atoms: C_25  and  C_26
REMARK                            x       y       z     vdW  Elec       q    Type
REMARK                         _______ _______ _______ _____ _____    ______ ____
ROOT
ATOM      1  C   UNL     1       0.722  -0.745  -1.262  0.00  0.00    +0.164 A 
ATOM      2  C   UNL     1       1.274  -0.041  -2.310  0.00  0.00    +0.078 A 
ATOM      3  C   UNL     1       1.811  -0.736  -3.401  0.00  0.00    +0.080 A 
ATOM      4  C   UNL     1       1.779  -2.152  -3.409  0.00  0.00    +0.044 A 
ATOM      5  C   UNL     1       1.213  -2.844  -2.331  0.00  0.00    +0.062 A 
ATOM      6  C   UNL     1       0.699  -2.147  -1.275  0.00  0.00    +0.163 A 
ATOM      7  C   UNL     1       2.331  -2.826  -4.524  0.00  0.00    +0.130 A 
ATOM      8  N   UNL     1       2.849  -2.098  -5.504  0.00  0.00    -0.220 NA
ATOM      9  C   UNL     1       2.856  -0.775  -5.453  0.00  0.00    +0.223 A 
ATOM     10  N   UNL     1       2.360  -0.097  -4.446  0.00  0.00    -0.235 NA
ATOM     11  N   UNL     1       2.330  -4.204  -4.591  0.00  0.00    -0.325 N 
ATOM     12  H   UNL     1       1.948  -4.724  -3.867  0.00  0.00    +0.148 HD
ENDROOT
BRANCH  11  13
ATOM     13  C   UNL     1       2.906  -4.882  -5.755  0.00  0.00    +0.080 C 
ATOM     14  C   UNL     1       3.794  -6.100  -5.495  0.00  0.00    +0.032 C 
ATOM     15  C   UNL     1       2.393  -6.286  -6.080  0.00  0.00    +0.041 C 
BRANCH  15  16
ATOM     16  C   UNL     1       2.291  -6.670  -7.534  0.00  0.00    -0.042 A 
ATOM     17  C   UNL     1       3.422  -6.673  -8.329  0.00  0.00    +0.004 A 
ATOM     18  C   UNL     1       3.329  -7.025  -9.662  0.00  0.00    +0.000 A 
ATOM     19  C   UNL     1       2.105  -7.374 -10.201  0.00  0.00    +0.000 A 
ATOM     20  C   UNL     1       0.974  -7.372  -9.406  0.00  0.00    +0.000 A 
ATOM     21  C   UNL     1       1.068  -7.024  -8.072  0.00  0.00    +0.004 A 
ENDBRANCH  15  16
ENDBRANCH  11  13
BRANCH   1  23
ATOM     22  C   UNL     1       0.254   1.353  -0.249  0.00  0.00    +0.277 C 
ATOM     23  O   UNL     1       0.200  -0.074  -0.203  0.00  0.00    -0.491 OA
ENDBRANCH   1  23
BRANCH   6  24
ATOM     24  O   UNL     1       0.154  -2.820  -0.226  0.00  0.00    -0.490 OA
BRANCH  24  25
ATOM     25  C   UNL     1       0.160  -4.247  -0.298  0.00  0.00    +0.211 C 
BRANCH  25  26
ATOM     26  C   UNL     1      -0.490  -4.823   0.962  0.00  0.00    -0.037 C 
BRANCH  26  27
ATOM     27  N   UNL     1      -1.901  -4.419   1.014  0.00  0.00    +0.385 N 
ATOM     28  C   UNL     1      -2.487  -4.849   2.291  0.00  0.00    -0.050 C 
ATOM     29  C   UNL     1      -3.957  -4.426   2.343  0.00  0.00    +0.141 C 
ATOM     30  O   UNL     1      -4.651  -4.994   1.228  0.00  0.00    -0.383 OA
ATOM     31  C   UNL     1      -4.102  -4.623  -0.039  0.00  0.00    +0.141 C 
ATOM     32  C   UNL     1      -2.632  -5.046  -0.096  0.00  0.00    -0.050 C 
ATOM     33  H   UNL     1      -1.966  -3.415   0.935  0.00  0.00    -0.081 HD
ENDBRANCH  26  27
ENDBRANCH  25  26
ENDBRANCH  24  25
ENDBRANCH   6  24
TORSDOF 7
