REMARK  Name = CHEMBL509914
REMARK  5 active torsions:
REMARK  status: ('A' for Active; 'I' for Inactive)
REMARK    1  A    between atoms: C_4  and  C_7
REMARK    2  A    between atoms: C_8  and  C_9
REMARK    3  A    between atoms: C_9  and  C_11
REMARK    4  A    between atoms: C_11  and  C_12
REMARK    5  A    between atoms: N_22  and  C_23
REMARK                            x       y       z     vdW  Elec       q    Type
REMARK                         _______ _______ _______ _____ _____    ______ ____
ROOT
ATOM      1  C   UNL     1       6.624  -4.215   0.327  0.00  0.00    +0.049 A 
ATOM      2  C   UNL     1       6.975  -5.236   1.163  0.00  0.00    +0.037 A 
ATOM      3  C   UNL     1       8.233  -5.828   1.003  0.00  0.00    +0.044 A 
ATOM      4  C   UNL     1       9.087  -5.340  -0.019  0.00  0.00    +0.094 A 
ATOM      5  C   UNL     1       8.632  -4.287  -0.824  0.00  0.00    +0.139 A 
ATOM      6  N   UNL     1       7.436  -3.780  -0.623  0.00  0.00    -0.257 NA
ATOM      7  N   UNL     1      10.291  -5.906  -0.175  0.00  0.00    -0.234 NA
ATOM      8  C   UNL     1      10.667  -6.891   0.606  0.00  0.00    +0.224 A 
ATOM      9  N   UNL     1       9.905  -7.379   1.573  0.00  0.00    -0.220 NA
ATOM     10  C   UNL     1       8.695  -6.892   1.815  0.00  0.00    +0.134 A 
ATOM     11  N   UNL     1       7.911  -7.408   2.825  0.00  0.00    -0.299 N 
ATOM     12  H   UNL     1       6.997  -7.100   2.934  0.00  0.00    +0.154 HD
ENDROOT
BRANCH  11  13
ATOM     13  C   UNL     1       8.431  -8.374   3.690  0.00  0.00    +0.033 A 
ATOM     14  C   UNL     1       9.772  -8.334   4.051  0.00  0.00    +0.023 A 
ATOM     15  C   UNL     1      10.284  -9.290   4.907  0.00  0.00    +0.003 A 
ATOM     16  C   UNL     1       9.464 -10.287   5.403  0.00  0.00    +0.015 A 
ATOM     17  C   UNL     1       8.128 -10.329   5.046  0.00  0.00    +0.020 A 
ATOM     18  C   UNL     1       7.608  -9.372   4.195  0.00  0.00    +0.038 A 
ATOM     19 BR   UNL     1       7.010 -11.694   5.727  0.00  0.00    -0.050 Br
ENDBRANCH  11  13
BRANCH   1  20
ATOM     20  C   UNL     1       5.272  -3.568   0.488  0.00  0.00    +0.134 C 
BRANCH  20  21
ATOM     21  C   UNL     1       5.443  -2.082   0.662  0.00  0.00    +0.162 C 
ATOM     22  O   UNL     1       6.555  -1.594   0.657  0.00  0.00    -0.292 OA
BRANCH  21  24
ATOM     23  C   UNL     1       4.466   0.079   0.989  0.00  0.00    +0.011 C 
ATOM     24  C   UNL     1       4.312  -1.256   0.832  0.00  0.00    +0.047 C 
BRANCH  23  28
ATOM     25  C   UNL     1       1.065   2.560   1.497  0.00  0.00    +0.000 A 
ATOM     26  C   UNL     1       2.330   3.120   1.493  0.00  0.00    +0.001 A 
ATOM     27  C   UNL     1       3.441   2.321   1.328  0.00  0.00    +0.008 A 
ATOM     28  C   UNL     1       3.287   0.939   1.165  0.00  0.00    -0.025 A 
ATOM     29  C   UNL     1       2.003   0.381   1.172  0.00  0.00    +0.008 A 
ATOM     30  C   UNL     1       0.903   1.195   1.337  0.00  0.00    +0.001 A 
ENDBRANCH  23  28
ENDBRANCH  21  24
ENDBRANCH  20  21
ENDBRANCH   1  20
TORSDOF 5
