REMARK  Name = CHEMBL179074
REMARK  14 active torsions:
REMARK  status: ('A' for Active; 'I' for Inactive)
REMARK    1  A    between atoms: C_1  and  C_2
REMARK    2  A    between atoms: C_2  and  O_3
REMARK    3  A    between atoms: O_3  and  C_4
REMARK    4  A    between atoms: C_9  and  N_10
REMARK    5  A    between atoms: C_11  and  C_13
REMARK    6  A    between atoms: C_14  and  C_15
REMARK    7  A    between atoms: C_15  and  N_16
REMARK    8  A    between atoms: N_16  and  C_17
REMARK    9  A    between atoms: N_16  and  C_18
REMARK   10  A    between atoms: C_19  and  N_25
REMARK   11  A    between atoms: C_20  and  C_23
REMARK   12  A    between atoms: N_25  and  C_26
REMARK   13  A    between atoms: C_29  and  C_33
REMARK   14  A    between atoms: C_33  and  N_34
REMARK                            x       y       z     vdW  Elec       q    Type
REMARK                         _______ _______ _______ _____ _____    ______ ____
ROOT
ATOM      1  C   UNL     1      -2.088  -3.791  -0.654  0.00  0.00    +0.144 A 
ATOM      2  C   UNL     1      -1.221  -4.117   0.364  0.00  0.00    +0.076 A 
ATOM      3  C   UNL     1      -0.009  -4.761   0.072  0.00  0.00    +0.076 A 
ATOM      4  C   UNL     1       0.305  -5.068  -1.274  0.00  0.00    +0.025 A 
ATOM      5  C   UNL     1      -0.591  -4.728  -2.298  0.00  0.00    +0.039 A 
ATOM      6  C   UNL     1      -1.776  -4.101  -1.987  0.00  0.00    +0.077 A 
ATOM      7  C   UNL     1       1.528  -5.717  -1.563  0.00  0.00    +0.060 A 
ATOM      8  C   UNL     1       2.375  -6.027  -0.487  0.00  0.00    +0.091 A 
ATOM      9  C   UNL     1       1.982  -5.685   0.817  0.00  0.00    +0.132 A 
ATOM     10  N   UNL     1       0.844  -5.085   1.055  0.00  0.00    -0.253 NA
ENDROOT
BRANCH   6  11
ATOM     11  N   UNL     1      -2.675  -3.766  -3.007  0.00  0.00    -0.279 N 
ATOM     12  C   UNL     1      -2.218  -3.506  -4.248  0.00  0.00    +0.241 C 
ATOM     13  O   UNL     1      -1.040  -3.663  -4.508  0.00  0.00    -0.271 OA
ATOM     14  H   UNL     1      -3.625  -3.720  -2.820  0.00  0.00    +0.155 HD
BRANCH  12  15
ATOM     15  C   UNL     1      -3.144  -3.034  -5.288  0.00  0.00    +0.064 C 
ATOM     16  C   UNL     1      -2.694  -2.777  -6.513  0.00  0.00    -0.007 C 
BRANCH  16  17
ATOM     17  C   UNL     1      -3.643  -2.293  -7.579  0.00  0.00    +0.111 C 
BRANCH  17  18
ATOM     18  N   UNL     1      -3.143  -1.033  -8.144  0.00  0.00    -0.305 NA
ATOM     19  C   UNL     1      -3.906  -0.652  -9.340  0.00  0.00    +0.104 C 
ATOM     20  C   UNL     1      -3.166   0.040  -7.141  0.00  0.00    +0.104 C 
ENDBRANCH  17  18
ENDBRANCH  16  17
ENDBRANCH  12  15
ENDBRANCH   6  11
BRANCH   8  21
ATOM     21  C   UNL     1       3.626  -6.685  -0.718  0.00  0.00    +0.103 C 
ATOM     22  N   UNL     1       4.618  -7.207  -0.900  0.00  0.00    -0.191 NA
ENDBRANCH   8  21
BRANCH   7  23
ATOM     23  N   UNL     1       1.877  -6.037  -2.860  0.00  0.00    -0.313 N 
ATOM     24  H   UNL     1       2.243  -5.355  -3.445  0.00  0.00    +0.152 HD
BRANCH  23  25
ATOM     25  C   UNL     1       1.703  -7.341  -3.329  0.00  0.00    +0.033 A 
ATOM     26  C   UNL     1       0.857  -8.216  -2.658  0.00  0.00    +0.023 A 
ATOM     27  C   UNL     1       0.687  -9.504  -3.124  0.00  0.00    +0.008 A 
ATOM     28  C   UNL     1       1.357  -9.926  -4.258  0.00  0.00    -0.009 A 
ATOM     29  C   UNL     1       2.201  -9.058  -4.929  0.00  0.00    +0.048 A 
ATOM     30  C   UNL     1       2.371  -7.765  -4.471  0.00  0.00    +0.043 A 
ATOM     31 CL   UNL     1       3.041  -9.592  -6.351  0.00  0.00    -0.083 Cl
BRANCH  28  32
ATOM     32  C   UNL     1       1.169 -11.333  -4.763  0.00  0.00    +0.159 C 
BRANCH  32  33
ATOM     33  N   UNL     1       0.219 -11.329  -5.877  0.00  0.00    -0.332 N 
ATOM     34  C   UNL     1      -1.140 -11.465  -5.786  0.00  0.00    +0.107 A 
ATOM     35  C   UNL     1      -1.623 -11.404  -7.042  0.00  0.00    +0.130 A 
ATOM     36  N   UNL     1      -0.587 -11.236  -7.877  0.00  0.00    -0.244 NA
ATOM     37  C   UNL     1       0.519 -11.185  -7.186  0.00  0.00    +0.199 A 
ENDBRANCH  32  33
ENDBRANCH  28  32
ENDBRANCH  23  25
ENDBRANCH   7  23
BRANCH   1  38
ATOM     38  O   UNL     1      -3.259  -3.167  -0.365  0.00  0.00    -0.490 OA
BRANCH  38  40
ATOM     39  C   UNL     1      -4.874  -2.181   1.138  0.00  0.00    +0.048 C 
ATOM     40  C   UNL     1      -3.519  -2.878   1.010  0.00  0.00    +0.226 C 
ENDBRANCH  38  40
ENDBRANCH   1  38
TORSDOF 11
