REMARK  Name = CHEMBL153525
REMARK  1 active torsions:
REMARK  status: ('A' for Active; 'I' for Inactive)
REMARK    1  A    between atoms: C_3  and  N_8
REMARK                            x       y       z     vdW  Elec       q    Type
REMARK                         _______ _______ _______ _____ _____    ______ ____
ROOT
ATOM      1  N   UNL     1       3.583   2.124  -0.021  0.00  0.00    -0.299 N 
ATOM      2  C   UNL     1       4.786   1.452   0.068  0.00  0.00    +0.136 A 
ATOM      3  C   UNL     1       6.004   2.158   0.173  0.00  0.00    +0.064 A 
ATOM      4  C   UNL     1       7.205   1.415   0.262  0.00  0.00    +0.078 A 
ATOM      5  C   UNL     1       8.436   2.085   0.367  0.00  0.00    +0.029 A 
ATOM      6  C   UNL     1       8.478   3.442   0.384  0.00  0.00    +0.012 A 
ATOM      7  C   UNL     1       7.298   4.199   0.297  0.00  0.00    +0.000 A 
ATOM      8  C   UNL     1       6.053   3.565   0.191  0.00  0.00    +0.059 A 
ATOM      9  N   UNL     1       5.098   4.546   0.124  0.00  0.00    -0.360 N 
ATOM     10  H   UNL     1       4.144   4.390   0.046  0.00  0.00    +0.165 HD
ATOM     11  C   UNL     1       5.689   5.778   0.184  0.00  0.00    +0.083 A 
ATOM     12  C   UNL     1       7.021   5.637   0.289  0.00  0.00    +0.027 A 
ATOM     13  N   UNL     1       7.134   0.076   0.242  0.00  0.00    -0.235 NA
ATOM     14  C   UNL     1       5.974  -0.529   0.143  0.00  0.00    +0.223 A 
ATOM     15  N   UNL     1       4.827   0.125   0.063  0.00  0.00    -0.220 NA
ATOM     16  H   UNL     1       3.571   3.092  -0.074  0.00  0.00    +0.154 HD
ENDROOT
BRANCH   1  19
ATOM     17  C   UNL     1       0.066   1.226   0.561  0.00  0.00    +0.003 A 
ATOM     18  C   UNL     1       1.251   1.935   0.576  0.00  0.00    +0.023 A 
ATOM     19  C   UNL     1       2.382   1.409  -0.035  0.00  0.00    +0.033 A 
ATOM     20  C   UNL     1       2.317   0.170  -0.659  0.00  0.00    +0.038 A 
ATOM     21  C   UNL     1       1.128  -0.535  -0.671  0.00  0.00    +0.020 A 
ATOM     22  C   UNL     1       0.004  -0.006  -0.061  0.00  0.00    +0.015 A 
ATOM     23 BR   UNL     1       1.038  -2.221  -1.521  0.00  0.00    -0.050 Br
ENDBRANCH   1  19
TORSDOF 1
