REMARK  Name = CHEMBL250523
REMARK  8 active torsions:
REMARK  status: ('A' for Active; 'I' for Inactive)
REMARK    1  A    between atoms: C_1  and  O_2
REMARK    2  A    between atoms: O_2  and  C_3
REMARK    3  A    between atoms: C_8  and  O_9
REMARK    4  A    between atoms: O_9  and  C_10
REMARK    5  A    between atoms: C_14  and  C_15
REMARK    6  A    between atoms: C_16  and  C_17
REMARK    7  A    between atoms: C_17  and  O_18
REMARK    8  A    between atoms: O_18  and  C_19
REMARK                            x       y       z     vdW  Elec       q    Type
REMARK                         _______ _______ _______ _____ _____    ______ ____
ROOT
ATOM      1  C   UNL     1      -1.201  -0.638   0.010  0.00  0.00    +0.162 A 
ATOM      2  C   UNL     1      -2.352   0.098   0.019  0.00  0.00    +0.062 A 
ATOM      3  C   UNL     1      -3.589  -0.556   0.028  0.00  0.00    +0.038 A 
ATOM      4  C   UNL     1      -3.637  -1.974   0.026  0.00  0.00    +0.079 A 
ATOM      5  C   UNL     1      -2.441  -2.703   0.017  0.00  0.00    +0.077 A 
ATOM      6  C   UNL     1      -1.246  -2.040   0.003  0.00  0.00    +0.164 A 
ATOM      7  N   UNL     1      -4.835  -2.577   0.034  0.00  0.00    -0.235 NA
ATOM      8  C   UNL     1      -5.939  -1.867   0.043  0.00  0.00    +0.223 A 
ATOM      9  N   UNL     1      -5.946  -0.545   0.044  0.00  0.00    -0.227 NA
ATOM     10  C   UNL     1      -4.815   0.155   0.037  0.00  0.00    +0.124 A 
ENDROOT
BRANCH   1  12
ATOM     11  C   UNL     1      -0.017   1.425   0.010  0.00  0.00    +0.277 C 
ATOM     12  O   UNL     1       0.002  -0.004   0.002  0.00  0.00    -0.491 OA
ENDBRANCH   1  12
BRANCH   6  13
ATOM     13  O   UNL     1      -0.087  -2.748  -0.012  0.00  0.00    -0.491 OA
ATOM     14  C   UNL     1      -0.197  -4.172  -0.019  0.00  0.00    +0.277 C 
ENDBRANCH   6  13
BRANCH  10  15
ATOM     15  C   UNL     1      -4.836   1.587   0.039  0.00  0.00    -0.042 C 
ATOM     16  C   UNL     1      -4.853   2.761   0.040  0.00  0.00    -0.055 C 
BRANCH  16  17
ATOM     17  C   UNL     1      -4.874   4.233   0.042  0.00  0.00    +0.318 C 
BRANCH  17  18
ATOM     18  O   UNL     1      -6.228   4.689   0.052  0.00  0.00    -0.480 OA
BRANCH  18  19
ATOM     19  C   UNL     1      -6.426   6.034   0.055  0.00  0.00    +0.122 A 
ATOM     20  C   UNL     1      -5.339   6.896   0.043  0.00  0.00    +0.046 A 
ATOM     21  C   UNL     1      -5.543   8.262   0.045  0.00  0.00    +0.004 A 
ATOM     22  C   UNL     1      -6.828   8.771   0.061  0.00  0.00    +0.000 A 
ATOM     23  C   UNL     1      -7.913   7.914   0.073  0.00  0.00    +0.004 A 
ATOM     24  C   UNL     1      -7.715   6.547   0.065  0.00  0.00    +0.046 A 
ENDBRANCH  18  19
ENDBRANCH  17  18
ENDBRANCH  16  17
ENDBRANCH  10  15
TORSDOF 6
