REMARK  Name = CHEMBL312482
REMARK  5 active torsions:
REMARK  status: ('A' for Active; 'I' for Inactive)
REMARK    1  A    between atoms: C_3  and  C_14
REMARK    2  A    between atoms: C_6  and  C_7
REMARK    3  A    between atoms: C_7  and  N_8
REMARK    4  A    between atoms: C_19  and  N_23
REMARK    5  A    between atoms: N_23  and  C_24
REMARK                            x       y       z     vdW  Elec       q    Type
REMARK                         _______ _______ _______ _____ _____    ______ ____
ROOT
ATOM      1  C   UNL     1       3.561   2.400  -1.199  0.00  0.00    +0.022 A 
ATOM      2  C   UNL     1       4.811   1.958  -1.490  0.00  0.00    +0.044 A 
ATOM      3  C   UNL     1       5.920   2.801  -1.286  0.00  0.00    +0.080 A 
ATOM      4  C   UNL     1       5.619   4.081  -0.775  0.00  0.00    +0.059 A 
ATOM      5  S   UNL     1       3.852   4.060  -0.613  0.00  0.00    -0.085 S 
ATOM      6  C   UNL     1       6.607   5.018  -0.523  0.00  0.00    +0.049 A 
ATOM      7  C   UNL     1       7.929   4.661  -0.790  0.00  0.00    +0.044 A 
ATOM      8  C   UNL     1       8.180   3.395  -1.290  0.00  0.00    +0.113 A 
ATOM      9  N   UNL     1       7.225   2.529  -1.519  0.00  0.00    -0.254 NA
ENDROOT
BRANCH   1  12
ATOM     10  C   UNL     1      -0.117   1.641  -1.123  0.00  0.00    +0.005 A 
ATOM     11  C   UNL     1       1.080   2.314  -0.990  0.00  0.00    +0.009 A 
ATOM     12  C   UNL     1       2.274   1.684  -1.340  0.00  0.00    -0.011 A 
ATOM     13  C   UNL     1       2.250   0.375  -1.823  0.00  0.00    +0.009 A 
ATOM     14  C   UNL     1       1.046  -0.287  -1.952  0.00  0.00    +0.005 A 
ATOM     15  C   UNL     1      -0.135   0.344  -1.603  0.00  0.00    -0.033 A 
BRANCH  15  16
ATOM     16  C   UNL     1      -1.446  -0.386  -1.746  0.00  0.00    +0.119 C 
BRANCH  16  17
ATOM     17  N   UNL     1      -1.998  -0.143  -3.086  0.00  0.00    -0.294 NA
ATOM     18  C   UNL     1      -2.370   1.269  -3.254  0.00  0.00    +0.113 C 
ATOM     19  C   UNL     1      -2.884   1.489  -4.679  0.00  0.00    +0.175 C 
ATOM     20  O   UNL     1      -3.981   0.606  -4.927  0.00  0.00    -0.377 OA
ATOM     21  C   UNL     1      -3.653  -0.777  -4.773  0.00  0.00    +0.175 C 
ATOM     22  C   UNL     1      -3.147  -1.020  -3.349  0.00  0.00    +0.113 C 
ENDBRANCH  16  17
ENDBRANCH  15  16
ENDBRANCH   1  12
BRANCH   6  23
ATOM     23  N   UNL     1       6.291   6.278  -0.019  0.00  0.00    -0.314 N 
ATOM     24  H   UNL     1       5.383   6.474   0.262  0.00  0.00    +0.152 HD
BRANCH  23  25
ATOM     25  C   UNL     1       7.283   7.260   0.082  0.00  0.00    +0.032 A 
ATOM     26  C   UNL     1       8.208   7.422  -0.948  0.00  0.00    +0.025 A 
ATOM     27  C   UNL     1       9.190   8.383  -0.864  0.00  0.00    +0.028 A 
ATOM     28  C   UNL     1       9.265   9.204   0.256  0.00  0.00    +0.047 A 
ATOM     29  C   UNL     1       8.334   9.045   1.298  0.00  0.00    +0.001 A 
ATOM     30  C   UNL     1       7.338   8.071   1.200  0.00  0.00    +0.033 A 
ATOM     31  C   UNL     1       8.682  10.045   2.310  0.00  0.00    +0.027 A 
ATOM     32  C   UNL     1       9.748  10.717   1.848  0.00  0.00    +0.083 A 
ATOM     33  N   UNL     1      10.112  10.230   0.622  0.00  0.00    -0.361 N 
ATOM     34  H   UNL     1      10.854  10.557   0.090  0.00  0.00    +0.165 HD
ENDBRANCH  23  25
ENDBRANCH   6  23
TORSDOF 5
