REMARK  Name = CHEMBL610365
REMARK  13 active torsions:
REMARK  status: ('A' for Active; 'I' for Inactive)
REMARK    1  A    between atoms: C_3  and  O_12
REMARK    2  A    between atoms: C_6  and  C_7
REMARK    3  A    between atoms: C_8  and  N_9
REMARK    4  A    between atoms: O_12  and  S_13
REMARK    5  A    between atoms: S_13  and  C_16
REMARK    6  A    between atoms: C_19  and  C_22
REMARK    7  A    between atoms: C_22  and  O_24
REMARK    8  A    between atoms: O_24  and  C_25
REMARK    9  A    between atoms: C_25  and  C_26
REMARK   10  A    between atoms: C_28  and  O_45
REMARK   11  A    between atoms: C_30  and  O_44
REMARK   12  A    between atoms: C_32  and  N_34
REMARK   13  A    between atoms: C_42  and  N_43
REMARK                            x       y       z     vdW  Elec       q    Type
REMARK                         _______ _______ _______ _____ _____    ______ ____
ROOT
ATOM      1  C   UNL     1       6.413  -2.671   3.545  0.00  0.00    +0.339 C 
ATOM      2  O   UNL     1       5.714  -3.433   4.183  0.00  0.00    -0.245 OA
ENDROOT
BRANCH   1   6
ATOM      3  C   UNL     1       4.772   0.931   2.005  0.00  0.00    +0.128 A 
ATOM      4  C   UNL     1       3.973   0.065   2.730  0.00  0.00    +0.031 A 
ATOM      5  C   UNL     1       4.499  -1.107   3.233  0.00  0.00    +0.017 A 
ATOM      6  C   UNL     1       5.842  -1.418   3.009  0.00  0.00    +0.059 A 
ATOM      7  C   UNL     1       6.643  -0.540   2.276  0.00  0.00    +0.017 A 
ATOM      8  C   UNL     1       6.102   0.626   1.774  0.00  0.00    +0.031 A 
BRANCH   3   9
ATOM      9  S   UNL     1       4.091   2.425   1.366  0.00  0.00    +0.151 S 
ATOM     10  O   UNL     1       5.179   3.321   1.183  0.00  0.00    -0.131 OA
ATOM     11  O   UNL     1       2.971   2.742   2.181  0.00  0.00    -0.131 OA
BRANCH   9  12
ATOM     12  O   UNL     1       3.547   2.114  -0.021  0.00  0.00    -0.342 OA
BRANCH  12  15
ATOM     13  C   UNL     1      -0.017   1.392   0.010  0.00  0.00    +0.011 A 
ATOM     14  C   UNL     1       1.169   2.095   0.002  0.00  0.00    +0.049 A 
ATOM     15  C   UNL     1       2.380   1.417  -0.013  0.00  0.00    +0.157 A 
ATOM     16  C   UNL     1       2.403   0.029  -0.021  0.00  0.00    +0.049 A 
ATOM     17  C   UNL     1       1.222  -0.682  -0.014  0.00  0.00    +0.011 A 
ATOM     18  C   UNL     1       0.002  -0.004   0.002  0.00  0.00    -0.023 A 
BRANCH  18  19
ATOM     19  C   UNL     1      -1.266  -0.762   0.011  0.00  0.00    +0.032 C 
ATOM     20  C   UNL     1      -1.246  -2.088   0.003  0.00  0.00    +0.179 C 
BRANCH  20  21
ATOM     21  N   UNL     1      -2.517  -2.847   0.012  0.00  0.00    +0.049 N 
ATOM     22  O   UNL     1      -3.573  -2.259   0.025  0.00  0.00    -0.127 OA
ATOM     23  O   UNL     1      -2.499  -4.056   0.005  0.00  0.00    -0.127 OA
ENDBRANCH  20  21
ENDBRANCH  18  19
ENDBRANCH  12  15
ENDBRANCH   9  12
ENDBRANCH   3   9
ENDBRANCH   1   6
BRANCH   1  24
ATOM     24  O   UNL     1       7.708  -2.968   3.327  0.00  0.00    -0.458 OA
BRANCH  24  25
ATOM     25  C   UNL     1       8.193  -4.196   3.875  0.00  0.00    +0.266 C 
BRANCH  25  26
ATOM     26  C   UNL     1       9.674  -4.360   3.526  0.00  0.00    +0.189 C 
ATOM     27  C   UNL     1      10.176  -5.738   4.009  0.00  0.00    +0.179 C 
ATOM     28  C   UNL     1      11.597  -5.404   4.538  0.00  0.00    +0.195 C 
ATOM     29  C   UNL     1      11.373  -3.978   5.104  0.00  0.00    +0.253 C 
ATOM     30  O   UNL     1      10.445  -3.357   4.198  0.00  0.00    -0.345 OA
BRANCH  29  31
ATOM     31  N   UNL     1      12.636  -3.236   5.125  0.00  0.00    -0.286 N 
ATOM     32  C   UNL     1      13.083  -2.377   4.166  0.00  0.00    +0.203 A 
ATOM     33  N   UNL     1      14.242  -1.893   4.507  0.00  0.00    -0.231 NA
ATOM     34  C   UNL     1      14.611  -2.409   5.704  0.00  0.00    +0.147 A 
ATOM     35  C   UNL     1      13.582  -3.272   6.118  0.00  0.00    +0.167 A 
ATOM     36  N   UNL     1      13.701  -3.908   7.279  0.00  0.00    -0.216 NA
ATOM     37  C   UNL     1      14.764  -3.732   8.035  0.00  0.00    +0.225 A 
ATOM     38  N   UNL     1      15.753  -2.928   7.691  0.00  0.00    -0.219 NA
ATOM     39  C   UNL     1      15.728  -2.257   6.543  0.00  0.00    +0.147 A 
BRANCH  39  40
ATOM     40  N   UNL     1      16.769  -1.417   6.191  0.00  0.00    -0.341 N 
ATOM     41  H   UNL     1      16.734  -0.924   5.357  0.00  0.00    +0.144 HD
ATOM     42  H   UNL     1      17.535  -1.321   6.779  0.00  0.00    +0.144 HD
ENDBRANCH  39  40
ENDBRANCH  29  31
BRANCH  28  43
ATOM     43  O   UNL     1      12.553  -5.393   3.476  0.00  0.00    -0.385 OA
ATOM     44  H   UNL     1      12.646  -6.242   3.022  0.00  0.00    +0.210 HD
ENDBRANCH  28  43
BRANCH  27  45
ATOM     45  O   UNL     1      10.238  -6.665   2.924  0.00  0.00    -0.386 OA
ATOM     46  H   UNL     1      10.548  -7.546   3.176  0.00  0.00    +0.210 HD
ENDBRANCH  27  45
ENDBRANCH  25  26
ENDBRANCH  24  25
ENDBRANCH   1  24
TORSDOF 13
