REMARK  Name = CHEMBL332906
REMARK  3 active torsions:
REMARK  status: ('A' for Active; 'I' for Inactive)
REMARK    1  A    between atoms: C_3  and  N_8
REMARK    2  A    between atoms: C_11  and  C_19
REMARK    3  A    between atoms: C_22  and  N_25
REMARK                            x       y       z     vdW  Elec       q    Type
REMARK                         _______ _______ _______ _____ _____    ______ ____
ROOT
ATOM      1  N   UNL     1       3.631   2.143  -0.394  0.00  0.00    -0.299 N 
ATOM      2  C   UNL     1       4.827   1.467  -0.242  0.00  0.00    +0.138 A 
ATOM      3  C   UNL     1       6.017   2.162   0.030  0.00  0.00    +0.086 A 
ATOM      4  C   UNL     1       6.374   3.568   0.217  0.00  0.00    +0.105 A 
ATOM      5  N   UNL     1       7.664   3.618   0.450  0.00  0.00    -0.171 NA
ATOM      6  H   UNL     1       9.133   2.104   0.576  0.00  0.00    +0.191 HD
ATOM      7  N   UNL     1       8.200   2.325   0.431  0.00  0.00    -0.259 N 
ATOM      8  C   UNL     1       7.208   1.427   0.176  0.00  0.00    +0.161 A 
ATOM      9  N   UNL     1       7.159   0.100   0.050  0.00  0.00    -0.216 NA
ATOM     10  C   UNL     1       6.022  -0.508  -0.206  0.00  0.00    +0.225 A 
ATOM     11  N   UNL     1       4.880   0.142  -0.344  0.00  0.00    -0.220 NA
ATOM     12  H   UNL     1       3.624   3.111  -0.450  0.00  0.00    +0.154 HD
ENDROOT
BRANCH   1  15
ATOM     13  C   UNL     1       0.057   1.319  -0.135  0.00  0.00    +0.003 A 
ATOM     14  C   UNL     1       1.242   2.025  -0.062  0.00  0.00    +0.023 A 
ATOM     15  C   UNL     1       2.430   1.430  -0.466  0.00  0.00    +0.034 A 
ATOM     16  C   UNL     1       2.423   0.126  -0.944  0.00  0.00    +0.043 A 
ATOM     17  C   UNL     1       1.234  -0.576  -1.015  0.00  0.00    +0.043 A 
ATOM     18  C   UNL     1       0.052   0.021  -0.610  0.00  0.00    +0.020 A 
ATOM     19 CL   UNL     1       1.223  -2.206  -1.611  0.00  0.00    -0.083 Cl
ENDBRANCH   1  15
BRANCH   4  20
ATOM     20  C   UNL     1       5.448   4.725   0.155  0.00  0.00    +0.003 A 
ATOM     21  C   UNL     1       4.283   4.729   0.921  0.00  0.00    +0.012 A 
ATOM     22  C   UNL     1       3.424   5.806   0.862  0.00  0.00    +0.023 A 
ATOM     23  C   UNL     1       3.718   6.886   0.038  0.00  0.00    +0.025 A 
ATOM     24  C   UNL     1       4.879   6.884  -0.728  0.00  0.00    +0.023 A 
ATOM     25  C   UNL     1       5.744   5.812  -0.666  0.00  0.00    +0.012 A 
BRANCH  23  26
ATOM     26  N   UNL     1       2.846   7.974  -0.022  0.00  0.00    -0.358 N 
ATOM     27  H   UNL     1       2.036   7.976   0.511  0.00  0.00    +0.142 HD
ATOM     28  H   UNL     1       3.051   8.729  -0.597  0.00  0.00    +0.142 HD
ENDBRANCH  23  26
ENDBRANCH   4  20
TORSDOF 3
