REMARK  Name = CHEMBL391778
REMARK  7 active torsions:
REMARK  status: ('A' for Active; 'I' for Inactive)
REMARK    1  A    between atoms: C_3  and  C_8
REMARK    2  A    between atoms: C_8  and  N_9
REMARK    3  A    between atoms: C_13  and  N_18
REMARK    4  A    between atoms: C_21  and  C_28
REMARK    5  A    between atoms: C_28  and  N_29
REMARK    6  A    between atoms: C_32  and  C_35
REMARK    7  A    between atoms: C_35  and  N_36
REMARK                            x       y       z     vdW  Elec       q    Type
REMARK                         _______ _______ _______ _____ _____    ______ ____
ROOT
ATOM      1  N   UNL     1       3.043   7.154   4.887  0.00  0.00    -0.298 N 
ATOM      2  C   UNL     1       2.330   8.334   4.971  0.00  0.00    +0.151 A 
ATOM      3  C   UNL     1       2.322   9.082   6.171  0.00  0.00    +0.107 A 
ATOM      4  C   UNL     1       2.910   8.910   7.409  0.00  0.00    -0.034 A 
ATOM      5  C   UNL     1       2.526   9.998   8.193  0.00  0.00    +0.023 A 
ATOM      6  C   UNL     1       1.728  10.798   7.437  0.00  0.00    +0.113 A 
ATOM      7  N   UNL     1       1.596  10.257   6.212  0.00  0.00    -0.235 N 
ATOM      8  N   UNL     1       0.902  10.650   5.059  0.00  0.00    -0.155 NA
ATOM      9  C   UNL     1       0.951   9.913   3.984  0.00  0.00    +0.245 A 
ATOM     10  N   UNL     1       1.651   8.781   3.927  0.00  0.00    -0.217 NA
ATOM     11  H   UNL     1       3.507   6.812   5.666  0.00  0.00    +0.154 HD
ENDROOT
BRANCH   1  16
ATOM     12  N   UNL     1       3.486   4.300   0.181  0.00  0.00    -0.259 N 
ATOM     13  C   UNL     1       3.163   5.074   1.267  0.00  0.00    +0.069 A 
ATOM     14  C   UNL     1       2.054   5.847   1.601  0.00  0.00    +0.030 A 
ATOM     15  C   UNL     1       2.022   6.523   2.786  0.00  0.00    +0.025 A 
ATOM     16  C   UNL     1       3.095   6.452   3.677  0.00  0.00    +0.033 A 
ATOM     17  C   UNL     1       4.206   5.693   3.370  0.00  0.00    +0.034 A 
ATOM     18  C   UNL     1       4.250   4.995   2.158  0.00  0.00    +0.021 A 
ATOM     19  C   UNL     1       5.236   4.123   1.526  0.00  0.00    +0.143 A 
ATOM     20  N   UNL     1       4.751   3.737   0.381  0.00  0.00    -0.178 NA
BRANCH  12  21
ATOM     21  C   UNL     1       2.640   4.091  -0.997  0.00  0.00    +0.179 C 
BRANCH  21  24
ATOM     22  C   UNL     1      -0.312   1.966   0.017  0.00  0.00    +0.003 A 
ATOM     23  C   UNL     1       0.505   3.062  -0.191  0.00  0.00    +0.005 A 
ATOM     24  C   UNL     1       1.750   2.896  -0.770  0.00  0.00    -0.023 A 
ATOM     25  C   UNL     1       2.178   1.636  -1.142  0.00  0.00    +0.043 A 
ATOM     26  C   UNL     1       1.360   0.538  -0.934  0.00  0.00    +0.124 A 
ATOM     27  C   UNL     1       0.114   0.705  -0.353  0.00  0.00    +0.038 A 
ATOM     28  F   UNL     1       1.777  -0.694  -1.297  0.00  0.00    -0.205 F 
ENDBRANCH  21  24
ENDBRANCH  12  21
ENDBRANCH   1  16
BRANCH   4  29
ATOM     29  C   UNL     1       3.795   7.766   7.832  0.00  0.00    -0.041 C 
BRANCH  29  30
ATOM     30  N   UNL     1       2.963   6.611   8.196  0.00  0.00    +0.382 N 
ATOM     31  C   UNL     1       1.976   7.019   9.202  0.00  0.00    -0.078 C 
ATOM     32  C   UNL     1       1.055   5.841   9.526  0.00  0.00    -0.017 C 
ATOM     33  C   UNL     1       1.891   4.680  10.070  0.00  0.00    -0.032 C 
ATOM     34  C   UNL     1       2.966   4.312   9.043  0.00  0.00    -0.017 C 
ATOM     35  C   UNL     1       3.816   5.547   8.737  0.00  0.00    -0.078 C 
ATOM     36  H   UNL     1       2.483   6.272   7.375  0.00  0.00    -0.081 HD
BRANCH  33  37
ATOM     37  C   UNL     1       0.988   3.471  10.321  0.00  0.00    -0.083 C 
BRANCH  37  38
ATOM     38  N   UNL     1       1.768   2.400  10.955  0.00  0.00    +0.378 N 
ATOM     39  H   UNL     1       2.526   2.132  10.346  0.00  0.00    -0.090 HD
ATOM     40  H   UNL     1       2.140   2.729  11.833  0.00  0.00    -0.090 HD
ATOM     41  H   UNL     1       1.171   1.603  11.120  0.00  0.00    -0.090 HD
ENDBRANCH  37  38
ENDBRANCH  33  37
ENDBRANCH  29  30
ENDBRANCH   4  29
TORSDOF 7
