REMARK  Name = CHEMBL65376
REMARK  11 active torsions:
REMARK  status: ('A' for Active; 'I' for Inactive)
REMARK    1  A    between atoms: C_3  and  C_6
REMARK    2  A    between atoms: C_6  and  O_7
REMARK    3  A    between atoms: O_7  and  C_8
REMARK    4  A    between atoms: C_8  and  C_10
REMARK    5  A    between atoms: C_10  and  C_11
REMARK    6  A    between atoms: C_11  and  C_12
REMARK    7  A    between atoms: C_12  and  C_13
REMARK    8  A    between atoms: C_13  and  O_15
REMARK    9  A    between atoms: O_15  and  C_16
REMARK   10  A    between atoms: C_19  and  C_22
REMARK   11  A    between atoms: C_23  and  N_24
REMARK                            x       y       z     vdW  Elec       q    Type
REMARK                         _______ _______ _______ _____ _____    ______ ____
ROOT
ATOM      1  C   UNL     1       9.635   0.424   4.084  0.00  0.00    +0.312 C 
ATOM      2  O   UNL     1      10.169   0.382   3.001  0.00  0.00    -0.250 OA
ENDROOT
BRANCH   1   3
ATOM      3  C   UNL     1       8.132   0.459   4.181  0.00  0.00    +0.121 C 
BRANCH   3   4
ATOM      4  C   UNL     1       7.528   0.430   2.776  0.00  0.00    +0.022 C 
BRANCH   4   5
ATOM      5  C   UNL     1       6.002   0.465   2.875  0.00  0.00    +0.121 C 
BRANCH   5   6
ATOM      6  C   UNL     1       5.408   0.437   1.490  0.00  0.00    +0.307 C 
ATOM      7  O   UNL     1       6.131   0.393   0.523  0.00  0.00    -0.251 OA
BRANCH   6   8
ATOM      8  O   UNL     1       4.075   0.460   1.331  0.00  0.00    -0.457 OA
BRANCH   8   9
ATOM      9  C   UNL     1       3.581   0.431  -0.009  0.00  0.00    +0.306 C 
BRANCH   9  12
ATOM     10  C   UNL     1      -0.035   1.140   0.017  0.00  0.00    +0.041 A 
ATOM     11  C   UNL     1       1.311   1.571  -0.013  0.00  0.00    +0.048 A 
ATOM     12  C   UNL     1       2.075   0.463   0.009  0.00  0.00    +0.142 A 
ATOM     13  O   UNL     1       1.266  -0.609   0.051  0.00  0.00    -0.464 OA
ATOM     14  C   UNL     1      -0.014  -0.204   0.056  0.00  0.00    +0.195 A 
ENDBRANCH   9  12
ENDBRANCH   8   9
ENDBRANCH   6   8
ENDBRANCH   5   6
ENDBRANCH   4   5
ENDBRANCH   3   4
ENDBRANCH   1   3
BRANCH   1  15
ATOM     15  O   UNL     1      10.381   0.442   5.200  0.00  0.00    -0.426 OA
BRANCH  15  16
ATOM     16  C   UNL     1      11.727   0.306   5.070  0.00  0.00    +0.132 A 
ATOM     17  C   UNL     1      12.494   1.385   4.649  0.00  0.00    +0.047 A 
ATOM     18  C   UNL     1      13.859   1.252   4.516  0.00  0.00    +0.011 A 
ATOM     19  C   UNL     1      14.471   0.031   4.805  0.00  0.00    -0.023 A 
ATOM     20  C   UNL     1      13.697  -1.051   5.228  0.00  0.00    +0.011 A 
ATOM     21  C   UNL     1      12.332  -0.908   5.364  0.00  0.00    +0.047 A 
BRANCH  19  22
ATOM     22  C   UNL     1      15.934  -0.117   4.663  0.00  0.00    +0.032 C 
ATOM     23  C   UNL     1      16.514  -1.277   4.938  0.00  0.00    +0.179 C 
BRANCH  23  24
ATOM     24  N   UNL     1      17.980  -1.425   4.796  0.00  0.00    +0.049 N 
ATOM     25  O   UNL     1      18.649  -0.487   4.430  0.00  0.00    -0.127 OA
ATOM     26  O   UNL     1      18.508  -2.483   5.047  0.00  0.00    -0.127 OA
ENDBRANCH  23  24
ENDBRANCH  19  22
ENDBRANCH  15  16
ENDBRANCH   1  15
TORSDOF 11
