REMARK  Name = CHEMBL415738
REMARK  6 active torsions:
REMARK  status: ('A' for Active; 'I' for Inactive)
REMARK    1  A    between atoms: C_1  and  C_2
REMARK    2  A    between atoms: C_6  and  N_8
REMARK    3  A    between atoms: C_11  and  N_15
REMARK    4  A    between atoms: N_15  and  C_16
REMARK    5  A    between atoms: C_16  and  C_17
REMARK    6  A    between atoms: C_17  and  O_18
REMARK                            x       y       z     vdW  Elec       q    Type
REMARK                         _______ _______ _______ _____ _____    ______ ____
ROOT
ATOM      1  N   UNL     1       0.051  -2.797   2.391  0.00  0.00    -0.299 N 
ATOM      2  C   UNL     1       0.174  -4.179   2.379  0.00  0.00    +0.128 A 
ATOM      3  C   UNL     1       0.289  -4.867   1.174  0.00  0.00    +0.087 A 
ATOM      4  C   UNL     1       0.410  -6.252   1.216  0.00  0.00    +0.124 A 
ATOM      5  N   UNL     1       0.411  -6.866   2.397  0.00  0.00    -0.221 NA
ATOM      6  C   UNL     1       0.300  -6.179   3.516  0.00  0.00    +0.225 A 
ATOM      7  N   UNL     1       0.189  -4.866   3.519  0.00  0.00    -0.221 NA
ATOM      8  H   UNL     1      -0.039  -2.311   1.557  0.00  0.00    +0.154 HD
ENDROOT
BRANCH   1  14
ATOM      9  C   UNL     1      -1.502   0.991   5.112  0.00  0.00    +0.044 C 
ATOM     10  C   UNL     1      -0.686  -0.266   4.953  0.00  0.00    -0.049 A 
ATOM     11  C   UNL     1       0.070  -0.737   6.011  0.00  0.00    +0.003 A 
ATOM     12  C   UNL     1       0.820  -1.890   5.870  0.00  0.00    +0.002 A 
ATOM     13  C   UNL     1       0.815  -2.576   4.671  0.00  0.00    +0.023 A 
ATOM     14  C   UNL     1       0.057  -2.106   3.606  0.00  0.00    +0.033 A 
ATOM     15  C   UNL     1      -0.700  -0.950   3.753  0.00  0.00    +0.026 A 
ENDBRANCH   1  14
BRANCH   4  16
ATOM     16  N   UNL     1       0.526  -6.983   0.043  0.00  0.00    -0.327 N 
ATOM     17  H   UNL     1       0.610  -7.949   0.080  0.00  0.00    +0.148 HD
BRANCH  16  18
ATOM     18  C   UNL     1       0.523  -6.297  -1.251  0.00  0.00    +0.130 C 
BRANCH  18  19
ATOM     19  C   UNL     1       0.664  -7.327  -2.374  0.00  0.00    +0.174 C 
BRANCH  19  20
ATOM     20  O   UNL     1      -0.487  -8.173  -2.392  0.00  0.00    -0.393 OA
ATOM     21  H   UNL     1      -0.466  -8.851  -3.081  0.00  0.00    +0.209 HD
ENDBRANCH  19  20
ENDBRANCH  18  19
ENDBRANCH  16  18
ENDBRANCH   4  16
TORSDOF 5
