REMARK  Name = CHEMBL137364
REMARK  6 active torsions:
REMARK  status: ('A' for Active; 'I' for Inactive)
REMARK    1  A    between atoms: C_3  and  N_8
REMARK    2  A    between atoms: C_12  and  N_19
REMARK    3  A    between atoms: N_19  and  N_20
REMARK    4  A    between atoms: N_21  and  C_22
REMARK    5  A    between atoms: C_22  and  C_23
REMARK    6  A    between atoms: C_23  and  N_24
REMARK                            x       y       z     vdW  Elec       q    Type
REMARK                         _______ _______ _______ _____ _____    ______ ____
ROOT
ATOM      1  N   UNL     1       3.547   2.216   1.492  0.00  0.00    -0.299 N 
ATOM      2  C   UNL     1       4.750   1.543   1.540  0.00  0.00    +0.134 A 
ATOM      3  C   UNL     1       5.977   2.232   1.375  0.00  0.00    +0.042 A 
ATOM      4  C   UNL     1       6.029   3.612   1.156  0.00  0.00    +0.038 A 
ATOM      5  C   UNL     1       7.255   4.227   1.002  0.00  0.00    +0.051 A 
ATOM      6  C   UNL     1       8.437   3.482   1.063  0.00  0.00    +0.027 A 
ATOM      7  C   UNL     1       8.408   2.138   1.275  0.00  0.00    +0.030 A 
ATOM      8  C   UNL     1       7.178   1.484   1.435  0.00  0.00    +0.076 A 
ATOM      9  N   UNL     1       7.103   0.161   1.646  0.00  0.00    -0.235 NA
ATOM     10  C   UNL     1       5.938  -0.424   1.793  0.00  0.00    +0.223 A 
ATOM     11  N   UNL     1       4.790   0.234   1.749  0.00  0.00    -0.220 NA
ATOM     12  H   UNL     1       3.528   3.161   1.273  0.00  0.00    +0.154 HD
ENDROOT
BRANCH   1  15
ATOM     13  C   UNL     1       1.149  -0.147   2.968  0.00  0.00    +0.003 A 
ATOM     14  C   UNL     1       2.329   0.522   2.706  0.00  0.00    +0.023 A 
ATOM     15  C   UNL     1       2.355   1.537   1.759  0.00  0.00    +0.033 A 
ATOM     16  C   UNL     1       1.193   1.877   1.077  0.00  0.00    +0.038 A 
ATOM     17  C   UNL     1       0.016   1.204   1.343  0.00  0.00    +0.020 A 
ATOM     18  C   UNL     1      -0.006   0.192   2.288  0.00  0.00    +0.015 A 
ATOM     19 BR   UNL     1      -1.567   1.665   0.417  0.00  0.00    -0.050 Br
ENDBRANCH   1  15
BRANCH   5  20
ATOM     20  N   UNL     1       7.315   5.607   0.783  0.00  0.00    -0.220 N 
ATOM     21  H   UNL     1       6.498   6.127   0.740  0.00  0.00    +0.176 HD
BRANCH  20  22
ATOM     22  N   UNL     1       8.556   6.237   0.626  0.00  0.00    -0.082 NA
ATOM     23  N   UNL     1       8.617   7.472   0.532  0.00  0.00    -0.170 NA
BRANCH  23  24
ATOM     24  C   UNL     1       7.386   8.261   0.441  0.00  0.00    +0.183 C 
BRANCH  24  25
ATOM     25  C   UNL     1       7.244   9.131   1.692  0.00  0.00    +0.109 C 
BRANCH  25  26
ATOM     26  N   UNL     1       6.010   9.922   1.601  0.00  0.00    -0.296 NA
ATOM     27  C   UNL     1       6.091  10.903   0.509  0.00  0.00    +0.112 C 
ATOM     28  C   UNL     1       4.766  11.662   0.411  0.00  0.00    +0.175 C 
ATOM     29  O   UNL     1       4.481  12.277   1.671  0.00  0.00    -0.377 OA
ATOM     30  C   UNL     1       4.393  11.351   2.757  0.00  0.00    +0.175 C 
ATOM     31  C   UNL     1       5.715  10.588   2.878  0.00  0.00    +0.112 C 
ENDBRANCH  25  26
ENDBRANCH  24  25
ENDBRANCH  23  24
ENDBRANCH  20  22
ENDBRANCH   5  20
TORSDOF 6
