REMARK  Name = CHEMBL472746
REMARK  7 active torsions:
REMARK  status: ('A' for Active; 'I' for Inactive)
REMARK    1  A    between atoms: C_2  and  C_3
REMARK    2  A    between atoms: N_5  and  C_6
REMARK    3  A    between atoms: C_11  and  N_15
REMARK    4  A    between atoms: N_15  and  C_16
REMARK    5  A    between atoms: C_19  and  O_22
REMARK    6  A    between atoms: O_22  and  C_23
REMARK    7  A    between atoms: C_23  and  C_24
REMARK                            x       y       z     vdW  Elec       q    Type
REMARK                         _______ _______ _______ _____ _____    ______ ____
ROOT
ATOM      1  C   UNL     1       2.160  -3.265   0.646  0.00  0.00    +0.027 C 
ATOM      2  C   UNL     1       3.139  -2.380   0.919  0.00  0.00    +0.022 C 
ATOM      3  C   UNL     1       4.368  -2.778   0.341  0.00  0.00    +0.026 C 
ATOM      4  C   UNL     1       4.196  -3.830  -0.459  0.00  0.00    +0.059 C 
ATOM      5  C   UNL     1       2.801  -4.373  -0.139  0.00  0.00    +0.147 C 
ATOM      6  C   UNL     1       2.158  -4.625  -1.478  0.00  0.00    +0.135 C 
ATOM      7  N   UNL     1       2.951  -4.940  -2.480  0.00  0.00    -0.222 NA
ATOM      8  C   UNL     1       4.282  -5.002  -2.384  0.00  0.00    +0.223 C 
ATOM      9  N   UNL     1       4.948  -4.439  -1.392  0.00  0.00    -0.239 NA
ENDROOT
BRANCH   1  12
ATOM     10  C   UNL     1       0.400  -2.111   1.728  0.00  0.00    +0.240 C 
ATOM     11  O   UNL     1       1.181  -1.232   2.039  0.00  0.00    -0.271 OA
ATOM     12  N   UNL     1       0.830  -3.174   1.019  0.00  0.00    -0.285 N 
ATOM     13  H   UNL     1       0.207  -3.875   0.771  0.00  0.00    +0.155 HD
BRANCH  10  15
ATOM     14  C   UNL     1      -1.437  -0.965   2.823  0.00  0.00    +0.013 C 
ATOM     15  C   UNL     1      -1.012  -2.014   2.124  0.00  0.00    +0.060 C 
ENDBRANCH  10  15
ENDBRANCH   1  12
BRANCH   6  16
ATOM     16  N   UNL     1       0.809  -4.530  -1.644  0.00  0.00    -0.199 NA
BRANCH  16  17
ATOM     17  C   UNL     1       0.200  -5.109  -2.764  0.00  0.00    +0.055 A 
ATOM     18  C   UNL     1       0.791  -6.197  -3.392  0.00  0.00    +0.029 A 
ATOM     19  C   UNL     1       0.190  -6.767  -4.496  0.00  0.00    +0.047 A 
ATOM     20  C   UNL     1      -1.005  -6.253  -4.979  0.00  0.00    +0.121 A 
ATOM     21  C   UNL     1      -1.596  -5.165  -4.352  0.00  0.00    +0.047 A 
ATOM     22  C   UNL     1      -0.999  -4.598  -3.244  0.00  0.00    +0.029 A 
BRANCH  20  23
ATOM     23  O   UNL     1      -1.596  -6.814  -6.066  0.00  0.00    -0.487 OA
BRANCH  23  24
ATOM     24  C   UNL     1      -2.825  -6.234  -6.509  0.00  0.00    +0.264 C 
BRANCH  24  25
ATOM     25  C   UNL     1      -3.328  -6.983  -7.716  0.00  0.00    -0.010 A 
ATOM     26  C   UNL     1      -2.946  -6.586  -8.984  0.00  0.00    +0.007 A 
ATOM     27  C   UNL     1      -3.407  -7.273 -10.091  0.00  0.00    +0.000 A 
ATOM     28  C   UNL     1      -4.251  -8.356  -9.931  0.00  0.00    +0.000 A 
ATOM     29  C   UNL     1      -4.632  -8.753  -8.663  0.00  0.00    +0.000 A 
ATOM     30  C   UNL     1      -4.168  -8.069  -7.555  0.00  0.00    +0.007 A 
ENDBRANCH  24  25
ENDBRANCH  23  24
ENDBRANCH  20  23
ENDBRANCH  16  17
ENDBRANCH   6  16
TORSDOF 7
