REMARK  Name = CHEMBL399373
REMARK  13 active torsions:
REMARK  status: ('A' for Active; 'I' for Inactive)
REMARK    1  A    between atoms: C_1  and  C_2
REMARK    2  A    between atoms: C_2  and  O_3
REMARK    3  A    between atoms: O_3  and  C_4
REMARK    4  A    between atoms: C_9  and  O_10
REMARK    5  A    between atoms: O_10  and  C_11
REMARK    6  A    between atoms: C_11  and  C_12
REMARK    7  A    between atoms: C_16  and  C_17
REMARK    8  A    between atoms: C_18  and  C_19
REMARK    9  A    between atoms: C_19  and  C_20
REMARK   10  A    between atoms: C_19  and  C_21
REMARK   11  A    between atoms: C_19  and  N_28
REMARK   12  A    between atoms: C_21  and  C_22
REMARK   13  A    between atoms: C_31  and  C_34
REMARK                            x       y       z     vdW  Elec       q    Type
REMARK                         _______ _______ _______ _____ _____    ______ ____
ROOT
ATOM      1  C   UNL     1      -1.478  -4.946   1.336  0.00  0.00    -0.044 C 
ATOM      2  C   UNL     1      -1.960  -4.348   2.224  0.00  0.00    -0.073 C 
ENDROOT
BRANCH   1  12
ATOM      3  C   UNL     1       0.969  -3.072  -1.608  0.00  0.00    +0.163 A 
ATOM      4  C   UNL     1       0.181  -3.650  -0.652  0.00  0.00    +0.062 A 
ATOM      5  C   UNL     1      -0.080  -5.023  -0.710  0.00  0.00    +0.038 A 
ATOM      6  C   UNL     1       0.473  -5.803  -1.758  0.00  0.00    +0.079 A 
ATOM      7  C   UNL     1       1.277  -5.185  -2.724  0.00  0.00    +0.077 A 
ATOM      8  C   UNL     1       1.512  -3.840  -2.648  0.00  0.00    +0.164 A 
ATOM      9  N   UNL     1       0.208  -7.116  -1.792  0.00  0.00    -0.235 NA
ATOM     10  C   UNL     1      -0.549  -7.668  -0.872  0.00  0.00    +0.223 A 
ATOM     11  N   UNL     1      -1.087  -6.984   0.123  0.00  0.00    -0.227 NA
ATOM     12  C   UNL     1      -0.889  -5.676   0.253  0.00  0.00    +0.124 A 
BRANCH   3  13
ATOM     13  O   UNL     1       1.224  -1.738  -1.553  0.00  0.00    -0.489 OA
BRANCH  13  15
ATOM     14  C   UNL     1       1.114   0.447  -0.527  0.00  0.00    +0.048 C 
ATOM     15  C   UNL     1       0.722  -1.028  -0.420  0.00  0.00    +0.226 C 
ENDBRANCH  13  15
ENDBRANCH   3  13
BRANCH   8  16
ATOM     16  O   UNL     1       2.287  -3.241  -3.590  0.00  0.00    -0.489 OA
BRANCH  16  17
ATOM     17  C   UNL     1       2.812  -4.075  -4.624  0.00  0.00    +0.226 C 
ATOM     18  C   UNL     1       3.653  -3.229  -5.583  0.00  0.00    +0.048 C 
ENDBRANCH  16  17
ENDBRANCH   8  16
ENDBRANCH   1  12
BRANCH   2  19
ATOM     19  C   UNL     1      -2.565  -3.599   3.337  0.00  0.00    +0.085 C 
ATOM     20  C   UNL     1      -3.380  -4.554   4.212  0.00  0.00    +0.042 C 
BRANCH  19  21
ATOM     21  N   UNL     1      -3.447  -2.553   2.801  0.00  0.00    -0.286 NA
ATOM     22  C   UNL     1      -4.068  -1.782   3.885  0.00  0.00    +0.086 C 
ATOM     23  C   UNL     1      -4.861  -0.615   3.294  0.00  0.00    +0.030 C 
ATOM     24  C   UNL     1      -5.936  -1.160   2.349  0.00  0.00    +0.105 C 
ATOM     25  C   UNL     1      -5.266  -1.999   1.257  0.00  0.00    +0.030 C 
ATOM     26  C   UNL     1      -4.461  -3.127   1.908  0.00  0.00    +0.086 C 
BRANCH  24  27
ATOM     27  C   UNL     1      -6.681  -0.013   1.717  0.00  0.00    +0.359 C 
ATOM     28  O   UNL     1      -7.156  -0.136   0.601  0.00  0.00    -0.246 OA
ATOM     29  O   UNL     1      -6.808   1.038   2.322  0.00  0.00    -0.246 OA
ENDBRANCH  24  27
ENDBRANCH  19  21
BRANCH  19  30
ATOM     30  C   UNL     1      -1.461  -2.954   4.177  0.00  0.00    +0.070 C 
BRANCH  30  31
ATOM     31  C   UNL     1      -0.489  -4.014   4.628  0.00  0.00    -0.045 A 
ATOM     32  C   UNL     1      -0.700  -4.683   5.819  0.00  0.00    +0.004 A 
ATOM     33  C   UNL     1       0.192  -5.655   6.233  0.00  0.00    +0.000 A 
ATOM     34  C   UNL     1       1.293  -5.958   5.455  0.00  0.00    +0.000 A 
ATOM     35  C   UNL     1       1.504  -5.290   4.264  0.00  0.00    +0.000 A 
ATOM     36  C   UNL     1       0.610  -4.321   3.848  0.00  0.00    +0.004 A 
ENDBRANCH  30  31
ENDBRANCH  19  30
ENDBRANCH   2  19
TORSDOF 10
