REMARK  Name = CHEMBL312818
REMARK  8 active torsions:
REMARK  status: ('A' for Active; 'I' for Inactive)
REMARK    1  A    between atoms: C_4  and  C_7
REMARK    2  A    between atoms: C_7  and  C_8
REMARK    3  A    between atoms: C_8  and  C_9
REMARK    4  A    between atoms: C_9  and  N_10
REMARK    5  A    between atoms: N_10  and  C_11
REMARK    6  A    between atoms: N_10  and  N_31
REMARK    7  A    between atoms: C_16  and  N_20
REMARK    8  A    between atoms: N_20  and  C_21
REMARK                            x       y       z     vdW  Elec       q    Type
REMARK                         _______ _______ _______ _____ _____    ______ ____
ROOT
ATOM      1  C   UNL     1       5.395  -3.230   3.528  0.00  0.00    +0.090 A 
ATOM      2  C   UNL     1       4.420  -4.075   3.109  0.00  0.00    +0.061 A 
ATOM      3  C   UNL     1       4.092  -5.203   3.877  0.00  0.00    +0.085 A 
ATOM      4  C   UNL     1       4.837  -5.365   5.067  0.00  0.00    +0.079 A 
ATOM      5  S   UNL     1       5.939  -3.976   5.056  0.00  0.00    -0.067 S 
ATOM      6  C   UNL     1       4.612  -6.434   5.911  0.00  0.00    +0.141 A 
ATOM      7  N   UNL     1       3.668  -7.317   5.576  0.00  0.00    -0.219 NA
ATOM      8  C   UNL     1       2.978  -7.157   4.461  0.00  0.00    +0.224 A 
ATOM      9  N   UNL     1       3.160  -6.159   3.635  0.00  0.00    -0.235 NA
ENDROOT
BRANCH   6  10
ATOM     10  N   UNL     1       5.347  -6.587   7.077  0.00  0.00    -0.298 N 
ATOM     11  H   UNL     1       5.975  -5.900   7.348  0.00  0.00    +0.154 HD
BRANCH  10  12
ATOM     12  C   UNL     1       5.182  -7.734   7.863  0.00  0.00    +0.033 A 
ATOM     13  C   UNL     1       4.878  -8.953   7.258  0.00  0.00    +0.025 A 
ATOM     14  C   UNL     1       4.713 -10.090   8.017  0.00  0.00    +0.028 A 
ATOM     15  C   UNL     1       4.849 -10.029   9.400  0.00  0.00    +0.047 A 
ATOM     16  C   UNL     1       5.155  -8.802  10.014  0.00  0.00    +0.001 A 
ATOM     17  C   UNL     1       5.326  -7.655   9.236  0.00  0.00    +0.033 A 
ATOM     18  C   UNL     1       5.227  -9.074  11.452  0.00  0.00    +0.027 A 
ATOM     19  C   UNL     1       4.974 -10.382  11.617  0.00  0.00    +0.083 A 
ATOM     20  N   UNL     1       4.745 -10.970  10.403  0.00  0.00    -0.361 N 
ATOM     21  H   UNL     1       4.540 -11.908  10.268  0.00  0.00    +0.165 HD
ENDBRANCH  10  12
ENDBRANCH   6  10
BRANCH   1  22
ATOM     22  N   UNL     1       5.860  -2.075   2.916  0.00  0.00    -0.232 N 
BRANCH  22  23
ATOM     23  N   UNL     1       6.802  -1.268   3.567  0.00  0.00    -0.255 N 
ATOM     24  C   UNL     1       7.262  -0.051   3.140  0.00  0.00    +0.127 A 
ATOM     25  C   UNL     1       8.150   0.373   4.059  0.00  0.00    +0.103 A 
ATOM     26  N   UNL     1       8.230  -0.559   5.021  0.00  0.00    -0.351 N 
ATOM     27  C   UNL     1       7.422  -1.542   4.735  0.00  0.00    +0.193 A 
ATOM     28  H   UNL     1       8.797  -0.508   5.806  0.00  0.00    +0.166 HD
ENDBRANCH  22  23
BRANCH  22  29
ATOM     29  C   UNL     1       5.365  -1.699   1.589  0.00  0.00    +0.131 C 
BRANCH  29  30
ATOM     30  C   UNL     1       4.125  -0.815   1.739  0.00  0.00    +0.025 C 
BRANCH  30  31
ATOM     31  C   UNL     1       3.609  -0.422   0.353  0.00  0.00    +0.037 C 
BRANCH  31  35
ATOM     32  C   UNL     1       0.147   2.046   0.769  0.00  0.00    +0.000 A 
ATOM     33  C   UNL     1       1.403   2.620   0.719  0.00  0.00    +0.000 A 
ATOM     34  C   UNL     1       2.523   1.821   0.585  0.00  0.00    +0.003 A 
ATOM     35  C   UNL     1       2.387   0.448   0.501  0.00  0.00    -0.047 A 
ATOM     36  C   UNL     1       1.131  -0.126   0.552  0.00  0.00    +0.003 A 
ATOM     37  C   UNL     1       0.011   0.673   0.684  0.00  0.00    +0.000 A 
ENDBRANCH  31  35
ENDBRANCH  30  31
ENDBRANCH  29  30
ENDBRANCH  22  29
ENDBRANCH   1  22
TORSDOF 8
