REMARK  Name = CHEMBL67027
REMARK  7 active torsions:
REMARK  status: ('A' for Active; 'I' for Inactive)
REMARK    1  A    between atoms: C_1  and  O_2
REMARK    2  A    between atoms: O_2  and  C_3
REMARK    3  A    between atoms: C_6  and  C_11
REMARK    4  A    between atoms: C_8  and  O_9
REMARK    5  A    between atoms: O_9  and  C_10
REMARK    6  A    between atoms: C_12  and  C_13
REMARK    7  A    between atoms: C_12  and  C_15
REMARK                            x       y       z     vdW  Elec       q    Type
REMARK                         _______ _______ _______ _____ _____    ______ ____
ROOT
ATOM      1  C   UNL     1       0.512  -0.559  -1.139  0.00  0.00    +0.162 A 
ATOM      2  C   UNL     1       0.975   0.188  -2.214  0.00  0.00    +0.050 A 
ATOM      3  C   UNL     1       1.618  -0.433  -3.262  0.00  0.00    +0.012 A 
ATOM      4  C   UNL     1       1.806  -1.821  -3.245  0.00  0.00    -0.020 A 
ATOM      5  C   UNL     1       1.338  -2.572  -2.159  0.00  0.00    +0.057 A 
ATOM      6  C   UNL     1       0.700  -1.940  -1.111  0.00  0.00    +0.162 A 
ENDROOT
BRANCH   1   8
ATOM      7  C   UNL     1      -0.281   1.476  -0.201  0.00  0.00    +0.277 C 
ATOM      8  O   UNL     1      -0.122   0.059  -0.108  0.00  0.00    -0.491 OA
ENDBRANCH   1   8
BRANCH   6   9
ATOM      9  O   UNL     1       0.249  -2.666  -0.053  0.00  0.00    -0.491 OA
ATOM     10  C   UNL     1       0.475  -4.077  -0.090  0.00  0.00    +0.277 C 
ENDBRANCH   6   9
BRANCH   4  11
ATOM     11  C   UNL     1       2.490  -2.485  -4.360  0.00  0.00    +0.027 C 
ATOM     12  C   UNL     1       3.454  -1.824  -5.058  0.00  0.00    +0.061 C 
BRANCH  12  13
ATOM     13  C   UNL     1       4.034  -2.432  -6.278  0.00  0.00    +0.010 A 
ATOM     14  C   UNL     1       5.381  -2.806  -6.315  0.00  0.00    +0.012 A 
ATOM     15  C   UNL     1       5.874  -3.371  -7.478  0.00  0.00    +0.020 A 
ATOM     16  C   UNL     1       5.026  -3.545  -8.557  0.00  0.00    +0.111 A 
ATOM     17  N   UNL     1       3.760  -3.183  -8.494  0.00  0.00    -0.263 NA
ATOM     18  C   UNL     1       3.244  -2.647  -7.407  0.00  0.00    +0.119 A 
ENDBRANCH  12  13
BRANCH  12  19
ATOM     19  C   UNL     1       3.909  -0.541  -4.612  0.00  0.00    +0.100 C 
ATOM     20  N   UNL     1       4.269   0.476  -4.259  0.00  0.00    -0.191 NA
ENDBRANCH  12  19
ENDBRANCH   4  11
TORSDOF 5
