REMARK  Name = CHEMBL583218
REMARK  9 active torsions:
REMARK  status: ('A' for Active; 'I' for Inactive)
REMARK    1  A    between atoms: C_1  and  C_2
REMARK    2  A    between atoms: C_2  and  C_3
REMARK    3  A    between atoms: C_9  and  N_10
REMARK    4  A    between atoms: N_10  and  C_11
REMARK    5  A    between atoms: N_19  and  C_20
REMARK    6  A    between atoms: C_20  and  C_21
REMARK    7  A    between atoms: C_30  and  O_32
REMARK    8  A    between atoms: O_32  and  C_33
REMARK    9  A    between atoms: C_33  and  C_34
REMARK                            x       y       z     vdW  Elec       q    Type
REMARK                         _______ _______ _______ _____ _____    ______ ____
ROOT
ATOM      1  C   UNL     1      -2.030   0.162  -0.227  0.00  0.00    +0.003 C 
ATOM      2  C   UNL     1      -2.509  -0.444  -1.303  0.00  0.00    +0.047 C 
ATOM      3  C   UNL     1      -4.013  -0.584  -1.077  0.00  0.00    +0.258 C 
ATOM      4  N   UNL     1      -4.330  -1.961  -1.452  0.00  0.00    -0.241 NA
ATOM      5  C   UNL     1      -3.613  -2.559  -2.356  0.00  0.00    +0.220 C 
ATOM      6  N   UNL     1      -2.554  -2.061  -2.995  0.00  0.00    -0.219 NA
ATOM      7  C   UNL     1      -1.912  -0.978  -2.534  0.00  0.00    +0.152 C 
ATOM      8  N   UNL     1      -4.210  -0.269   0.329  0.00  0.00    -0.237 NA
ATOM      9  C   UNL     1      -3.087   0.201   0.800  0.00  0.00    +0.129 C 
ATOM     10  N   UNL     1      -2.912   0.676   2.091  0.00  0.00    -0.236 N 
ATOM     11  C   UNL     1      -3.944   0.668   2.957  0.00  0.00    +0.406 C 
ATOM     12  O   UNL     1      -5.028   0.245   2.607  0.00  0.00    -0.226 OA
ATOM     13  H   UNL     1      -2.046   1.014   2.370  0.00  0.00    +0.160 HD
ENDROOT
BRANCH   1  15
ATOM     14  C   UNL     1      -0.639   2.206  -0.417  0.00  0.00    +0.009 C 
ATOM     15  C   UNL     1      -0.636   0.715  -0.077  0.00  0.00    +0.036 C 
ENDBRANCH   1  15
BRANCH   7  16
ATOM     16  N   UNL     1      -0.814  -0.427  -3.147  0.00  0.00    -0.196 NA
BRANCH  16  17
ATOM     17  C   UNL     1      -0.495  -0.783  -4.462  0.00  0.00    +0.056 A 
ATOM     18  C   UNL     1       0.825  -0.688  -4.907  0.00  0.00    +0.027 A 
ATOM     19  C   UNL     1       1.157  -1.030  -6.185  0.00  0.00    +0.030 A 
ATOM     20  C   UNL     1       0.176  -1.480  -7.065  0.00  0.00    +0.069 A 
ATOM     21  C   UNL     1      -1.159  -1.580  -6.628  0.00  0.00    +0.022 A 
ATOM     22  C   UNL     1      -1.486  -1.232  -5.313  0.00  0.00    +0.036 A 
ATOM     23  C   UNL     1      -1.928  -2.074  -7.766  0.00  0.00    +0.143 A 
ATOM     24  N   UNL     1      -1.105  -2.239  -8.761  0.00  0.00    -0.178 NA
ATOM     25  N   UNL     1       0.193  -1.888  -8.375  0.00  0.00    -0.259 N 
BRANCH  25  26
ATOM     26  C   UNL     1       1.379  -1.945  -9.232  0.00  0.00    +0.179 C 
BRANCH  26  27
ATOM     27  C   UNL     1       2.024  -3.302  -9.107  0.00  0.00    -0.026 A 
ATOM     28  C   UNL     1       2.988  -3.522  -8.141  0.00  0.00    +0.005 A 
ATOM     29  C   UNL     1       3.579  -4.767  -8.027  0.00  0.00    +0.000 A 
ATOM     30  C   UNL     1       3.206  -5.790  -8.877  0.00  0.00    +0.000 A 
ATOM     31  C   UNL     1       2.241  -5.570  -9.842  0.00  0.00    +0.000 A 
ATOM     32  C   UNL     1       1.647  -4.327  -9.954  0.00  0.00    +0.005 A 
ENDBRANCH  26  27
ENDBRANCH  25  26
ENDBRANCH  16  17
ENDBRANCH   7  16
BRANCH  11  33
ATOM     33  O   UNL     1      -3.774   1.130   4.210  0.00  0.00    -0.450 OA
BRANCH  33  34
ATOM     34  C   UNL     1      -4.911   1.092   5.075  0.00  0.00    +0.237 C 
BRANCH  34  35
ATOM     35  C   UNL     1      -4.528   1.653   6.446  0.00  0.00    +0.023 C 
ATOM     36  C   UNL     1      -3.498   0.733   7.106  0.00  0.00    -0.012 C 
ATOM     37  C   UNL     1      -3.179   1.256   8.509  0.00  0.00    -0.082 C 
ATOM     38  N   UNL     1      -4.404   1.280   9.316  0.00  0.00    +0.379 N 
ATOM     39  C   UNL     1      -5.370   2.216   8.728  0.00  0.00    -0.082 C 
ATOM     40  C   UNL     1      -5.773   1.730   7.335  0.00  0.00    -0.012 C 
ATOM     41  H   UNL     1      -4.807   0.355   9.343  0.00  0.00    -0.086 HD
ATOM     42  H   UNL     1      -4.181   1.575  10.255  0.00  0.00    -0.086 HD
ENDBRANCH  34  35
ENDBRANCH  33  34
ENDBRANCH  11  33
TORSDOF 8
