REMARK  Name = CHEMBL340484
REMARK  6 active torsions:
REMARK  status: ('A' for Active; 'I' for Inactive)
REMARK    1  A    between atoms: C_1  and  N_2
REMARK    2  A    between atoms: N_5  and  C_8
REMARK    3  A    between atoms: C_8  and  C_9
REMARK    4  A    between atoms: C_9  and  C_10
REMARK    5  A    between atoms: C_10  and  N_11
REMARK    6  A    between atoms: N_22  and  C_23
REMARK                            x       y       z     vdW  Elec       q    Type
REMARK                         _______ _______ _______ _____ _____    ______ ____
ROOT
ATOM      1  N   UNL     1       1.232  -6.562   3.520  0.00  0.00    -0.329 N 
ATOM      2  C   UNL     1       1.117  -7.898   3.882  0.00  0.00    +0.121 A 
ATOM      3  C   UNL     1       0.506  -8.783   3.013  0.00  0.00    +0.072 A 
ATOM      4  C   UNL     1       0.400 -10.125   3.393  0.00  0.00    +0.081 A 
ATOM      5  C   UNL     1       0.926 -10.510   4.656  0.00  0.00    +0.059 A 
ATOM      6  C   UNL     1       1.526  -9.543   5.466  0.00  0.00    +0.126 A 
ATOM      7  N   UNL     1       1.603  -8.296   5.055  0.00  0.00    -0.240 NA
ATOM      8  C   UNL     1       0.817 -11.867   5.038  0.00  0.00    +0.135 A 
ATOM      9  N   UNL     1       0.228 -12.708   4.195  0.00  0.00    -0.220 NA
ATOM     10  C   UNL     1      -0.247 -12.303   3.029  0.00  0.00    +0.223 A 
ATOM     11  N   UNL     1      -0.174 -11.056   2.621  0.00  0.00    -0.235 NA
ATOM     12  N   UNL     1       1.307 -12.305   6.250  0.00  0.00    -0.299 N 
ATOM     13  H   UNL     1       1.662  -5.932   4.119  0.00  0.00    +0.147 HD
ATOM     14  H   UNL     1       1.659 -11.666   6.889  0.00  0.00    +0.154 HD
ENDROOT
BRANCH  12  15
ATOM     15  C   UNL     1       1.298 -13.668   6.556  0.00  0.00    +0.033 A 
ATOM     16  C   UNL     1       1.064 -14.087   7.860  0.00  0.00    +0.023 A 
ATOM     17  C   UNL     1       1.055 -15.435   8.160  0.00  0.00    +0.003 A 
ATOM     18  C   UNL     1       1.279 -16.368   7.165  0.00  0.00    +0.015 A 
ATOM     19  C   UNL     1       1.512 -15.955   5.865  0.00  0.00    +0.020 A 
ATOM     20  C   UNL     1       1.516 -14.608   5.557  0.00  0.00    +0.038 A 
ATOM     21 BR   UNL     1       1.817 -17.235   4.507  0.00  0.00    -0.050 Br
ENDBRANCH  12  15
BRANCH   1  22
ATOM     22  C   UNL     1       0.703  -6.104   2.232  0.00  0.00    +0.104 C 
BRANCH  22  23
ATOM     23  C   UNL     1       0.957  -4.603   2.081  0.00  0.00    +0.034 C 
BRANCH  23  24
ATOM     24  C   UNL     1       0.405  -4.125   0.737  0.00  0.00    +0.086 C 
BRANCH  24  29
ATOM     25  C   UNL     1       1.821   1.086  -0.871  0.00  0.00    -0.096 C 
ATOM     26  N   UNL     1       1.600  -0.363  -0.775  0.00  0.00    +0.379 N 
ATOM     27  C   UNL     1       0.162  -0.632  -0.651  0.00  0.00    -0.064 C 
ATOM     28  C   UNL     1      -0.070  -2.142  -0.570  0.00  0.00    +0.066 C 
ATOM     29  N   UNL     1       0.649  -2.684   0.592  0.00  0.00    -0.306 NA
ATOM     30  C   UNL     1       2.088  -2.400   0.493  0.00  0.00    +0.066 C 
ATOM     31  C   UNL     1       2.302  -0.888   0.404  0.00  0.00    -0.064 C 
ATOM     32  H   UNL     1       1.956  -0.812  -1.605  0.00  0.00    -0.082 HD
ENDBRANCH  24  29
ENDBRANCH  23  24
ENDBRANCH  22  23
ENDBRANCH   1  22
TORSDOF 5
