REMARK  Name = CHEMBL180227
REMARK  13 active torsions:
REMARK  status: ('A' for Active; 'I' for Inactive)
REMARK    1  A    between atoms: C_1  and  N_2
REMARK    2  A    between atoms: N_2  and  C_3
REMARK    3  A    between atoms: N_2  and  C_4
REMARK    4  A    between atoms: C_4  and  C_5
REMARK    5  A    between atoms: C_6  and  C_7
REMARK    6  A    between atoms: N_9  and  C_10
REMARK    7  A    between atoms: C_15  and  O_16
REMARK    8  A    between atoms: O_16  and  C_17
REMARK    9  A    between atoms: C_20  and  C_39
REMARK   10  A    between atoms: C_21  and  N_22
REMARK   11  A    between atoms: N_22  and  C_23
REMARK   12  A    between atoms: N_31  and  C_32
REMARK   13  A    between atoms: C_32  and  C_33
REMARK                            x       y       z     vdW  Elec       q    Type
REMARK                         _______ _______ _______ _____ _____    ______ ____
ROOT
ATOM      1  C   UNL     1      -4.096  -9.114   0.196  0.00  0.00    +0.077 A 
ATOM      2  C   UNL     1      -2.959  -8.776  -0.503  0.00  0.00    +0.039 A 
ATOM      3  C   UNL     1      -1.718  -9.290  -0.100  0.00  0.00    +0.025 A 
ATOM      4  C   UNL     1      -1.639 -10.152   1.020  0.00  0.00    +0.076 A 
ATOM      5  C   UNL     1      -2.812 -10.483   1.716  0.00  0.00    +0.076 A 
ATOM      6  C   UNL     1      -4.019  -9.964   1.310  0.00  0.00    +0.143 A 
ATOM      7  N   UNL     1      -0.454 -10.646   1.409  0.00  0.00    -0.253 NA
ATOM      8  C   UNL     1       0.658 -10.357   0.783  0.00  0.00    +0.132 A 
ATOM      9  C   UNL     1       0.673  -9.510  -0.337  0.00  0.00    +0.091 A 
ATOM     10  C   UNL     1      -0.532  -8.960  -0.798  0.00  0.00    +0.060 A 
ENDROOT
BRANCH   1  13
ATOM     11  C   UNL     1      -5.397  -7.447  -0.895  0.00  0.00    +0.241 C 
ATOM     12  O   UNL     1      -4.387  -6.794  -1.079  0.00  0.00    -0.271 OA
ATOM     13  N   UNL     1      -5.336  -8.602  -0.204  0.00  0.00    -0.279 N 
ATOM     14  H   UNL     1      -6.152  -9.079   0.017  0.00  0.00    +0.155 HD
BRANCH  11  16
ATOM     15  C   UNL     1      -6.744  -5.834  -2.110  0.00  0.00    -0.040 C 
ATOM     16  C   UNL     1      -6.684  -6.975  -1.427  0.00  0.00    +0.061 C 
BRANCH  15  17
ATOM     17  C   UNL     1      -8.063  -5.351  -2.655  0.00  0.00    -0.052 C 
BRANCH  17  19
ATOM     18  C   UNL     1      -9.547  -3.471  -2.798  0.00  0.00    -0.096 C 
ATOM     19  N   UNL     1      -8.322  -3.988  -2.172  0.00  0.00    +0.378 N 
ATOM     20  C   UNL     1      -8.489  -4.008  -0.713  0.00  0.00    -0.096 C 
ATOM     21  H   UNL     1      -7.545  -3.392  -2.414  0.00  0.00    -0.082 HD
ENDBRANCH  17  19
ENDBRANCH  15  17
ENDBRANCH  11  16
ENDBRANCH   1  13
BRANCH   6  22
ATOM     22  O   UNL     1      -5.151 -10.283   1.991  0.00  0.00    -0.493 OA
ATOM     23  C   UNL     1      -5.007 -11.153   3.116  0.00  0.00    +0.277 C 
ENDBRANCH   6  22
BRANCH  10  24
ATOM     24  N   UNL     1      -0.560  -8.123  -1.895  0.00  0.00    -0.313 N 
ATOM     25  H   UNL     1      -0.799  -7.189  -1.787  0.00  0.00    +0.152 HD
BRANCH  24  26
ATOM     26  C   UNL     1      -0.245  -8.622  -3.164  0.00  0.00    +0.032 A 
ATOM     27  C   UNL     1      -0.579  -9.936  -3.496  0.00  0.00    +0.025 A 
ATOM     28  C   UNL     1      -0.280 -10.442  -4.728  0.00  0.00    +0.030 A 
ATOM     29  C   UNL     1       0.364  -9.646  -5.672  0.00  0.00    +0.069 A 
ATOM     30  C   UNL     1       0.705  -8.319  -5.349  0.00  0.00    +0.021 A 
ATOM     31  C   UNL     1       0.389  -7.810  -4.084  0.00  0.00    +0.034 A 
ATOM     32  C   UNL     1       1.358  -7.763  -6.529  0.00  0.00    +0.143 A 
ATOM     33  N   UNL     1       1.386  -8.691  -7.443  0.00  0.00    -0.178 NA
ATOM     34  N   UNL     1       0.788  -9.859  -6.960  0.00  0.00    -0.259 N 
BRANCH  34  35
ATOM     35  C   UNL     1       0.639 -11.110  -7.708  0.00  0.00    +0.179 C 
BRANCH  35  36
ATOM     36  C   UNL     1      -0.671 -11.097  -8.452  0.00  0.00    -0.026 A 
ATOM     37  C   UNL     1      -1.814 -11.586  -7.848  0.00  0.00    +0.005 A 
ATOM     38  C   UNL     1      -3.016 -11.574  -8.530  0.00  0.00    +0.000 A 
ATOM     39  C   UNL     1      -3.075 -11.073  -9.817  0.00  0.00    +0.000 A 
ATOM     40  C   UNL     1      -1.932 -10.583 -10.421  0.00  0.00    +0.000 A 
ATOM     41  C   UNL     1      -0.731 -10.591  -9.737  0.00  0.00    +0.005 A 
ENDBRANCH  35  36
ENDBRANCH  34  35
ENDBRANCH  24  26
ENDBRANCH  10  24
BRANCH   9  42
ATOM     42  C   UNL     1       1.906  -9.211  -1.002  0.00  0.00    +0.103 C 
ATOM     43  N   UNL     1       2.884  -8.974  -1.529  0.00  0.00    -0.191 NA
ENDBRANCH   9  42
TORSDOF 10
