REMARK  Name = CHEMBL490496
REMARK  7 active torsions:
REMARK  status: ('A' for Active; 'I' for Inactive)
REMARK    1  A    between atoms: C_2  and  C_3
REMARK    2  A    between atoms: C_7  and  C_25
REMARK    3  A    between atoms: C_12  and  C_16
REMARK    4  A    between atoms: C_16  and  C_17
REMARK    5  A    between atoms: C_26  and  C_27
REMARK    6  A    between atoms: C_27  and  C_28
REMARK    7  A    between atoms: C_28  and  N_29
REMARK                            x       y       z     vdW  Elec       q    Type
REMARK                         _______ _______ _______ _____ _____    ______ ____
ROOT
ATOM      1  C   UNL     1      -1.261  -0.756   0.010  0.00  0.00    +0.242 C 
ATOM      2  O   UNL     1      -2.322  -0.163   0.023  0.00  0.00    -0.270 OA
ATOM      3  N   UNL     1      -1.243  -2.104   0.003  0.00  0.00    -0.266 N 
ATOM      4  C   UNL     1      -2.436  -2.815   0.010  0.00  0.00    +0.133 A 
ATOM      5  C   UNL     1      -2.400  -4.230   0.008  0.00  0.00    +0.017 A 
ATOM      6  C   UNL     1      -3.589  -4.942   0.016  0.00  0.00    +0.041 A 
ATOM      7  C   UNL     1      -4.793  -4.217   0.025  0.00  0.00    +0.093 A 
ATOM      8  C   UNL     1      -4.747  -2.800   0.027  0.00  0.00    +0.113 A 
ATOM      9  N   UNL     1      -3.575  -2.160   0.025  0.00  0.00    -0.228 NA
ATOM     10  C   UNL     1      -5.969  -2.101   0.037  0.00  0.00    +0.075 A 
ATOM     11  N   UNL     1      -7.090  -2.794   0.044  0.00  0.00    -0.238 NA
ATOM     12  C   UNL     1      -7.089  -4.119   0.043  0.00  0.00    +0.222 A 
ATOM     13  N   UNL     1      -5.984  -4.826   0.033  0.00  0.00    -0.234 NA
ATOM     14  H   UNL     1      -0.396  -2.578  -0.008  0.00  0.00    +0.157 HD
ENDROOT
BRANCH   1  16
ATOM     15  C   UNL     1      -0.016   1.326   0.009  0.00  0.00    +0.013 C 
ATOM     16  C   UNL     1       0.002  -0.004   0.002  0.00  0.00    +0.060 C 
ENDBRANCH   1  16
BRANCH   5  17
ATOM     17  C   UNL     1      -1.107  -4.941  -0.003  0.00  0.00    +0.007 C 
ATOM     18  C   UNL     1      -1.079  -6.268  -0.005  0.00  0.00    -0.025 C 
BRANCH  18  19
ATOM     19  C   UNL     1       0.242  -6.994  -0.015  0.00  0.00    +0.042 C 
BRANCH  19  20
ATOM     20  C   UNL     1       0.299  -7.966   1.165  0.00  0.00    +0.088 C 
BRANCH  20  21
ATOM     21  N   UNL     1       1.586  -8.674   1.154  0.00  0.00    -0.298 NA
ATOM     22  C   UNL     1       1.694  -9.552  -0.020  0.00  0.00    +0.112 C 
ATOM     23  C   UNL     1       3.071 -10.223  -0.023  0.00  0.00    +0.175 C 
ATOM     24  O   UNL     1       3.252 -10.935   1.204  0.00  0.00    -0.377 OA
ATOM     25  C   UNL     1       3.153 -10.110   2.368  0.00  0.00    +0.175 C 
ATOM     26  C   UNL     1       1.777  -9.438   2.395  0.00  0.00    +0.112 C 
ENDBRANCH  20  21
ENDBRANCH  19  20
ENDBRANCH  18  19
ENDBRANCH   5  17
BRANCH  10  27
ATOM     27  C   UNL     1      -5.996  -0.594   0.040  0.00  0.00    +0.093 C 
BRANCH  27  28
ATOM     28  C   UNL     1      -6.015  -0.090  -1.380  0.00  0.00    -0.040 A 
ATOM     29  C   UNL     1      -4.826   0.157  -2.042  0.00  0.00    +0.007 A 
ATOM     30  C   UNL     1      -4.841   0.619  -3.344  0.00  0.00    +0.040 A 
ATOM     31  C   UNL     1      -6.048   0.836  -3.987  0.00  0.00    +0.142 A 
ATOM     32  C   UNL     1      -7.239   0.588  -3.324  0.00  0.00    +0.076 A 
ATOM     33  C   UNL     1      -7.221   0.121  -2.022  0.00  0.00    +0.027 A 
ATOM     34 CL   UNL     1      -8.754   0.859  -4.128  0.00  0.00    -0.081 Cl
ATOM     35  F   UNL     1      -6.065   1.288  -5.260  0.00  0.00    -0.204 F 
ENDBRANCH  27  28
ENDBRANCH  10  27
TORSDOF 7
