REMARK  Name = CHEMBL94123
REMARK  4 active torsions:
REMARK  status: ('A' for Active; 'I' for Inactive)
REMARK    1  A    between atoms: C_3  and  N_8
REMARK    2  A    between atoms: C_12  and  N_19
REMARK    3  A    between atoms: C_20  and  C_22
REMARK    4  A    between atoms: C_23  and  N_24
REMARK                            x       y       z     vdW  Elec       q    Type
REMARK                         _______ _______ _______ _____ _____    ______ ____
ROOT
ATOM      1  N   UNL     1       3.543   2.157   0.525  0.00  0.00    -0.299 N 
ATOM      2  C   UNL     1       4.742   1.476   0.457  0.00  0.00    +0.134 A 
ATOM      3  C   UNL     1       5.973   2.174   0.388  0.00  0.00    +0.042 A 
ATOM      4  C   UNL     1       6.034   3.571   0.386  0.00  0.00    +0.036 A 
ATOM      5  C   UNL     1       7.263   4.194   0.317  0.00  0.00    +0.034 A 
ATOM      6  C   UNL     1       8.440   3.442   0.249  0.00  0.00    +0.025 A 
ATOM      7  C   UNL     1       8.401   2.081   0.250  0.00  0.00    +0.030 A 
ATOM      8  C   UNL     1       7.168   1.418   0.320  0.00  0.00    +0.076 A 
ATOM      9  N   UNL     1       7.083   0.079   0.323  0.00  0.00    -0.235 NA
ATOM     10  C   UNL     1       5.915  -0.514   0.389  0.00  0.00    +0.223 A 
ATOM     11  N   UNL     1       4.772   0.150   0.460  0.00  0.00    -0.220 NA
ATOM     12  H   UNL     1       3.529   3.124   0.443  0.00  0.00    +0.154 HD
ENDROOT
BRANCH   1  15
ATOM     13  C   UNL     1       1.159  -0.404   1.651  0.00  0.00    +0.003 A 
ATOM     14  C   UNL     1       2.340   0.288   1.467  0.00  0.00    +0.023 A 
ATOM     15  C   UNL     1       2.350   1.455   0.713  0.00  0.00    +0.033 A 
ATOM     16  C   UNL     1       1.170   1.922   0.148  0.00  0.00    +0.038 A 
ATOM     17  C   UNL     1      -0.008   1.226   0.336  0.00  0.00    +0.020 A 
ATOM     18  C   UNL     1      -0.013   0.063   1.087  0.00  0.00    +0.015 A 
ATOM     19 BR   UNL     1      -1.614   1.861  -0.433  0.00  0.00    -0.050 Br
ENDBRANCH   1  15
BRANCH   5  20
ATOM     20  N   UNL     1       7.333   5.592   0.315  0.00  0.00    -0.282 N 
ATOM     21  C   UNL     1       8.368   6.216   0.911  0.00  0.00    +0.242 C 
ATOM     22  O   UNL     1       9.195   5.569   1.529  0.00  0.00    -0.270 OA
ATOM     23  H   UNL     1       6.636   6.112  -0.116  0.00  0.00    +0.155 HD
BRANCH  21  24
ATOM     24  C   UNL     1       8.495   7.621   0.819  0.00  0.00    +0.082 C 
ATOM     25  C   UNL     1       9.531   8.245   1.416  0.00  0.00    +0.075 C 
BRANCH  25  26
ATOM     26  N   UNL     1       9.587   9.611   1.435  0.00  0.00    -0.331 N 
ATOM     27  C   UNL     1       8.469  10.422   0.928  0.00  0.00    +0.132 C 
ATOM     28  C   UNL     1       8.105  11.464   1.992  0.00  0.00    +0.178 C 
ATOM     29  O   UNL     1       9.284  12.177   2.375  0.00  0.00    -0.377 OA
ATOM     30  C   UNL     1      10.290  11.361   2.978  0.00  0.00    +0.178 C 
ATOM     31  C   UNL     1      10.764  10.314   1.970  0.00  0.00    +0.132 C 
ENDBRANCH  25  26
ENDBRANCH  21  24
ENDBRANCH   5  20
TORSDOF 4
