REMARK  Name = CHEMBL179310
REMARK  14 active torsions:
REMARK  status: ('A' for Active; 'I' for Inactive)
REMARK    1  A    between atoms: C_1  and  C_2
REMARK    2  A    between atoms: C_2  and  O_3
REMARK    3  A    between atoms: O_3  and  C_4
REMARK    4  A    between atoms: C_9  and  N_10
REMARK    5  A    between atoms: C_11  and  C_13
REMARK    6  A    between atoms: C_14  and  C_15
REMARK    7  A    between atoms: C_15  and  N_16
REMARK    8  A    between atoms: N_16  and  C_17
REMARK    9  A    between atoms: N_16  and  C_18
REMARK   10  A    between atoms: C_19  and  N_25
REMARK   11  A    between atoms: C_20  and  C_23
REMARK   12  A    between atoms: N_25  and  C_26
REMARK   13  A    between atoms: N_34  and  C_35
REMARK   14  A    between atoms: C_35  and  C_36
REMARK                            x       y       z     vdW  Elec       q    Type
REMARK                         _______ _______ _______ _____ _____    ______ ____
ROOT
ATOM      1  C   UNL     1       1.687  -3.737  -1.556  0.00  0.00    +0.144 A 
ATOM      2  C   UNL     1       0.377  -4.087  -1.324  0.00  0.00    +0.076 A 
ATOM      3  C   UNL     1       0.030  -4.759  -0.142  0.00  0.00    +0.076 A 
ATOM      4  C   UNL     1       1.041  -5.069   0.800  0.00  0.00    +0.025 A 
ATOM      5  C   UNL     1       2.371  -4.705   0.546  0.00  0.00    +0.039 A 
ATOM      6  C   UNL     1       2.688  -4.050  -0.623  0.00  0.00    +0.077 A 
ATOM      7  C   UNL     1       0.686  -5.747   1.990  0.00  0.00    +0.060 A 
ATOM      8  C   UNL     1      -0.664  -6.080   2.176  0.00  0.00    +0.091 A 
ATOM      9  C   UNL     1      -1.599  -5.733   1.188  0.00  0.00    +0.132 A 
ATOM     10  N   UNL     1      -1.243  -5.106   0.096  0.00  0.00    -0.253 NA
ENDROOT
BRANCH   6  11
ATOM     11  N   UNL     1       4.016  -3.691  -0.881  0.00  0.00    -0.279 N 
ATOM     12  C   UNL     1       4.857  -3.439   0.142  0.00  0.00    +0.241 C 
ATOM     13  O   UNL     1       4.493  -3.624   1.288  0.00  0.00    -0.271 OA
ATOM     14  H   UNL     1       4.331  -3.623  -1.796  0.00  0.00    +0.155 HD
BRANCH  12  15
ATOM     15  C   UNL     1       6.214  -2.941  -0.127  0.00  0.00    +0.061 C 
ATOM     16  C   UNL     1       7.044  -2.693   0.882  0.00  0.00    -0.040 C 
BRANCH  16  17
ATOM     17  C   UNL     1       8.435  -2.183   0.606  0.00  0.00    -0.052 C 
BRANCH  17  18
ATOM     18  N   UNL     1       8.655  -0.934   1.348  0.00  0.00    +0.378 N 
ATOM     19  C   UNL     1      10.047  -0.500   1.175  0.00  0.00    -0.096 C 
ATOM     20  C   UNL     1       7.751   0.105   0.836  0.00  0.00    -0.096 C 
ATOM     21  H   UNL     1       8.470  -1.088   2.328  0.00  0.00    -0.082 HD
ENDBRANCH  17  18
ENDBRANCH  16  17
ENDBRANCH  12  15
ENDBRANCH   6  11
BRANCH   8  22
ATOM     22  C   UNL     1      -1.084  -6.767   3.361  0.00  0.00    +0.103 C 
ATOM     23  N   UNL     1      -1.417  -7.312   4.300  0.00  0.00    -0.191 NA
ENDBRANCH   8  22
BRANCH   7  24
ATOM     24  N   UNL     1       1.637  -6.070   2.937  0.00  0.00    -0.313 N 
ATOM     25  H   UNL     1       1.948  -5.396   3.561  0.00  0.00    +0.152 HD
BRANCH  24  26
ATOM     26  C   UNL     1       2.152  -7.370   2.996  0.00  0.00    +0.032 A 
ATOM     27  C   UNL     1       2.009  -8.228   1.912  0.00  0.00    +0.025 A 
ATOM     28  C   UNL     1       2.516  -9.507   1.971  0.00  0.00    +0.025 A 
ATOM     29  C   UNL     1       3.177  -9.954   3.117  0.00  0.00    +0.033 A 
ATOM     30  C   UNL     1       3.317  -9.093   4.194  0.00  0.00    -0.023 A 
ATOM     31  C   UNL     1       2.813  -7.808   4.136  0.00  0.00    +0.028 A 
ATOM     32  C   UNL     1       4.062  -9.815   5.294  0.00  0.00    +0.056 C 
ATOM     33  C   UNL     1       4.341 -11.213   4.719  0.00  0.00    +0.110 C 
ATOM     34  N   UNL     1       3.758 -11.200   3.375  0.00  0.00    -0.325 N 
BRANCH  34  35
ATOM     35  C   UNL     1       3.779 -12.326   2.439  0.00  0.00    +0.140 C 
BRANCH  35  36
ATOM     36  C   UNL     1       5.019 -12.249   1.587  0.00  0.00    -0.030 A 
ATOM     37  C   UNL     1       4.996 -11.551   0.394  0.00  0.00    +0.005 A 
ATOM     38  C   UNL     1       6.134 -11.479  -0.387  0.00  0.00    +0.000 A 
ATOM     39  C   UNL     1       7.295 -12.106   0.025  0.00  0.00    +0.000 A 
ATOM     40  C   UNL     1       7.319 -12.803   1.218  0.00  0.00    +0.000 A 
ATOM     41  C   UNL     1       6.182 -12.871   2.002  0.00  0.00    +0.005 A 
ENDBRANCH  35  36
ENDBRANCH  34  35
ENDBRANCH  24  26
ENDBRANCH   7  24
BRANCH   1  42
ATOM     42  O   UNL     1       2.016  -3.086  -2.702  0.00  0.00    -0.490 OA
BRANCH  42  44
ATOM     43  C   UNL     1       1.512  -2.066  -4.834  0.00  0.00    +0.048 C 
ATOM     44  C   UNL     1       0.953  -2.796  -3.611  0.00  0.00    +0.226 C 
ENDBRANCH  42  44
ENDBRANCH   1  42
TORSDOF 11
