REMARK  Name = CHEMBL566559
REMARK  9 active torsions:
REMARK  status: ('A' for Active; 'I' for Inactive)
REMARK    1  A    between atoms: C_1  and  C_2
REMARK    2  A    between atoms: C_2  and  C_3
REMARK    3  A    between atoms: C_9  and  N_10
REMARK    4  A    between atoms: N_10  and  C_11
REMARK    5  A    between atoms: N_19  and  C_20
REMARK    6  A    between atoms: C_20  and  C_21
REMARK    7  A    between atoms: C_30  and  O_32
REMARK    8  A    between atoms: O_32  and  C_33
REMARK    9  A    between atoms: C_33  and  C_34
REMARK                            x       y       z     vdW  Elec       q    Type
REMARK                         _______ _______ _______ _____ _____    ______ ____
ROOT
ATOM      1  C   UNL     1       0.815   0.189   1.876  0.00  0.00    +0.003 C 
ATOM      2  C   UNL     1       0.138  -0.431   2.831  0.00  0.00    +0.047 C 
ATOM      3  C   UNL     1       1.089  -0.543   4.021  0.00  0.00    +0.258 C 
ATOM      4  N   UNL     1       0.957  -1.922   4.488  0.00  0.00    -0.241 NA
ATOM      5  C   UNL     1      -0.168  -2.550   4.320  0.00  0.00    +0.220 C 
ATOM      6  N   UNL     1      -1.264  -2.080   3.721  0.00  0.00    -0.219 NA
ATOM      7  C   UNL     1      -1.213  -0.999   2.931  0.00  0.00    +0.152 C 
ATOM      8  N   UNL     1       2.397  -0.197   3.487  0.00  0.00    -0.237 NA
ATOM      9  C   UNL     1       2.232   0.265   2.277  0.00  0.00    +0.129 C 
ATOM     10  N   UNL     1       3.250   0.763   1.479  0.00  0.00    -0.236 N 
ATOM     11  C   UNL     1       4.516   0.789   1.940  0.00  0.00    +0.406 C 
ATOM     12  O   UNL     1       4.765   0.376   3.055  0.00  0.00    -0.226 OA
ATOM     13  H   UNL     1       3.051   1.093   0.589  0.00  0.00    +0.160 HD
ENDROOT
BRANCH   1  15
ATOM     14  C   UNL     1      -0.096   2.207   0.759  0.00  0.00    +0.009 C 
ATOM     15  C   UNL     1       0.235   0.723   0.592  0.00  0.00    +0.036 C 
ENDBRANCH   1  15
BRANCH   7  16
ATOM     16  N   UNL     1      -2.306  -0.477   2.285  0.00  0.00    -0.196 NA
BRANCH  16  17
ATOM     17  C   UNL     1      -3.595  -0.864   2.667  0.00  0.00    +0.056 A 
ATOM     18  C   UNL     1      -4.642  -0.799   1.746  0.00  0.00    +0.027 A 
ATOM     19  C   UNL     1      -5.906  -1.171   2.099  0.00  0.00    +0.030 A 
ATOM     20  C   UNL     1      -6.167  -1.624   3.390  0.00  0.00    +0.069 A 
ATOM     21  C   UNL     1      -5.118  -1.694   4.328  0.00  0.00    +0.022 A 
ATOM     22  C   UNL     1      -3.825  -1.315   3.952  0.00  0.00    +0.036 A 
ATOM     23  C   UNL     1      -5.707  -2.198   5.565  0.00  0.00    +0.143 A 
ATOM     24  N   UNL     1      -6.976  -2.396   5.350  0.00  0.00    -0.178 NA
ATOM     25  N   UNL     1      -7.299  -2.058   4.032  0.00  0.00    -0.259 N 
BRANCH  25  26
ATOM     26  C   UNL     1      -8.633  -2.151   3.433  0.00  0.00    +0.179 C 
BRANCH  26  27
ATOM     27  C   UNL     1      -8.812  -3.514   2.817  0.00  0.00    -0.026 A 
ATOM     28  C   UNL     1      -8.453  -3.731   1.500  0.00  0.00    +0.005 A 
ATOM     29  C   UNL     1      -8.617  -4.981   0.935  0.00  0.00    +0.000 A 
ATOM     30  C   UNL     1      -9.142  -6.016   1.687  0.00  0.00    +0.000 A 
ATOM     31  C   UNL     1      -9.501  -5.800   3.004  0.00  0.00    +0.000 A 
ATOM     32  C   UNL     1      -9.332  -4.550   3.570  0.00  0.00    +0.005 A 
ENDBRANCH  26  27
ENDBRANCH  25  26
ENDBRANCH  16  17
ENDBRANCH   7  16
BRANCH  11  33
ATOM     33  O   UNL     1       5.505   1.273   1.165  0.00  0.00    -0.452 OA
BRANCH  33  34
ATOM     34  C   UNL     1       6.822   1.270   1.717  0.00  0.00    +0.218 C 
BRANCH  34  35
ATOM     35  C   UNL     1       7.804   1.852   0.698  0.00  0.00    -0.033 C 
ATOM     36  C   UNL     1       7.328   3.242   0.269  0.00  0.00    -0.013 C 
ATOM     37  C   UNL     1       8.313   3.820  -0.751  0.00  0.00    -0.003 C 
ATOM     38  C   UNL     1       8.432   2.856  -1.935  0.00  0.00    -0.019 C 
ATOM     39  C   UNL     1       8.867   1.481  -1.424  0.00  0.00    -0.082 C 
ATOM     40  N   UNL     1       7.872   0.971  -0.474  0.00  0.00    +0.383 N 
ATOM     41  H   UNL     1       8.134   0.042  -0.180  0.00  0.00    -0.085 HD
ATOM     42  H   UNL     1       6.968   0.937  -0.921  0.00  0.00    -0.085 HD
ENDBRANCH  34  35
ENDBRANCH  33  34
ENDBRANCH  11  33
TORSDOF 8
