REMARK  Name = CHEMBL293991
REMARK  9 active torsions:
REMARK  status: ('A' for Active; 'I' for Inactive)
REMARK    1  A    between atoms: C_3  and  N_14
REMARK    2  A    between atoms: C_5  and  O_7
REMARK    3  A    between atoms: O_7  and  C_8
REMARK    4  A    between atoms: C_8  and  C_9
REMARK    5  A    between atoms: C_19  and  C_21
REMARK    6  A    between atoms: N_29  and  C_30
REMARK    7  A    between atoms: C_30  and  C_31
REMARK    8  A    between atoms: C_31  and  C_32
REMARK    9  A    between atoms: C_32  and  N_33
REMARK                            x       y       z     vdW  Elec       q    Type
REMARK                         _______ _______ _______ _____ _____    ______ ____
ROOT
ATOM      1  N   UNL     1       3.583   2.131  -0.021  0.00  0.00    -0.284 N 
ATOM      2  C   UNL     1       3.562   3.512  -0.119  0.00  0.00    +0.220 A 
ATOM      3  N   UNL     1       2.397   4.144  -0.097  0.00  0.00    -0.223 NA
ATOM      4  C   UNL     1       2.335   5.463  -0.188  0.00  0.00    +0.116 A 
ATOM      5  C   UNL     1       3.506   6.189  -0.306  0.00  0.00    +0.048 A 
ATOM      6  C   UNL     1       4.721   5.496  -0.326  0.00  0.00    +0.077 A 
ATOM      7  N   UNL     1       4.707   4.168  -0.225  0.00  0.00    -0.214 NA
ATOM      8  H   UNL     1       4.429   1.662   0.049  0.00  0.00    +0.155 HD
ENDROOT
BRANCH   6   9
ATOM      9  C   UNL     1       6.002   6.227  -0.452  0.00  0.00    +0.010 A 
ATOM     10  C   UNL     1       6.011   7.614  -0.545  0.00  0.00    +0.011 A 
ATOM     11  C   UNL     1       7.210   8.296  -0.662  0.00  0.00    +0.003 A 
ATOM     12  C   UNL     1       8.411   7.617  -0.687  0.00  0.00    +0.026 A 
ATOM     13  C   UNL     1       8.431   6.230  -0.596  0.00  0.00    +0.050 A 
ATOM     14  C   UNL     1       7.221   5.526  -0.471  0.00  0.00    +0.009 A 
ATOM     15  C   UNL     1       7.580   4.111  -0.392  0.00  0.00    +0.028 A 
ATOM     16  C   UNL     1       8.921   4.041  -0.463  0.00  0.00    +0.087 A 
ATOM     17  N   UNL     1       9.445   5.297  -0.594  0.00  0.00    -0.347 N 
BRANCH  17  18
ATOM     18  C   UNL     1      10.873   5.606  -0.700  0.00  0.00    +0.120 C 
BRANCH  18  19
ATOM     19  C   UNL     1      11.429   5.931   0.688  0.00  0.00    +0.002 C 
BRANCH  19  20
ATOM     20  C   UNL     1      12.921   6.254   0.578  0.00  0.00    -0.085 C 
BRANCH  20  21
ATOM     21  N   UNL     1      13.454   6.566   1.910  0.00  0.00    +0.378 N 
ATOM     22  H   UNL     1      14.438   6.779   1.837  0.00  0.00    -0.090 HD
ATOM     23  H   UNL     1      12.965   7.363   2.290  0.00  0.00    -0.090 HD
ATOM     24  H   UNL     1      13.326   5.772   2.519  0.00  0.00    -0.090 HD
ENDBRANCH  20  21
ENDBRANCH  19  20
ENDBRANCH  18  19
ENDBRANCH  17  18
ENDBRANCH   6   9
BRANCH   1  27
ATOM     25  C   UNL     1       0.119   1.153  -0.775  0.00  0.00    +0.005 A 
ATOM     26  C   UNL     1       1.303   1.864  -0.772  0.00  0.00    +0.023 A 
ATOM     27  C   UNL     1       2.383   1.412  -0.024  0.00  0.00    +0.037 A 
ATOM     28  C   UNL     1       2.270   0.245   0.720  0.00  0.00    +0.069 A 
ATOM     29  C   UNL     1       1.080  -0.465   0.714  0.00  0.00    +0.129 A 
ATOM     30  C   UNL     1       0.004  -0.008  -0.035  0.00  0.00    +0.046 A 
BRANCH  29  31
ATOM     31  O   UNL     1       0.967  -1.607   1.440  0.00  0.00    -0.428 OA
BRANCH  31  32
ATOM     32  C   UNL     1      -0.289  -2.288   1.388  0.00  0.00    +0.463 C 
ATOM     33  F   UNL     1      -1.298  -1.441   1.858  0.00  0.00    -0.158 F 
ATOM     34  F   UNL     1      -0.566  -2.654   0.066  0.00  0.00    -0.158 F 
BRANCH  32  35
ATOM     35  C   UNL     1      -0.227  -3.542   2.262  0.00  0.00    +0.453 C 
ATOM     36  F   UNL     1      -1.456  -4.208   2.210  0.00  0.00    -0.198 F 
ATOM     37  F   UNL     1       0.782  -4.389   1.791  0.00  0.00    -0.198 F 
ENDBRANCH  32  35
ENDBRANCH  31  32
ENDBRANCH  29  31
ENDBRANCH   1  27
TORSDOF 9
