REMARK  Name = CHEMBL245800
REMARK  7 active torsions:
REMARK  status: ('A' for Active; 'I' for Inactive)
REMARK    1  A    between atoms: C_4  and  C_7
REMARK    2  A    between atoms: C_10  and  N_12
REMARK    3  A    between atoms: N_12  and  C_13
REMARK    4  A    between atoms: C_16  and  C_25
REMARK    5  A    between atoms: C_22  and  C_23
REMARK    6  A    between atoms: C_28  and  C_31
REMARK    7  A    between atoms: C_31  and  N_32
REMARK                            x       y       z     vdW  Elec       q    Type
REMARK                         _______ _______ _______ _____ _____    ______ ____
ROOT
ATOM      1  C   UNL     1       5.674  -2.036   2.902  0.00  0.00    +0.056 A 
ATOM      2  C   UNL     1       6.936  -1.731   3.467  0.00  0.00    +0.023 A 
ATOM      3  C   UNL     1       7.944  -1.131   2.703  0.00  0.00    +0.020 A 
ATOM      4  C   UNL     1       9.165  -0.847   3.290  0.00  0.00    -0.017 A 
ATOM      5  C   UNL     1       9.393  -1.156   4.639  0.00  0.00    +0.010 A 
ATOM      6  C   UNL     1       8.424  -1.739   5.394  0.00  0.00    +0.029 A 
ATOM      7  C   UNL     1       7.173  -2.040   4.828  0.00  0.00    +0.073 A 
ATOM      8  N   UNL     1       6.213  -2.613   5.566  0.00  0.00    -0.254 NA
ATOM      9  C   UNL     1       5.037  -2.906   5.070  0.00  0.00    +0.132 A 
ATOM     10  C   UNL     1       4.713  -2.631   3.732  0.00  0.00    +0.091 A 
ENDROOT
BRANCH   4  11
ATOM     11  C   UNL     1      10.239  -0.211   2.487  0.00  0.00    -0.018 A 
ATOM     12  C   UNL     1      10.018   0.104   1.148  0.00  0.00    +0.009 A 
ATOM     13  C   UNL     1      11.021   0.695   0.406  0.00  0.00    +0.002 A 
ATOM     14  C   UNL     1      12.243   0.975   0.990  0.00  0.00    -0.065 A 
ATOM     15  C   UNL     1      12.468   0.664   2.319  0.00  0.00    +0.002 A 
ATOM     16  C   UNL     1      11.471   0.077   3.071  0.00  0.00    +0.009 A 
BRANCH  14  17
ATOM     17  C   UNL     1      13.334   1.620   0.175  0.00  0.00    -0.051 C 
BRANCH  17  18
ATOM     18  N   UNL     1      13.226   3.081   0.280  0.00  0.00    +0.381 N 
ATOM     19  H   UNL     1      12.326   3.377  -0.067  0.00  0.00    -0.090 HD
ATOM     20  H   UNL     1      13.320   3.356   1.246  0.00  0.00    -0.090 HD
ATOM     21  H   UNL     1      13.956   3.513  -0.265  0.00  0.00    -0.090 HD
ENDBRANCH  17  18
ENDBRANCH  14  17
ENDBRANCH   4  11
BRANCH   1  22
ATOM     22  N   UNL     1       5.398  -1.752   1.581  0.00  0.00    -0.339 N 
ATOM     23  H   UNL     1       5.586  -2.411   0.894  0.00  0.00    +0.146 HD
BRANCH  22  26
ATOM     24  C   UNL     1       5.045   0.039  -0.214  0.00  0.00    +0.041 C 
ATOM     25  C   UNL     1       3.663  -0.457   0.213  0.00  0.00    +0.032 C 
ATOM     26  C   UNL     1       4.819  -0.457   1.216  0.00  0.00    +0.078 C 
BRANCH  24  30
ATOM     27  C   UNL     1       5.541   4.243  -0.789  0.00  0.00    +0.000 A 
ATOM     28  C   UNL     1       6.548   3.371  -1.160  0.00  0.00    +0.000 A 
ATOM     29  C   UNL     1       6.387   2.011  -0.974  0.00  0.00    +0.004 A 
ATOM     30  C   UNL     1       5.220   1.522  -0.416  0.00  0.00    -0.042 A 
ATOM     31  C   UNL     1       4.214   2.394  -0.045  0.00  0.00    +0.004 A 
ATOM     32  C   UNL     1       4.374   3.755  -0.232  0.00  0.00    +0.000 A 
ENDBRANCH  24  30
ENDBRANCH  22  26
ENDBRANCH   1  22
BRANCH  10  33
ATOM     33  C   UNL     1       3.416  -2.958   3.220  0.00  0.00    +0.103 C 
ATOM     34  N   UNL     1       2.388  -3.217   2.813  0.00  0.00    -0.191 NA
ENDBRANCH  10  33
TORSDOF 7
