REMARK  Name = CHEMBL592211
REMARK  7 active torsions:
REMARK  status: ('A' for Active; 'I' for Inactive)
REMARK    1  A    between atoms: C_4  and  N_7
REMARK    2  A    between atoms: N_10  and  C_11
REMARK    3  A    between atoms: N_10  and  C_19
REMARK    4  A    between atoms: C_11  and  C_12
REMARK    5  A    between atoms: C_15  and  O_18
REMARK    6  A    between atoms: C_19  and  C_20
REMARK    7  A    between atoms: C_25  and  O_26
REMARK                            x       y       z     vdW  Elec       q    Type
REMARK                         _______ _______ _______ _____ _____    ______ ____
ROOT
ATOM      1  N   UNL     1       3.622  -0.651  -0.036  0.00  0.00    -0.269 N 
ATOM      2  C   UNL     1       3.645  -1.995   0.058  0.00  0.00    +0.307 C 
ATOM      3  O   UNL     1       2.603  -2.622   0.065  0.00  0.00    -0.252 OA
ATOM      4  N   UNL     1       4.823  -2.644   0.144  0.00  0.00    -0.277 N 
ATOM      5  H   UNL     1       4.452  -0.156  -0.120  0.00  0.00    +0.156 HD
ENDROOT
BRANCH   1   9
ATOM      6  C   UNL     1      -0.015   1.381   0.031  0.00  0.00    +0.000 A 
ATOM      7  C   UNL     1       0.140   0.219   0.765  0.00  0.00    +0.002 A 
ATOM      8  C   UNL     1       1.344  -0.457   0.744  0.00  0.00    +0.023 A 
ATOM      9  C   UNL     1       2.400   0.031  -0.014  0.00  0.00    +0.035 A 
ATOM     10  C   UNL     1       2.241   1.198  -0.749  0.00  0.00    +0.023 A 
ATOM     11  C   UNL     1       1.034   1.870  -0.725  0.00  0.00    +0.002 A 
ENDBRANCH   1   9
BRANCH   4  12
ATOM     12  C   UNL     1       4.848  -4.106   0.247  0.00  0.00    +0.144 C 
BRANCH  12  13
ATOM     13  C   UNL     1       4.906  -4.705  -1.134  0.00  0.00    -0.030 A 
ATOM     14  C   UNL     1       3.735  -4.998  -1.810  0.00  0.00    +0.009 A 
ATOM     15  C   UNL     1       3.786  -5.548  -3.076  0.00  0.00    +0.046 A 
ATOM     16  C   UNL     1       5.013  -5.806  -3.670  0.00  0.00    +0.117 A 
ATOM     17  C   UNL     1       6.186  -5.511  -2.991  0.00  0.00    +0.046 A 
ATOM     18  C   UNL     1       6.130  -4.956  -1.727  0.00  0.00    +0.009 A 
BRANCH  16  19
ATOM     19  O   UNL     1       5.065  -6.348  -4.915  0.00  0.00    -0.507 OA
ATOM     20  H   UNL     1       5.080  -5.694  -5.628  0.00  0.00    +0.292 HD
ENDBRANCH  16  19
ENDBRANCH  12  13
ENDBRANCH   4  12
BRANCH   4  21
ATOM     21  C   UNL     1       6.078  -1.889   0.136  0.00  0.00    +0.148 C 
BRANCH  21  22
ATOM     22  C   UNL     1       6.459  -1.531   1.549  0.00  0.00    +0.013 A 
ATOM     23  C   UNL     1       6.192  -0.267   2.038  0.00  0.00    +0.009 A 
ATOM     24  C   UNL     1       6.541   0.062   3.335  0.00  0.00    +0.002 A 
ATOM     25  C   UNL     1       7.157  -0.872   4.146  0.00  0.00    +0.024 A 
ATOM     26  C   UNL     1       7.426  -2.139   3.662  0.00  0.00    +0.083 A 
ATOM     27  C   UNL     1       7.072  -2.473   2.362  0.00  0.00    +0.140 A 
ATOM     28 CL   UNL     1       8.200  -3.312   4.681  0.00  0.00    -0.080 Cl
BRANCH  27  29
ATOM     29  O   UNL     1       7.329  -3.720   1.885  0.00  0.00    -0.505 OA
ATOM     30  H   UNL     1       8.196  -3.808   1.465  0.00  0.00    +0.292 HD
ENDBRANCH  27  29
ENDBRANCH  21  22
ENDBRANCH   4  21
TORSDOF 7
