REMARK  Name = CHEMBL429300
REMARK  14 active torsions:
REMARK  status: ('A' for Active; 'I' for Inactive)
REMARK    1  A    between atoms: C_1  and  C_2
REMARK    2  A    between atoms: C_2  and  N_3
REMARK    3  A    between atoms: N_3  and  C_4
REMARK    4  A    between atoms: N_3  and  C_6
REMARK    5  A    between atoms: C_4  and  C_5
REMARK    6  A    between atoms: C_6  and  C_7
REMARK    7  A    between atoms: C_6  and  C_8
REMARK    8  A    between atoms: C_6  and  C_15
REMARK    9  A    between atoms: C_8  and  C_9
REMARK   10  A    between atoms: C_16  and  C_17
REMARK   11  A    between atoms: C_20  and  O_29
REMARK   12  A    between atoms: C_21  and  O_27
REMARK   13  A    between atoms: O_27  and  C_28
REMARK   14  A    between atoms: O_29  and  C_30
REMARK                            x       y       z     vdW  Elec       q    Type
REMARK                         _______ _______ _______ _____ _____    ______ ____
ROOT
ATOM      1  C   UNL     1       1.165  -2.047   0.253  0.00  0.00    -0.107 C 
ATOM      2  C   UNL     1       1.687  -2.205   1.293  0.00  0.00    -0.047 C 
ENDROOT
BRANCH   2   3
ATOM      3  C   UNL     1       2.324  -2.398   2.561  0.00  0.00    +0.124 A 
ATOM      4  C   UNL     1       2.757  -1.292   3.334  0.00  0.00    +0.038 A 
ATOM      5  C   UNL     1       2.586   0.028   2.903  0.00  0.00    +0.062 A 
ATOM      6  C   UNL     1       3.023   1.056   3.689  0.00  0.00    +0.162 A 
ATOM      7  C   UNL     1       3.640   0.802   4.923  0.00  0.00    +0.164 A 
ATOM      8  C   UNL     1       3.820  -0.478   5.367  0.00  0.00    +0.077 A 
ATOM      9  C   UNL     1       3.381  -1.551   4.581  0.00  0.00    +0.079 A 
ATOM     10  N   UNL     1       3.533  -2.824   4.973  0.00  0.00    -0.235 NA
ATOM     11  C   UNL     1       3.112  -3.810   4.215  0.00  0.00    +0.223 A 
ATOM     12  N   UNL     1       2.520  -3.619   3.048  0.00  0.00    -0.227 NA
BRANCH   7  13
ATOM     13  O   UNL     1       4.066   1.842   5.686  0.00  0.00    -0.491 OA
ATOM     14  C   UNL     1       4.688   1.521   6.933  0.00  0.00    +0.277 C 
ENDBRANCH   7  13
BRANCH   6  15
ATOM     15  O   UNL     1       2.857   2.339   3.272  0.00  0.00    -0.491 OA
ATOM     16  C   UNL     1       2.222   2.533   2.007  0.00  0.00    +0.277 C 
ENDBRANCH   6  15
ENDBRANCH   2   3
BRANCH   1  17
ATOM     17  C   UNL     1       0.511  -1.849  -1.051  0.00  0.00    +0.000 C 
ATOM     18  C   UNL     1       1.329  -2.541  -2.143  0.00  0.00    +0.004 C 
BRANCH  17  19
ATOM     19  N   UNL     1       0.424  -0.411  -1.341  0.00  0.00    +0.390 N 
ATOM     20  H   UNL     1      -0.228  -0.260  -2.096  0.00  0.00    -0.080 HD
BRANCH  19  22
ATOM     21  C   UNL     1      -0.248   1.781  -0.481  0.00  0.00    -0.017 C 
ATOM     22  C   UNL     1      -0.038   0.303  -0.144  0.00  0.00    -0.080 C 
ENDBRANCH  19  22
BRANCH  19  23
ATOM     23  C   UNL     1       1.748   0.090  -1.731  0.00  0.00    -0.080 C 
ATOM     24  C   UNL     1       2.725  -0.089  -0.567  0.00  0.00    -0.017 C 
ENDBRANCH  19  23
ENDBRANCH  17  19
BRANCH  17  25
ATOM     25  C   UNL     1      -0.896  -2.447  -1.011  0.00  0.00    +0.035 C 
BRANCH  25  26
ATOM     26  C   UNL     1      -1.566  -2.244  -2.346  0.00  0.00    -0.048 A 
ATOM     27  C   UNL     1      -2.304  -1.100  -2.582  0.00  0.00    +0.003 A 
ATOM     28  C   UNL     1      -2.919  -0.913  -3.806  0.00  0.00    +0.000 A 
ATOM     29  C   UNL     1      -2.795  -1.872  -4.794  0.00  0.00    +0.000 A 
ATOM     30  C   UNL     1      -2.056  -3.016  -4.559  0.00  0.00    +0.000 A 
ATOM     31  C   UNL     1      -1.438  -3.200  -3.336  0.00  0.00    +0.003 A 
ENDBRANCH  25  26
ENDBRANCH  17  25
ENDBRANCH   1  17
TORSDOF 9
