REMARK  Name = CHEMBL417478
REMARK  7 active torsions:
REMARK  status: ('A' for Active; 'I' for Inactive)
REMARK    1  A    between atoms: C_2  and  C_3
REMARK    2  A    between atoms: C_7  and  C_25
REMARK    3  A    between atoms: C_12  and  N_16
REMARK    4  A    between atoms: N_16  and  C_17
REMARK    5  A    between atoms: C_26  and  C_27
REMARK    6  A    between atoms: C_27  and  C_28
REMARK    7  A    between atoms: C_28  and  N_29
REMARK                            x       y       z     vdW  Elec       q    Type
REMARK                         _______ _______ _______ _____ _____    ______ ____
ROOT
ATOM      1  C   UNL     1       1.365  -0.715  -0.911  0.00  0.00    +0.242 C 
ATOM      2  O   UNL     1       2.394  -0.094  -0.721  0.00  0.00    -0.270 OA
ATOM      3  N   UNL     1       1.382  -2.063  -0.911  0.00  0.00    -0.266 N 
ATOM      4  C   UNL     1       2.574  -2.743  -0.695  0.00  0.00    +0.133 A 
ATOM      5  C   UNL     1       2.577  -4.157  -0.704  0.00  0.00    +0.017 A 
ATOM      6  C   UNL     1       3.767  -4.837  -0.488  0.00  0.00    +0.041 A 
ATOM      7  C   UNL     1       4.929  -4.080  -0.268  0.00  0.00    +0.095 A 
ATOM      8  C   UNL     1       4.845  -2.668  -0.274  0.00  0.00    +0.131 A 
ATOM      9  N   UNL     1       3.679  -2.059  -0.491  0.00  0.00    -0.226 NA
ATOM     10  C   UNL     1       6.036  -1.932  -0.049  0.00  0.00    +0.152 A 
ATOM     11  N   UNL     1       7.161  -2.604   0.154  0.00  0.00    -0.218 NA
ATOM     12  C   UNL     1       7.189  -3.926   0.150  0.00  0.00    +0.224 A 
ATOM     13  N   UNL     1       6.119  -4.659  -0.052  0.00  0.00    -0.234 NA
ATOM     14  H   UNL     1       0.562  -2.558  -1.062  0.00  0.00    +0.157 HD
ENDROOT
BRANCH   1  16
ATOM     15  C   UNL     1       0.087   1.335  -1.139  0.00  0.00    +0.013 C 
ATOM     16  C   UNL     1       0.103   0.005  -1.139  0.00  0.00    +0.060 C 
ENDBRANCH   1  16
BRANCH  10  17
ATOM     17  N   UNL     1       6.025  -0.552  -0.042  0.00  0.00    -0.298 N 
ATOM     18  H   UNL     1       5.184  -0.073  -0.109  0.00  0.00    +0.154 HD
BRANCH  17  19
ATOM     19  C   UNL     1       7.227   0.157   0.061  0.00  0.00    +0.034 A 
ATOM     20  C   UNL     1       7.272   1.349   0.773  0.00  0.00    +0.026 A 
ATOM     21  C   UNL     1       8.459   2.047   0.874  0.00  0.00    +0.041 A 
ATOM     22  C   UNL     1       9.604   1.561   0.266  0.00  0.00    +0.142 A 
ATOM     23  C   UNL     1       9.562   0.372  -0.445  0.00  0.00    +0.078 A 
ATOM     24  C   UNL     1       8.377  -0.333  -0.544  0.00  0.00    +0.046 A 
ATOM     25 CL   UNL     1      10.998  -0.235  -1.207  0.00  0.00    -0.081 Cl
ATOM     26  F   UNL     1      10.764   2.246   0.366  0.00  0.00    -0.204 F 
ENDBRANCH  17  19
ENDBRANCH  10  17
BRANCH   5  27
ATOM     27  C   UNL     1       1.325  -4.902  -0.940  0.00  0.00    +0.007 C 
ATOM     28  C   UNL     1       1.335  -6.229  -0.948  0.00  0.00    -0.028 C 
BRANCH  28  29
ATOM     29  C   UNL     1       0.056  -6.990  -1.189  0.00  0.00    +0.008 C 
BRANCH  29  30
ATOM     30  C   UNL     1       0.250  -7.954  -2.361  0.00  0.00    -0.075 C 
BRANCH  30  31
ATOM     31  N   UNL     1      -0.995  -8.696  -2.596  0.00  0.00    +0.383 N 
ATOM     32  C   UNL     1      -1.284  -9.550  -1.436  0.00  0.00    -0.050 C 
ATOM     33  C   UNL     1      -2.582 -10.322  -1.683  0.00  0.00    +0.141 C 
ATOM     34  O   UNL     1      -2.452 -11.091  -2.882  0.00  0.00    -0.383 OA
ATOM     35  C   UNL     1      -2.148 -10.305  -4.038  0.00  0.00    +0.141 C 
ATOM     36  C   UNL     1      -0.848  -9.533  -3.795  0.00  0.00    -0.050 C 
ATOM     37  H   UNL     1      -1.754  -8.045  -2.732  0.00  0.00    -0.082 HD
ENDBRANCH  30  31
ENDBRANCH  29  30
ENDBRANCH  28  29
ENDBRANCH   5  27
TORSDOF 7
