REMARK  Name = CHEMBL467215
REMARK  10 active torsions:
REMARK  status: ('A' for Active; 'I' for Inactive)
REMARK    1  A    between atoms: C_1  and  N_2
REMARK    2  A    between atoms: N_2  and  C_3
REMARK    3  A    between atoms: N_2  and  C_4
REMARK    4  A    between atoms: C_4  and  C_5
REMARK    5  A    between atoms: C_6  and  C_7
REMARK    6  A    between atoms: N_9  and  C_10
REMARK    7  A    between atoms: C_13  and  N_27
REMARK    8  A    between atoms: C_19  and  O_20
REMARK    9  A    between atoms: O_20  and  C_21
REMARK   10  A    between atoms: N_27  and  C_28
REMARK                            x       y       z     vdW  Elec       q    Type
REMARK                         _______ _______ _______ _____ _____    ______ ____
ROOT
ATOM      1  C   UNL     1      -4.024  -1.261  -5.242  0.00  0.00    +0.077 A 
ATOM      2  C   UNL     1      -4.049   0.067  -5.604  0.00  0.00    +0.038 A 
ATOM      3  C   UNL     1      -5.112   0.553  -6.378  0.00  0.00    +0.021 A 
ATOM      4  C   UNL     1      -5.173   1.911  -6.771  0.00  0.00    +0.042 A 
ATOM      5  C   UNL     1      -6.254   2.318  -7.537  0.00  0.00    +0.041 A 
ATOM      6  C   UNL     1      -7.231   1.397  -7.891  0.00  0.00    +0.085 A 
ATOM      7  N   UNL     1      -7.164   0.140  -7.521  0.00  0.00    -0.360 N 
ATOM      8  C   UNL     1      -6.149  -0.324  -6.782  0.00  0.00    +0.052 A 
ATOM      9  C   UNL     1      -6.096  -1.673  -6.397  0.00  0.00    +0.073 A 
ATOM     10  C   UNL     1      -5.051  -2.129  -5.648  0.00  0.00    +0.144 A 
ATOM     11  H   UNL     1      -7.869  -0.470  -7.791  0.00  0.00    +0.165 HD
ENDROOT
BRANCH   1  14
ATOM     12  C   UNL     1      -1.785  -1.101  -4.454  0.00  0.00    +0.241 C 
ATOM     13  O   UNL     1      -1.594  -0.169  -5.212  0.00  0.00    -0.271 OA
ATOM     14  N   UNL     1      -2.965  -1.751  -4.469  0.00  0.00    -0.279 N 
ATOM     15  H   UNL     1      -3.081  -2.559  -3.944  0.00  0.00    +0.155 HD
BRANCH  12  17
ATOM     16  C   UNL     1       0.439  -0.878  -3.508  0.00  0.00    -0.007 C 
ATOM     17  C   UNL     1      -0.727  -1.520  -3.523  0.00  0.00    +0.064 C 
BRANCH  16  18
ATOM     18  C   UNL     1       1.523  -1.307  -2.554  0.00  0.00    +0.111 C 
BRANCH  18  20
ATOM     19  C   UNL     1       3.290  -0.367  -3.917  0.00  0.00    +0.104 C 
ATOM     20  N   UNL     1       2.753  -1.590  -3.305  0.00  0.00    -0.305 NA
ATOM     21  C   UNL     1       3.757  -2.234  -2.447  0.00  0.00    +0.104 C 
ENDBRANCH  18  20
ENDBRANCH  16  18
ENDBRANCH  12  17
ENDBRANCH   1  14
BRANCH   4  22
ATOM     22  N   UNL     1      -4.181   2.808  -6.400  0.00  0.00    -0.314 N 
ATOM     23  H   UNL     1      -3.381   2.489  -5.953  0.00  0.00    +0.152 HD
BRANCH  22  24
ATOM     24  C   UNL     1      -4.334   4.171  -6.670  0.00  0.00    +0.033 A 
ATOM     25  C   UNL     1      -3.267   4.905  -7.172  0.00  0.00    +0.026 A 
ATOM     26  C   UNL     1      -3.421   6.252  -7.438  0.00  0.00    +0.041 A 
ATOM     27  C   UNL     1      -4.637   6.871  -7.205  0.00  0.00    +0.142 A 
ATOM     28  C   UNL     1      -5.703   6.141  -6.705  0.00  0.00    +0.078 A 
ATOM     29  C   UNL     1      -5.556   4.792  -6.442  0.00  0.00    +0.046 A 
ATOM     30 CL   UNL     1      -7.227   6.920  -6.413  0.00  0.00    -0.081 Cl
ATOM     31  F   UNL     1      -4.784   8.188  -7.467  0.00  0.00    -0.204 F 
ENDBRANCH  22  24
ENDBRANCH   4  22
BRANCH  10  32
ATOM     32  O   UNL     1      -5.005  -3.437  -5.285  0.00  0.00    -0.485 OA
BRANCH  32  33
ATOM     33  C   UNL     1      -6.087  -4.267  -5.713  0.00  0.00    +0.201 C 
ATOM     34  C   UNL     1      -5.708  -5.769  -5.604  0.00  0.00    +0.075 C 
ATOM     35  C   UNL     1      -7.103  -6.410  -5.389  0.00  0.00    +0.163 C 
ATOM     36  O   UNL     1      -7.824  -5.473  -4.573  0.00  0.00    -0.376 OA
ATOM     37  C   UNL     1      -7.283  -4.154  -4.742  0.00  0.00    +0.204 C 
ENDBRANCH  32  33
ENDBRANCH  10  32
TORSDOF 8
