REMARK  Name = CHEMBL472581
REMARK  11 active torsions:
REMARK  status: ('A' for Active; 'I' for Inactive)
REMARK    1  A    between atoms: C_1  and  S_2
REMARK    2  A    between atoms: S_2  and  C_5
REMARK    3  A    between atoms: C_5  and  C_6
REMARK    4  A    between atoms: C_6  and  N_7
REMARK    5  A    between atoms: N_7  and  C_8
REMARK    6  A    between atoms: C_8  and  C_9
REMARK    7  A    between atoms: C_11  and  C_14
REMARK    8  A    between atoms: C_20  and  N_24
REMARK    9  A    between atoms: N_24  and  C_25
REMARK   10  A    between atoms: N_33  and  C_34
REMARK   11  A    between atoms: C_34  and  C_35
REMARK                            x       y       z     vdW  Elec       q    Type
REMARK                         _______ _______ _______ _____ _____    ______ ____
ROOT
ATOM      1  C   UNL     1       5.914  -3.832  -6.135  0.00  0.00    +0.002 A 
ATOM      2  C   UNL     1       6.393  -4.110  -7.424  0.00  0.00    +0.012 A 
ATOM      3  C   UNL     1       7.681  -4.498  -7.622  0.00  0.00    +0.029 A 
ATOM      4  C   UNL     1       8.549  -4.625  -6.528  0.00  0.00    +0.076 A 
ATOM      5  C   UNL     1       8.075  -4.345  -5.222  0.00  0.00    +0.041 A 
ATOM      6  C   UNL     1       6.749  -3.943  -5.036  0.00  0.00    +0.023 A 
ATOM      7  C   UNL     1       8.977  -4.482  -4.138  0.00  0.00    +0.134 A 
ATOM      8  N   UNL     1      10.220  -4.864  -4.402  0.00  0.00    -0.220 NA
ATOM      9  C   UNL     1      10.617  -5.114  -5.639  0.00  0.00    +0.223 A 
ATOM     10  N   UNL     1       9.827  -5.005  -6.680  0.00  0.00    -0.235 NA
ENDROOT
BRANCH   1  13
ATOM     11  C   UNL     1       2.768  -2.760  -4.594  0.00  0.00    +0.093 A 
ATOM     12  N   UNL     1       4.012  -3.131  -4.750  0.00  0.00    -0.243 NA
ATOM     13  C   UNL     1       4.504  -3.410  -5.948  0.00  0.00    +0.078 A 
ATOM     14  C   UNL     1       3.642  -3.287  -7.006  0.00  0.00    +0.075 A 
ATOM     15  S   UNL     1       2.155  -2.774  -6.161  0.00  0.00    -0.079 S 
BRANCH  11  16
ATOM     16  C   UNL     1       2.052  -2.409  -3.315  0.00  0.00    +0.144 C 
BRANCH  16  17
ATOM     17  N   UNL     1       2.190  -0.969  -3.056  0.00  0.00    -0.309 NA
ATOM     18  H   UNL     1       1.851  -0.427  -3.837  0.00  0.00    +0.122 HD
BRANCH  17  19
ATOM     19  C   UNL     1       1.503  -0.590  -1.815  0.00  0.00    +0.104 C 
BRANCH  19  20
ATOM     20  C   UNL     1       1.668   0.913  -1.579  0.00  0.00    +0.180 C 
BRANCH  20  22
ATOM     21  C   UNL     1       1.127   3.167   0.053  0.00  0.00    +0.194 C 
ATOM     22  S   UNL     1       0.819   1.382  -0.046  0.00  0.00    -0.033 S 
ATOM     23  O   UNL     1       1.478   0.751   1.044  0.00  0.00    -0.175 OA
ATOM     24  O   UNL     1      -0.575   1.175  -0.223  0.00  0.00    -0.175 OA
ENDBRANCH  20  22
ENDBRANCH  19  20
ENDBRANCH  17  19
ENDBRANCH  16  17
ENDBRANCH  11  16
ENDBRANCH   1  13
BRANCH   7  25
ATOM     25  N   UNL     1       8.574  -4.224  -2.844  0.00  0.00    -0.299 N 
ATOM     26  H   UNL     1       7.643  -4.026  -2.656  0.00  0.00    +0.154 HD
BRANCH  25  27
ATOM     27  C   UNL     1       9.509  -4.248  -1.802  0.00  0.00    +0.033 A 
ATOM     28  C   UNL     1      10.808  -3.788  -2.024  0.00  0.00    +0.025 A 
ATOM     29  C   UNL     1      11.734  -3.802  -1.022  0.00  0.00    +0.030 A 
ATOM     30  C   UNL     1      11.390  -4.280   0.240  0.00  0.00    +0.069 A 
ATOM     31  C   UNL     1      10.082  -4.747   0.475  0.00  0.00    +0.021 A 
ATOM     32  C   UNL     1       9.140  -4.721  -0.559  0.00  0.00    +0.034 A 
ATOM     33  C   UNL     1      10.043  -5.171   1.871  0.00  0.00    +0.143 A 
ATOM     34  N   UNL     1      11.222  -4.965   2.384  0.00  0.00    -0.178 NA
ATOM     35  N   UNL     1      12.076  -4.420   1.420  0.00  0.00    -0.259 N 
BRANCH  35  36
ATOM     36  C   UNL     1      13.480  -4.058   1.635  0.00  0.00    +0.179 C 
BRANCH  36  37
ATOM     37  C   UNL     1      13.563  -2.625   2.096  0.00  0.00    -0.026 A 
ATOM     38  C   UNL     1      13.677  -1.607   1.168  0.00  0.00    +0.005 A 
ATOM     39  C   UNL     1      13.754  -0.293   1.591  0.00  0.00    +0.000 A 
ATOM     40  C   UNL     1      13.717   0.003   2.941  0.00  0.00    +0.000 A 
ATOM     41  C   UNL     1      13.602  -1.016   3.868  0.00  0.00    +0.000 A 
ATOM     42  C   UNL     1      13.521  -2.330   3.446  0.00  0.00    +0.005 A 
ENDBRANCH  36  37
ENDBRANCH  35  36
ENDBRANCH  25  27
ENDBRANCH   7  25
TORSDOF 10
