REMARK  Name = CHEMBL489307
REMARK  5 active torsions:
REMARK  status: ('A' for Active; 'I' for Inactive)
REMARK    1  A    between atoms: C_3  and  N_8
REMARK    2  A    between atoms: N_19  and  C_21
REMARK    3  A    between atoms: C_21  and  C_22
REMARK    4  A    between atoms: C_22  and  C_23
REMARK    5  A    between atoms: C_23  and  C_24
REMARK                            x       y       z     vdW  Elec       q    Type
REMARK                         _______ _______ _______ _____ _____    ______ ____
ROOT
ATOM      1  N   UNL     1       3.583   2.124  -0.021  0.00  0.00    -0.299 N 
ATOM      2  C   UNL     1       4.785   1.453   0.068  0.00  0.00    +0.134 A 
ATOM      3  C   UNL     1       6.006   2.160   0.173  0.00  0.00    +0.039 A 
ATOM      4  C   UNL     1       6.054   3.560   0.192  0.00  0.00    +0.020 A 
ATOM      5  C   UNL     1       7.251   4.194   0.295  0.00  0.00    -0.008 A 
ATOM      6  C   UNL     1       8.452   3.471   0.384  0.00  0.00    +0.037 A 
ATOM      7  C   UNL     1       8.428   2.086   0.367  0.00  0.00    +0.049 A 
ATOM      8  C   UNL     1       7.207   1.414   0.262  0.00  0.00    +0.053 A 
ATOM      9  N   UNL     1       7.135   0.073   0.242  0.00  0.00    -0.345 N 
ATOM     10  C   UNL     1       5.974  -0.529   0.143  0.00  0.00    +0.199 A 
ATOM     11  N   UNL     1       4.827   0.126   0.063  0.00  0.00    -0.222 NA
ATOM     12  N   UNL     1       9.262   4.616   0.461  0.00  0.00    -0.325 N 
ATOM     13  C   UNL     1       8.064   5.463   0.373  0.00  0.00    +0.142 C 
ATOM     14  H   UNL     1       3.571   3.091  -0.094  0.00  0.00    +0.154 HD
ATOM     15  H   UNL     1       7.947  -0.453   0.301  0.00  0.00    +0.167 HD
ENDROOT
BRANCH   1  18
ATOM     16  C   UNL     1       1.088  -0.466   0.744  0.00  0.00    +0.003 A 
ATOM     17  C   UNL     1       2.277   0.238   0.731  0.00  0.00    +0.023 A 
ATOM     18  C   UNL     1       2.381   1.410  -0.007  0.00  0.00    +0.033 A 
ATOM     19  C   UNL     1       1.289   1.871  -0.730  0.00  0.00    +0.038 A 
ATOM     20  C   UNL     1       0.102   1.163  -0.713  0.00  0.00    +0.020 A 
ATOM     21  C   UNL     1       0.002  -0.004   0.023  0.00  0.00    +0.015 A 
ATOM     22 BR   UNL     1      -1.386   1.790  -1.697  0.00  0.00    -0.050 Br
ENDBRANCH   1  18
BRANCH  12  23
ATOM     23  C   UNL     1      10.701   4.864   0.579  0.00  0.00    +0.106 C 
BRANCH  23  24
ATOM     24  C   UNL     1      11.318   4.965  -0.818  0.00  0.00    +0.028 C 
BRANCH  24  25
ATOM     25  C   UNL     1      12.821   5.223  -0.694  0.00  0.00    +0.097 C 
BRANCH  25  26
ATOM     26  C   UNL     1      13.428   5.323  -2.070  0.00  0.00    +0.216 C 
ATOM     27  O   UNL     1      12.728   5.200  -3.052  0.00  0.00    -0.276 OA
ATOM     28  N   UNL     1      14.749   5.550  -2.208  0.00  0.00    -0.297 N 
ATOM     29  C   UNL     1      15.620   5.696  -1.031  0.00  0.00    +0.136 C 
ATOM     30  C   UNL     1      16.824   4.763  -1.201  0.00  0.00    +0.179 C 
ATOM     31  O   UNL     1      17.431   5.003  -2.473  0.00  0.00    -0.377 OA
ATOM     32  C   UNL     1      16.581   4.725  -3.589  0.00  0.00    +0.179 C 
ATOM     33  C   UNL     1      15.365   5.651  -3.541  0.00  0.00    +0.136 C 
ENDBRANCH  25  26
ENDBRANCH  24  25
ENDBRANCH  23  24
ENDBRANCH  12  23
TORSDOF 5
