REMARK  Name = CHEMBL180175
REMARK  14 active torsions:
REMARK  status: ('A' for Active; 'I' for Inactive)
REMARK    1  A    between atoms: C_1  and  N_2
REMARK    2  A    between atoms: C_6  and  S_7
REMARK    3  A    between atoms: S_7  and  C_8
REMARK    4  A    between atoms: C_11  and  N_15
REMARK    5  A    between atoms: N_15  and  C_16
REMARK    6  A    between atoms: C_19  and  N_30
REMARK    7  A    between atoms: C_20  and  O_28
REMARK    8  A    between atoms: C_25  and  C_26
REMARK    9  A    between atoms: O_28  and  C_29
REMARK   10  A    between atoms: C_31  and  C_33
REMARK   11  A    between atoms: C_34  and  C_35
REMARK   12  A    between atoms: C_35  and  N_36
REMARK   13  A    between atoms: N_36  and  C_37
REMARK   14  A    between atoms: N_36  and  C_38
REMARK                            x       y       z     vdW  Elec       q    Type
REMARK                         _______ _______ _______ _____ _____    ______ ____
ROOT
ATOM      1  C   UNL     1       0.676  -4.852   7.733  0.00  0.00    +0.060 A 
ATOM      2  C   UNL     1       0.586  -6.058   8.467  0.00  0.00    +0.025 A 
ATOM      3  C   UNL     1       0.998  -7.276   7.907  0.00  0.00    +0.039 A 
ATOM      4  C   UNL     1       0.899  -8.434   8.646  0.00  0.00    +0.077 A 
ATOM      5  C   UNL     1       0.391  -8.402   9.954  0.00  0.00    +0.143 A 
ATOM      6  C   UNL     1      -0.017  -7.216  10.520  0.00  0.00    +0.076 A 
ATOM      7  C   UNL     1       0.074  -6.023   9.786  0.00  0.00    +0.076 A 
ATOM      8  N   UNL     1      -0.320  -4.860  10.327  0.00  0.00    -0.253 NA
ATOM      9  C   UNL     1      -0.249  -3.730   9.670  0.00  0.00    +0.132 A 
ATOM     10  C   UNL     1       0.252  -3.671   8.360  0.00  0.00    +0.091 A 
ENDROOT
BRANCH   4  11
ATOM     11  N   UNL     1       1.309  -9.651   8.088  0.00  0.00    -0.279 N 
ATOM     12  C   UNL     1       1.043  -9.924   6.796  0.00  0.00    +0.241 C 
ATOM     13  O   UNL     1       0.493  -9.091   6.099  0.00  0.00    -0.271 OA
ATOM     14  H   UNL     1       1.784 -10.298   8.633  0.00  0.00    +0.155 HD
BRANCH  12  15
ATOM     15  C   UNL     1       1.417 -11.227   6.227  0.00  0.00    +0.064 C 
ATOM     16  C   UNL     1       1.155 -11.496   4.951  0.00  0.00    -0.007 C 
BRANCH  16  17
ATOM     17  C   UNL     1       1.538 -12.832   4.368  0.00  0.00    +0.111 C 
BRANCH  17  18
ATOM     18  N   UNL     1       0.354 -13.465   3.773  0.00  0.00    -0.305 NA
ATOM     19  C   UNL     1       0.728 -14.651   2.991  0.00  0.00    +0.104 C 
ATOM     20  C   UNL     1      -0.635 -13.805   4.804  0.00  0.00    +0.104 C 
ENDBRANCH  17  18
ENDBRANCH  16  17
ENDBRANCH  12  15
ENDBRANCH   4  11
BRANCH   1  21
ATOM     21  N   UNL     1       1.169  -4.838   6.444  0.00  0.00    -0.313 N 
ATOM     22  H   UNL     1       2.120  -4.725   6.290  0.00  0.00    +0.152 HD
BRANCH  21  26
ATOM     23  C   UNL     1      -1.428  -5.280   3.212  0.00  0.00    +0.034 A 
ATOM     24  C   UNL     1      -0.090  -4.980   2.992  0.00  0.00    +0.018 A 
ATOM     25  C   UNL     1       0.770  -4.833   4.062  0.00  0.00    +0.024 A 
ATOM     26  C   UNL     1       0.297  -4.986   5.359  0.00  0.00    +0.033 A 
ATOM     27  C   UNL     1      -1.041  -5.286   5.580  0.00  0.00    +0.044 A 
ATOM     28  C   UNL     1      -1.903  -5.426   4.510  0.00  0.00    +0.057 A 
ATOM     29 CL   UNL     1      -3.577  -5.794   4.786  0.00  0.00    -0.082 Cl
BRANCH  23  30
ATOM     30  S   UNL     1      -2.525  -5.467   1.846  0.00  0.00    -0.050 S 
BRANCH  30  36
ATOM     31  C   UNL     1      -4.429  -7.202  -0.174  0.00  0.00    +0.151 C 
ATOM     32  N   UNL     1      -3.641  -7.834   0.887  0.00  0.00    -0.328 N 
ATOM     33  C   UNL     1      -3.582  -9.179   1.172  0.00  0.00    +0.107 A 
ATOM     34  C   UNL     1      -2.744  -9.322   2.214  0.00  0.00    +0.131 A 
ATOM     35  N   UNL     1      -2.296  -8.106   2.567  0.00  0.00    -0.230 NA
ATOM     36  C   UNL     1      -2.823  -7.203   1.773  0.00  0.00    +0.173 A 
ENDBRANCH  30  36
ENDBRANCH  23  30
ENDBRANCH  21  26
ENDBRANCH   1  21
BRANCH  10  37
ATOM     37  C   UNL     1       0.324  -2.418   7.669  0.00  0.00    +0.103 C 
ATOM     38  N   UNL     1       0.381  -1.425   7.121  0.00  0.00    -0.191 NA
ENDBRANCH  10  37
BRANCH   5  39
ATOM     39  O   UNL     1       0.301  -9.553  10.668  0.00  0.00    -0.493 OA
ATOM     40  C   UNL     1      -0.224  -9.455  11.994  0.00  0.00    +0.277 C 
ENDBRANCH   5  39
TORSDOF 10
