REMARK  Name = CHEMBL153419
REMARK  2 active torsions:
REMARK  status: ('A' for Active; 'I' for Inactive)
REMARK    1  A    between atoms: C_4  and  C_7
REMARK    2  A    between atoms: C_7  and  N_8
REMARK                            x       y       z     vdW  Elec       q    Type
REMARK                         _______ _______ _______ _____ _____    ______ ____
ROOT
ATOM      1  N   UNL     1       4.152  -0.952   1.338  0.00  0.00    -0.324 N 
ATOM      2  C   UNL     1       5.344  -1.619   1.575  0.00  0.00    +0.137 A 
ATOM      3  C   UNL     1       5.776  -1.866   2.872  0.00  0.00    +0.078 A 
ATOM      4  C   UNL     1       6.979  -2.539   3.113  0.00  0.00    +0.091 A 
ATOM      5  C   UNL     1       7.333  -2.743   4.532  0.00  0.00    +0.015 A 
ATOM      6  C   UNL     1       8.481  -3.386   5.046  0.00  0.00    +0.011 A 
ATOM      7  C   UNL     1       8.672  -3.498   6.399  0.00  0.00    +0.001 A 
ATOM      8  C   UNL     1       7.750  -2.986   7.301  0.00  0.00    +0.001 A 
ATOM      9  C   UNL     1       6.618  -2.352   6.829  0.00  0.00    +0.016 A 
ATOM     10  C   UNL     1       6.417  -2.235   5.468  0.00  0.00    +0.022 A 
ATOM     11  S   UNL     1       5.130  -1.512   4.483  0.00  0.00    -0.083 S 
ATOM     12  N   UNL     1       7.675  -2.923   2.019  0.00  0.00    -0.234 NA
ATOM     13  C   UNL     1       7.237  -2.673   0.811  0.00  0.00    +0.224 A 
ATOM     14  N   UNL     1       6.102  -2.044   0.566  0.00  0.00    -0.220 NA
ATOM     15  H   UNL     1       3.610  -0.648   2.082  0.00  0.00    +0.148 HD
ENDROOT
BRANCH   1  16
ATOM     16  C   UNL     1       3.711  -0.707  -0.038  0.00  0.00    +0.138 C 
BRANCH  16  20
ATOM     17  C   UNL     1      -0.017   1.378   0.010  0.00  0.00    +0.000 A 
ATOM     18  C   UNL     1       1.171   2.086   0.002  0.00  0.00    +0.000 A 
ATOM     19  C   UNL     1       2.377   1.411  -0.013  0.00  0.00    +0.005 A 
ATOM     20  C   UNL     1       2.396   0.029  -0.020  0.00  0.00    -0.030 A 
ATOM     21  C   UNL     1       1.208  -0.679  -0.012  0.00  0.00    +0.005 A 
ATOM     22  C   UNL     1       0.002  -0.004   0.002  0.00  0.00    +0.000 A 
ENDBRANCH  16  20
ENDBRANCH   1  16
TORSDOF 2
