REMARK  Name = CHEMBL338049
REMARK  6 active torsions:
REMARK  status: ('A' for Active; 'I' for Inactive)
REMARK    1  A    between atoms: C_1  and  C_2
REMARK    2  A    between atoms: C_3  and  O_39
REMARK    3  A    between atoms: C_5  and  N_37
REMARK    4  A    between atoms: C_34  and  O_36
REMARK    5  A    between atoms: N_37  and  C_38
REMARK    6  A    between atoms: O_39  and  C_40
REMARK                            x       y       z     vdW  Elec       q    Type
REMARK                         _______ _______ _______ _____ _____    ______ ____
ROOT
ATOM      1  C   UNL     1       0.252   1.421   0.248  0.00  0.00    +0.069 C 
ATOM      2  C   UNL     1       0.162  -0.104   0.168  0.00  0.00    +0.171 C 
ATOM      3  C   UNL     1      -1.319  -0.466   0.189  0.00  0.00    +0.157 C 
ATOM      4  C   UNL     1      -1.470  -1.974   0.417  0.00  0.00    -0.034 C 
ATOM      5  C   UNL     1      -0.816  -2.321   1.759  0.00  0.00    +0.041 C 
ATOM      6  C   UNL     1       0.658  -1.936   1.718  0.00  0.00    +0.221 C 
ATOM      7  O   UNL     1       0.860  -0.620   1.278  0.00  0.00    -0.328 OA
ATOM      8  N   UNL     1       1.420  -2.902   0.926  0.00  0.00    -0.312 N 
ATOM      9  C   UNL     1       1.929  -4.097   1.370  0.00  0.00    +0.052 A 
ATOM     10  C   UNL     1       1.875  -4.697   2.628  0.00  0.00    +0.026 A 
ATOM     11  C   UNL     1       2.497  -5.926   2.767  0.00  0.00    +0.002 A 
ATOM     12  C   UNL     1       3.148  -6.548   1.715  0.00  0.00    +0.001 A 
ATOM     13  C   UNL     1       3.216  -5.974   0.457  0.00  0.00    +0.010 A 
ATOM     14  C   UNL     1       2.596  -4.733   0.297  0.00  0.00    +0.008 A 
ATOM     15  C   UNL     1       2.471  -3.848  -0.858  0.00  0.00    +0.022 A 
ATOM     16  C   UNL     1       1.746  -2.738  -0.417  0.00  0.00    +0.077 A 
ATOM     17  C   UNL     1       1.464  -1.690  -1.300  0.00  0.00    +0.077 A 
ATOM     18  N   UNL     1       0.761  -0.504  -1.106  0.00  0.00    -0.307 N 
ATOM     19  C   UNL     1       0.740   0.218  -2.275  0.00  0.00    +0.053 A 
ATOM     20  C   UNL     1       0.180   1.462  -2.563  0.00  0.00    +0.026 A 
ATOM     21  C   UNL     1       0.329   1.936  -3.856  0.00  0.00    +0.002 A 
ATOM     22  C   UNL     1       0.999   1.220  -4.832  0.00  0.00    +0.001 A 
ATOM     23  C   UNL     1       1.563  -0.018  -4.570  0.00  0.00    +0.010 A 
ATOM     24  C   UNL     1       1.425  -0.511  -3.273  0.00  0.00    +0.008 A 
ATOM     25  C   UNL     1       1.907  -1.754  -2.631  0.00  0.00    +0.018 A 
ATOM     26  C   UNL     1       2.619  -2.865  -3.070  0.00  0.00    +0.021 A 
ATOM     27  C   UNL     1       2.907  -3.913  -2.201  0.00  0.00    +0.054 A 
ATOM     28  C   UNL     1       3.662  -4.936  -2.942  0.00  0.00    +0.247 C 
ATOM     29  O   UNL     1       4.063  -5.981  -2.468  0.00  0.00    -0.270 OA
ATOM     30  N   UNL     1       3.844  -4.552  -4.217  0.00  0.00    -0.282 N 
ATOM     31  C   UNL     1       3.217  -3.239  -4.404  0.00  0.00    +0.235 C 
ATOM     32  H   UNL     1       4.312  -5.058  -4.899  0.00  0.00    +0.152 HD
ENDROOT
BRANCH   4  33
ATOM     33  N   UNL     1      -0.804  -2.709  -0.666  0.00  0.00    +0.381 N 
ATOM     34  C   UNL     1      -1.038  -4.150  -0.497  0.00  0.00    -0.100 C 
ATOM     35  H   UNL     1      -1.176  -2.410  -1.555  0.00  0.00    -0.086 HD
ATOM     36  H   UNL     1       0.188  -2.525  -0.637  0.00  0.00    -0.086 HD
ENDBRANCH   4  33
BRANCH  31  37
ATOM     37  O   UNL     1       4.199  -2.275  -4.790  0.00  0.00    -0.370 OA
ATOM     38  H   UNL     1       4.620  -2.462  -5.641  0.00  0.00    +0.212 HD
ENDBRANCH  31  37
BRANCH   3  39
ATOM     39  O   UNL     1      -1.914  -0.111  -1.061  0.00  0.00    -0.377 OA
ATOM     40  C   UNL     1      -3.295   0.242  -0.967  0.00  0.00    +0.194 C 
ENDBRANCH   3  39
TORSDOF 3
