REMARK  Name = CHEMBL169970
REMARK  9 active torsions:
REMARK  status: ('A' for Active; 'I' for Inactive)
REMARK    1  A    between atoms: C_4  and  O_7
REMARK    2  A    between atoms: O_7  and  C_8
REMARK    3  A    between atoms: C_8  and  C_10
REMARK    4  A    between atoms: C_12  and  N_17
REMARK    5  A    between atoms: C_15  and  O_16
REMARK    6  A    between atoms: N_17  and  C_18
REMARK    7  A    between atoms: C_18  and  C_19
REMARK    8  A    between atoms: C_21  and  O_26
REMARK    9  A    between atoms: C_24  and  O_25
REMARK                            x       y       z     vdW  Elec       q    Type
REMARK                         _______ _______ _______ _____ _____    ______ ____
ROOT
ATOM      1  C   UNL     1       4.824  -2.731   0.160  0.00  0.00    +0.102 A 
ATOM      2  C   UNL     1       6.048  -2.055   0.159  0.00  0.00    +0.041 A 
ATOM      3  C   UNL     1       7.228  -2.771   0.253  0.00  0.00    +0.028 A 
ATOM      4  C   UNL     1       7.199  -4.159   0.347  0.00  0.00    +0.026 A 
ATOM      5  C   UNL     1       5.994  -4.832   0.348  0.00  0.00    +0.048 A 
ATOM      6  C   UNL     1       4.803  -4.128   0.260  0.00  0.00    +0.131 A 
ENDROOT
BRANCH   1   7
ATOM      7  C   UNL     1       3.561  -1.976   0.061  0.00  0.00    +0.348 C 
ATOM      8  O   UNL     1       2.499  -2.566   0.066  0.00  0.00    -0.244 OA
BRANCH   7   9
ATOM      9  O   UNL     1       3.586  -0.632  -0.036  0.00  0.00    -0.422 OA
BRANCH   9  13
ATOM     10  C   UNL     1      -0.013   1.383   0.058  0.00  0.00    +0.000 A 
ATOM     11  C   UNL     1       0.457   0.756   1.197  0.00  0.00    +0.004 A 
ATOM     12  C   UNL     1       1.661   0.081   1.169  0.00  0.00    +0.046 A 
ATOM     13  C   UNL     1       2.400   0.032  -0.005  0.00  0.00    +0.132 A 
ATOM     14  C   UNL     1       1.926   0.661  -1.147  0.00  0.00    +0.046 A 
ATOM     15  C   UNL     1       0.721   1.335  -1.113  0.00  0.00    +0.004 A 
ENDBRANCH   9  13
ENDBRANCH   7   9
ENDBRANCH   1   7
BRANCH   6  16
ATOM     16  O   UNL     1       3.619  -4.792   0.267  0.00  0.00    -0.506 OA
ATOM     17  H   UNL     1       3.306  -5.048  -0.612  0.00  0.00    +0.292 HD
ENDBRANCH   6  16
BRANCH   3  18
ATOM     18  N   UNL     1       8.455  -2.097   0.252  0.00  0.00    -0.340 N 
ATOM     19  H   UNL     1       8.477  -1.129   0.186  0.00  0.00    +0.146 HD
BRANCH  18  20
ATOM     20  C   UNL     1       9.706  -2.852   0.351  0.00  0.00    +0.140 C 
BRANCH  20  21
ATOM     21  C   UNL     1      10.872  -1.898   0.329  0.00  0.00    +0.014 A 
ATOM     22  C   UNL     1      11.579  -1.698  -0.841  0.00  0.00    +0.054 A 
ATOM     23  C   UNL     1      12.652  -0.820  -0.862  0.00  0.00    +0.117 A 
ATOM     24  C   UNL     1      13.016  -0.142   0.293  0.00  0.00    +0.049 A 
ATOM     25  C   UNL     1      12.309  -0.342   1.462  0.00  0.00    +0.049 A 
ATOM     26  C   UNL     1      11.233  -1.217   1.482  0.00  0.00    +0.122 A 
BRANCH  26  27
ATOM     27  O   UNL     1      10.534  -1.410   2.632  0.00  0.00    -0.506 OA
ATOM     28  H   UNL     1      10.876  -2.126   3.185  0.00  0.00    +0.292 HD
ENDBRANCH  26  27
BRANCH  23  29
ATOM     29  O   UNL     1      13.347  -0.623  -2.014  0.00  0.00    -0.507 OA
ATOM     30  H   UNL     1      13.003   0.095  -2.563  0.00  0.00    +0.292 HD
ENDBRANCH  23  29
ENDBRANCH  20  21
ENDBRANCH  18  20
ENDBRANCH   3  18
TORSDOF 9
