REMARK  Name = CHEMBL372112
REMARK  7 active torsions:
REMARK  status: ('A' for Active; 'I' for Inactive)
REMARK    1  A    between atoms: C_1  and  C_2
REMARK    2  A    between atoms: C_2  and  C_3
REMARK    3  A    between atoms: C_4  and  C_23
REMARK    4  A    between atoms: N_12  and  C_13
REMARK    5  A    between atoms: C_23  and  O_25
REMARK    6  A    between atoms: O_25  and  C_26
REMARK    7  A    between atoms: C_26  and  C_27
REMARK                            x       y       z     vdW  Elec       q    Type
REMARK                         _______ _______ _______ _____ _____    ______ ____
ROOT
ATOM      1  C   UNL     1       0.765  -0.614  -1.268  0.00  0.00    -0.003 A 
ATOM      2  C   UNL     1       0.144  -1.259  -2.358  0.00  0.00    +0.082 A 
ATOM      3  C   UNL     1       1.046  -2.187  -2.854  0.00  0.00    +0.128 A 
ATOM      4  N   UNL     1       2.167  -2.131  -2.122  0.00  0.00    -0.234 N 
ATOM      5  C   UNL     1       2.019  -1.166  -1.143  0.00  0.00    +0.109 A 
ATOM      6  C   UNL     1       3.099  -0.937  -0.253  0.00  0.00    +0.151 A 
ATOM      7  N   UNL     1       4.207  -1.645  -0.386  0.00  0.00    -0.217 NA
ATOM      8  C   UNL     1       4.335  -2.569  -1.337  0.00  0.00    +0.245 A 
ATOM      9  N   UNL     1       3.379  -2.836  -2.184  0.00  0.00    -0.155 NA
ATOM     10  N   UNL     1       2.994   0.015   0.741  0.00  0.00    -0.298 N 
ATOM     11  H   UNL     1       2.152   0.474   0.886  0.00  0.00    +0.154 HD
ENDROOT
BRANCH  10  12
ATOM     12  C   UNL     1       4.102   0.316   1.542  0.00  0.00    +0.033 A 
ATOM     13  C   UNL     1       5.387   0.255   1.000  0.00  0.00    +0.025 A 
ATOM     14  C   UNL     1       6.481   0.545   1.763  0.00  0.00    +0.029 A 
ATOM     15  C   UNL     1       6.324   0.907   3.099  0.00  0.00    +0.066 A 
ATOM     16  C   UNL     1       5.033   0.972   3.656  0.00  0.00    +0.021 A 
ATOM     17  C   UNL     1       3.919   0.678   2.861  0.00  0.00    +0.034 A 
ATOM     18  C   UNL     1       5.206   1.372   5.048  0.00  0.00    +0.142 A 
ATOM     19  N   UNL     1       6.481   1.521   5.264  0.00  0.00    -0.181 NA
ATOM     20  N   UNL     1       7.202   1.246   4.098  0.00  0.00    -0.277 N 
ATOM     21  H   UNL     1       8.167   1.288   4.009  0.00  0.00    +0.189 HD
ENDBRANCH  10  12
BRANCH   1  23
ATOM     22  C   UNL     1       0.616   1.839  -0.938  0.00  0.00    +0.009 C 
ATOM     23  C   UNL     1       0.172   0.473  -0.410  0.00  0.00    +0.035 C 
ENDBRANCH   1  23
BRANCH   2  24
ATOM     24  C   UNL     1      -1.211  -0.995  -2.873  0.00  0.00    +0.341 C 
ATOM     25  O   UNL     1      -1.907  -0.149  -2.346  0.00  0.00    -0.245 OA
BRANCH  24  26
ATOM     26  O   UNL     1      -1.678  -1.690  -3.928  0.00  0.00    -0.461 OA
BRANCH  26  27
ATOM     27  C   UNL     1      -3.001  -1.382  -4.375  0.00  0.00    +0.229 C 
ATOM     28  C   UNL     1      -3.354  -2.266  -5.572  0.00  0.00    +0.048 C 
ENDBRANCH  26  27
ENDBRANCH  24  26
ENDBRANCH   2  24
TORSDOF 5
