REMARK  Name = CHEMBL119977
REMARK  3 active torsions:
REMARK  status: ('A' for Active; 'I' for Inactive)
REMARK    1  A    between atoms: C_4  and  C_7
REMARK    2  A    between atoms: C_9  and  N_16
REMARK    3  A    between atoms: N_16  and  C_17
REMARK                            x       y       z     vdW  Elec       q    Type
REMARK                         _______ _______ _______ _____ _____    ______ ____
ROOT
ATOM      1  C   UNL     1       3.756  -0.798  -0.083  0.00  0.00    +0.105 A 
ATOM      2  C   UNL     1       3.779  -2.208   0.307  0.00  0.00    +0.086 A 
ATOM      3  C   UNL     1       3.042  -3.004   1.198  0.00  0.00    +0.138 A 
ATOM      4  N   UNL     1       3.352  -4.294   1.296  0.00  0.00    -0.220 NA
ATOM      5  C   UNL     1       4.327  -4.818   0.576  0.00  0.00    +0.225 A 
ATOM      6  N   UNL     1       5.044  -4.111  -0.271  0.00  0.00    -0.216 NA
ATOM      7  C   UNL     1       4.809  -2.810  -0.440  0.00  0.00    +0.161 A 
ATOM      8  N   UNL     1       5.359  -1.833  -1.216  0.00  0.00    -0.259 N 
ATOM      9  N   UNL     1       4.695  -0.624  -0.982  0.00  0.00    -0.171 NA
ATOM     10  H   UNL     1       6.094  -1.958  -1.837  0.00  0.00    +0.191 HD
ENDROOT
BRANCH   1  14
ATOM     11  C   UNL     1       1.118   2.183   1.410  0.00  0.00    +0.000 A 
ATOM     12  C   UNL     1       1.738   1.311   2.286  0.00  0.00    +0.001 A 
ATOM     13  C   UNL     1       2.595   0.341   1.808  0.00  0.00    +0.010 A 
ATOM     14  C   UNL     1       2.836   0.241   0.438  0.00  0.00    +0.003 A 
ATOM     15  C   UNL     1       2.208   1.123  -0.440  0.00  0.00    +0.010 A 
ATOM     16  C   UNL     1       1.353   2.089   0.050  0.00  0.00    +0.001 A 
ENDBRANCH   1  14
BRANCH   3  17
ATOM     17  N   UNL     1       2.020  -2.461   1.955  0.00  0.00    -0.299 N 
ATOM     18  H   UNL     1       1.747  -1.542   1.813  0.00  0.00    +0.154 HD
BRANCH  17  19
ATOM     19  C   UNL     1       1.380  -3.238   2.925  0.00  0.00    +0.034 A 
ATOM     20  C   UNL     1       2.090  -4.212   3.617  0.00  0.00    +0.023 A 
ATOM     21  C   UNL     1       1.456  -4.978   4.575  0.00  0.00    +0.003 A 
ATOM     22  C   UNL     1       0.115  -4.777   4.847  0.00  0.00    +0.020 A 
ATOM     23  C   UNL     1      -0.596  -3.808   4.160  0.00  0.00    +0.043 A 
ATOM     24  C   UNL     1       0.035  -3.034   3.204  0.00  0.00    +0.043 A 
ATOM     25 CL   UNL     1      -2.279  -3.560   4.504  0.00  0.00    -0.083 Cl
ENDBRANCH  17  19
ENDBRANCH   3  17
TORSDOF 3
