REMARK  Name = CHEMBL206955
REMARK  6 active torsions:
REMARK  status: ('A' for Active; 'I' for Inactive)
REMARK    1  A    between atoms: C_1  and  O_2
REMARK    2  A    between atoms: O_2  and  C_3
REMARK    3  A    between atoms: C_8  and  C_9
REMARK    4  A    between atoms: C_9  and  N_10
REMARK    5  A    between atoms: C_14  and  C_16
REMARK    6  A    between atoms: N_23  and  C_24
REMARK                            x       y       z     vdW  Elec       q    Type
REMARK                         _______ _______ _______ _____ _____    ______ ____
ROOT
ATOM      1  C   UNL     1       0.120   0.185  -0.280  0.00  0.00    +0.127 A 
ATOM      2  C   UNL     1       0.593   1.042  -1.252  0.00  0.00    +0.074 A 
ATOM      3  C   UNL     1       1.456   0.554  -2.239  0.00  0.00    +0.079 A 
ATOM      4  C   UNL     1       1.829  -0.813  -2.222  0.00  0.00    +0.041 A 
ATOM      5  C   UNL     1       1.332  -1.659  -1.223  0.00  0.00    +0.022 A 
ATOM      6  C   UNL     1       0.497  -1.160  -0.269  0.00  0.00    +0.009 A 
ATOM      7  C   UNL     1       2.703  -1.279  -3.233  0.00  0.00    +0.134 A 
ATOM      8  N   UNL     1       3.129  -0.412  -4.143  0.00  0.00    -0.220 NA
ATOM      9  C   UNL     1       2.754   0.856  -4.118  0.00  0.00    +0.223 A 
ATOM     10  N   UNL     1       1.946   1.344  -3.207  0.00  0.00    -0.235 NA
ATOM     11  N   UNL     1       3.103  -2.599  -3.270  0.00  0.00    -0.299 N 
ATOM     12  H   UNL     1       2.720  -3.240  -2.650  0.00  0.00    +0.154 HD
ENDROOT
BRANCH  11  13
ATOM     13  C   UNL     1       4.059  -3.014  -4.203  0.00  0.00    +0.034 A 
ATOM     14  C   UNL     1       3.992  -4.291  -4.747  0.00  0.00    +0.026 A 
ATOM     15  C   UNL     1       4.937  -4.699  -5.668  0.00  0.00    +0.041 A 
ATOM     16  C   UNL     1       5.951  -3.837  -6.050  0.00  0.00    +0.142 A 
ATOM     17  C   UNL     1       6.020  -2.563  -5.509  0.00  0.00    +0.078 A 
ATOM     18  C   UNL     1       5.074  -2.149  -4.591  0.00  0.00    +0.046 A 
ATOM     19 CL   UNL     1       7.293  -1.484  -5.989  0.00  0.00    -0.081 Cl
ATOM     20  F   UNL     1       6.875  -4.238  -6.950  0.00  0.00    -0.204 F 
ENDBRANCH  11  13
BRANCH   1  22
ATOM     21  C   UNL     1      -1.066   2.040   0.615  0.00  0.00    +0.277 C 
ATOM     22  O   UNL     1      -0.718   0.655   0.680  0.00  0.00    -0.495 OA
ENDBRANCH   1  22
BRANCH   6  23
ATOM     23  C   UNL     1      -0.031  -2.072   0.808  0.00  0.00    +0.124 C 
BRANCH  23  24
ATOM     24  N   UNL     1      -1.397  -2.492   0.469  0.00  0.00    -0.287 NA
ATOM     25  C   UNL     1      -2.366  -1.409   0.738  0.00  0.00    +0.085 C 
ATOM     26  C   UNL     1      -3.658  -2.137   1.186  0.00  0.00    +0.017 C 
ATOM     27  C   UNL     1      -3.082  -3.318   2.011  0.00  0.00    +0.029 C 
ATOM     28  C   UNL     1      -1.793  -3.681   1.245  0.00  0.00    +0.143 C 
BRANCH  28  29
ATOM     29  C   UNL     1      -0.702  -4.043   2.220  0.00  0.00    +0.228 C 
ATOM     30  O   UNL     1      -0.222  -3.191   2.938  0.00  0.00    -0.274 OA
ATOM     31  N   UNL     1      -0.260  -5.314   2.295  0.00  0.00    -0.328 N 
ATOM     32  H   UNL     1      -0.643  -5.995   1.721  0.00  0.00    +0.145 HD
ATOM     33  H   UNL     1       0.442  -5.547   2.922  0.00  0.00    +0.145 HD
ENDBRANCH  28  29
ENDBRANCH  23  24
ENDBRANCH   6  23
TORSDOF 5
