REMARK  Name = CHEMBL162223
REMARK  4 active torsions:
REMARK  status: ('A' for Active; 'I' for Inactive)
REMARK    1  A    between atoms: C_5  and  C_7
REMARK    2  A    between atoms: C_7  and  C_8
REMARK    3  A    between atoms: C_8  and  N_9
REMARK    4  A    between atoms: N_20  and  C_21
REMARK                            x       y       z     vdW  Elec       q    Type
REMARK                         _______ _______ _______ _____ _____    ______ ____
ROOT
ATOM      1  N   UNL     1       1.431  -4.115  -1.782  0.00  0.00    -0.329 N 
ATOM      2  C   UNL     1       2.274  -4.791  -2.660  0.00  0.00    +0.119 A 
ATOM      3  C   UNL     1       3.103  -4.064  -3.498  0.00  0.00    +0.057 A 
ATOM      4  C   UNL     1       3.940  -4.762  -4.370  0.00  0.00    +0.045 A 
ATOM      5  C   UNL     1       3.906  -6.181  -4.362  0.00  0.00    +0.094 A 
ATOM      6  C   UNL     1       3.033  -6.826  -3.477  0.00  0.00    +0.141 A 
ATOM      7  N   UNL     1       2.270  -6.119  -2.673  0.00  0.00    -0.238 NA
ATOM      8  N   UNL     1       4.712  -6.845  -5.201  0.00  0.00    -0.234 NA
ATOM      9  C   UNL     1       5.515  -6.202  -6.012  0.00  0.00    +0.224 A 
ATOM     10  N   UNL     1       5.600  -4.883  -6.075  0.00  0.00    -0.220 NA
ATOM     11  C   UNL     1       4.856  -4.105  -5.298  0.00  0.00    +0.134 A 
ATOM     12  N   UNL     1       4.944  -2.729  -5.364  0.00  0.00    -0.299 N 
ATOM     13  H   UNL     1       0.849  -4.614  -1.188  0.00  0.00    +0.147 HD
ATOM     14  H   UNL     1       4.455  -2.181  -4.731  0.00  0.00    +0.154 HD
ENDROOT
BRANCH  12  15
ATOM     15  C   UNL     1       5.740  -2.127  -6.342  0.00  0.00    +0.033 A 
ATOM     16  C   UNL     1       5.883  -2.724  -7.588  0.00  0.00    +0.023 A 
ATOM     17  C   UNL     1       6.669  -2.126  -8.553  0.00  0.00    +0.003 A 
ATOM     18  C   UNL     1       7.315  -0.933  -8.280  0.00  0.00    +0.015 A 
ATOM     19  C   UNL     1       7.175  -0.336  -7.040  0.00  0.00    +0.020 A 
ATOM     20  C   UNL     1       6.385  -0.926  -6.072  0.00  0.00    +0.038 A 
ATOM     21 BR   UNL     1       8.060   1.294  -6.672  0.00  0.00    -0.050 Br
ENDBRANCH  12  15
BRANCH   1  22
ATOM     22  C   UNL     1       1.423  -2.650  -1.755  0.00  0.00    +0.109 C 
BRANCH  22  23
ATOM     23  C   UNL     1       0.416  -2.165  -0.710  0.00  0.00    +0.074 C 
BRANCH  23  28
ATOM     24  C   UNL     1      -0.779   1.408  -0.834  0.00  0.00    +0.003 A 
ATOM     25  C   UNL     1       0.427   2.061  -0.628  0.00  0.00    +0.020 A 
ATOM     26  C   UNL     1       1.577   1.314  -0.457  0.00  0.00    +0.111 A 
ATOM     27  N   UNL     1       1.536  -0.004  -0.489  0.00  0.00    -0.260 NA
ATOM     28  C   UNL     1       0.408  -0.658  -0.682  0.00  0.00    +0.043 A 
ATOM     29  C   UNL     1      -0.782   0.022  -0.860  0.00  0.00    +0.023 A 
ENDBRANCH  23  28
ENDBRANCH  22  23
ENDBRANCH   1  22
TORSDOF 4
