REMARK  Name = CHEMBL125920
REMARK  8 active torsions:
REMARK  status: ('A' for Active; 'I' for Inactive)
REMARK    1  A    between atoms: C_1  and  C_2
REMARK    2  A    between atoms: C_2  and  O_3
REMARK    3  A    between atoms: O_3  and  C_4
REMARK    4  A    between atoms: C_9  and  O_10
REMARK    5  A    between atoms: O_10  and  C_11
REMARK    6  A    between atoms: C_11  and  C_12
REMARK    7  A    between atoms: N_17  and  C_18
REMARK    8  A    between atoms: C_22  and  C_24
REMARK                            x       y       z     vdW  Elec       q    Type
REMARK                         _______ _______ _______ _____ _____    ______ ____
ROOT
ATOM      1  C   UNL     1       1.352  -1.865  -0.984  0.00  0.00    +0.163 A 
ATOM      2  C   UNL     1       0.640  -2.686  -0.155  0.00  0.00    +0.062 A 
ATOM      3  C   UNL     1       0.552  -4.053  -0.442  0.00  0.00    +0.044 A 
ATOM      4  C   UNL     1       1.199  -4.577  -1.588  0.00  0.00    +0.080 A 
ATOM      5  C   UNL     1       1.923  -3.718  -2.424  0.00  0.00    +0.078 A 
ATOM      6  C   UNL     1       1.991  -2.376  -2.122  0.00  0.00    +0.164 A 
ATOM      7  N   UNL     1       1.098  -5.892  -1.841  0.00  0.00    -0.235 NA
ATOM      8  C   UNL     1       0.412  -6.672  -1.040  0.00  0.00    +0.223 A 
ATOM      9  N   UNL     1      -0.208  -6.227   0.041  0.00  0.00    -0.220 NA
ATOM     10  C   UNL     1      -0.173  -4.946   0.383  0.00  0.00    +0.134 A 
ATOM     11  N   UNL     1      -0.825  -4.495   1.513  0.00  0.00    -0.299 N 
ATOM     12  H   UNL     1      -0.861  -3.546   1.706  0.00  0.00    +0.154 HD
ENDROOT
BRANCH  11  13
ATOM     13  C   UNL     1      -1.433  -5.408   2.380  0.00  0.00    +0.033 A 
ATOM     14  C   UNL     1      -0.856  -6.655   2.593  0.00  0.00    +0.023 A 
ATOM     15  C   UNL     1      -1.454  -7.561   3.448  0.00  0.00    +0.002 A 
ATOM     16  C   UNL     1      -2.627  -7.234   4.097  0.00  0.00    +0.010 A 
ATOM     17  C   UNL     1      -3.214  -5.985   3.890  0.00  0.00    +0.002 A 
ATOM     18  C   UNL     1      -2.608  -5.069   3.032  0.00  0.00    +0.033 A 
BRANCH  17  19
ATOM     19  C   UNL     1      -4.473  -5.632   4.584  0.00  0.00    +0.066 A 
ATOM     20  C   UNL     1      -5.168  -6.425   5.452  0.00  0.00    +0.049 A 
ATOM     21  C   UNL     1      -6.290  -5.713   5.877  0.00  0.00    +0.135 A 
ATOM     22  N   UNL     1      -6.283  -4.539   5.298  0.00  0.00    -0.182 NA
ATOM     23  H   UNL     1      -4.891  -3.692   3.938  0.00  0.00    +0.189 HD
ATOM     24  N   UNL     1      -5.149  -4.453   4.481  0.00  0.00    -0.277 N 
ENDBRANCH  17  19
ENDBRANCH  11  13
BRANCH   1  25
ATOM     25  O   UNL     1       1.437  -0.537  -0.704  0.00  0.00    -0.489 OA
BRANCH  25  27
ATOM     26  C   UNL     1       0.972   1.432   0.618  0.00  0.00    +0.048 C 
ATOM     27  C   UNL     1       0.765  -0.077   0.470  0.00  0.00    +0.226 C 
ENDBRANCH  25  27
ENDBRANCH   1  25
BRANCH   6  28
ATOM     28  O   UNL     1       2.688  -1.539  -2.934  0.00  0.00    -0.489 OA
BRANCH  28  29
ATOM     29  C   UNL     1       3.317  -2.120  -4.078  0.00  0.00    +0.226 C 
ATOM     30  C   UNL     1       4.049  -1.031  -4.865  0.00  0.00    +0.048 C 
ENDBRANCH  28  29
ENDBRANCH   6  28
TORSDOF 6
