REMARK  Name = CHEMBL567331
REMARK  3 active torsions:
REMARK  status: ('A' for Active; 'I' for Inactive)
REMARK    1  A    between atoms: C_3  and  C_6
REMARK    2  A    between atoms: C_6  and  N_7
REMARK    3  A    between atoms: C_11  and  C_18
REMARK                            x       y       z     vdW  Elec       q    Type
REMARK                         _______ _______ _______ _____ _____    ______ ____
ROOT
ATOM      1  N   UNL     1       4.234   2.004   1.353  0.00  0.00    -0.324 N 
ATOM      2  C   UNL     1       5.512   2.461   1.595  0.00  0.00    +0.130 A 
ATOM      3  C   UNL     1       5.991   2.615   2.920  0.00  0.00    +0.041 A 
ATOM      4  C   UNL     1       5.201   2.315   4.032  0.00  0.00    +0.022 A 
ATOM      5  C   UNL     1       5.725   2.486   5.303  0.00  0.00    -0.017 A 
ATOM      6  C   UNL     1       7.036   2.956   5.474  0.00  0.00    +0.010 A 
ATOM      7  C   UNL     1       7.818   3.253   4.401  0.00  0.00    +0.029 A 
ATOM      8  C   UNL     1       7.314   3.089   3.102  0.00  0.00    +0.076 A 
ATOM      9  N   UNL     1       8.052   3.369   2.017  0.00  0.00    -0.235 NA
ATOM     10  C   UNL     1       7.555   3.207   0.814  0.00  0.00    +0.223 A 
ATOM     11  N   UNL     1       6.328   2.762   0.594  0.00  0.00    -0.220 NA
ATOM     12  H   UNL     1       3.648   1.787   2.095  0.00  0.00    +0.148 HD
ENDROOT
BRANCH   5  13
ATOM     13  C   UNL     1       4.895   2.171   6.491  0.00  0.00    -0.014 A 
ATOM     14  C   UNL     1       3.594   1.699   6.328  0.00  0.00    +0.012 A 
ATOM     15  C   UNL     1       2.823   1.405   7.434  0.00  0.00    +0.050 A 
ATOM     16  C   UNL     1       3.338   1.580   8.710  0.00  0.00    +0.166 A 
ATOM     17  C   UNL     1       4.639   2.052   8.878  0.00  0.00    +0.167 A 
ATOM     18  C   UNL     1       5.417   2.341   7.772  0.00  0.00    +0.058 A 
ATOM     19  O   UNL     1       4.903   2.134  10.215  0.00  0.00    -0.453 OA
ATOM     20  C   UNL     1       3.618   2.098  10.864  0.00  0.00    +0.466 C 
ATOM     21  O   UNL     1       2.789   1.366   9.941  0.00  0.00    -0.453 OA
ENDBRANCH   5  13
BRANCH   1  22
ATOM     22  C   UNL     1       3.761   1.845  -0.024  0.00  0.00    +0.145 C 
BRANCH  22  25
ATOM     23  C   UNL     1      -0.016   1.351   0.009  0.00  0.00    +0.008 A 
ATOM     24  C   UNL     1       1.183   2.038   0.002  0.00  0.00    +0.013 A 
ATOM     25  C   UNL     1       2.343   1.336  -0.013  0.00  0.00    +0.007 A 
ATOM     26  S   UNL     1       1.754  -0.349  -0.017  0.00  0.00    -0.100 S 
ATOM     27  C   UNL     1       0.002  -0.004   0.002  0.00  0.00    +0.045 A 
ENDBRANCH  22  25
ENDBRANCH   1  22
TORSDOF 3
