REMARK  Name = CHEMBL206783
REMARK  6 active torsions:
REMARK  status: ('A' for Active; 'I' for Inactive)
REMARK    1  A    between atoms: C_1  and  O_2
REMARK    2  A    between atoms: O_2  and  C_3
REMARK    3  A    between atoms: C_8  and  C_9
REMARK    4  A    between atoms: C_9  and  N_10
REMARK    5  A    between atoms: C_15  and  C_17
REMARK    6  A    between atoms: N_24  and  C_25
REMARK                            x       y       z     vdW  Elec       q    Type
REMARK                         _______ _______ _______ _____ _____    ______ ____
ROOT
ATOM      1  C   UNL     1       1.322  -0.987  -0.410  0.00  0.00    +0.123 A 
ATOM      2  C   UNL     1       2.228  -0.263  -1.157  0.00  0.00    +0.074 A 
ATOM      3  C   UNL     1       2.856  -0.867  -2.251  0.00  0.00    +0.079 A 
ATOM      4  C   UNL     1       2.550  -2.213  -2.572  0.00  0.00    +0.041 A 
ATOM      5  C   UNL     1       1.627  -2.923  -1.795  0.00  0.00    +0.018 A 
ATOM      6  C   UNL     1       1.031  -2.315  -0.731  0.00  0.00    -0.021 A 
ATOM      7  C   UNL     1       3.201  -2.799  -3.684  0.00  0.00    +0.134 A 
ATOM      8  N   UNL     1       4.063  -2.058  -4.368  0.00  0.00    -0.220 NA
ATOM      9  C   UNL     1       4.318  -0.804  -4.031  0.00  0.00    +0.223 A 
ATOM     10  N   UNL     1       3.745  -0.209  -3.011  0.00  0.00    -0.235 NA
ATOM     11  N   UNL     1       2.946  -4.106  -4.046  0.00  0.00    -0.297 N 
ATOM     12  H   UNL     1       2.243  -4.604  -3.601  0.00  0.00    +0.154 HD
ENDROOT
BRANCH  11  13
ATOM     13  C   UNL     1       3.701  -4.711  -5.057  0.00  0.00    +0.070 A 
ATOM     14  C   UNL     1       4.931  -4.179  -5.420  0.00  0.00    +0.026 A 
ATOM     15  C   UNL     1       5.675  -4.779  -6.418  0.00  0.00    +0.003 A 
ATOM     16  C   UNL     1       5.197  -5.909  -7.055  0.00  0.00    +0.023 A 
ATOM     17  C   UNL     1       3.972  -6.444  -6.697  0.00  0.00    +0.078 A 
ATOM     18  C   UNL     1       3.224  -5.851  -5.695  0.00  0.00    +0.163 A 
ATOM     19  F   UNL     1       2.030  -6.375  -5.341  0.00  0.00    -0.202 F 
ATOM     20 CL   UNL     1       3.376  -7.862  -7.501  0.00  0.00    -0.081 Cl
ENDBRANCH  11  13
BRANCH   1  22
ATOM     21  C   UNL     1       1.050   0.957   0.931  0.00  0.00    +0.277 C 
ATOM     22  O   UNL     1       0.711  -0.404   0.653  0.00  0.00    -0.495 OA
ENDBRANCH   1  22
BRANCH   6  23
ATOM     23  C   UNL     1       0.042  -3.083   0.107  0.00  0.00    -0.038 C 
BRANCH  23  24
ATOM     24  N   UNL     1      -1.325  -2.721  -0.294  0.00  0.00    +0.390 N 
ATOM     25  C   UNL     1      -1.563  -1.305   0.009  0.00  0.00    -0.077 C 
ATOM     26  C   UNL     1      -2.956  -0.902  -0.480  0.00  0.00    -0.019 C 
ATOM     27  C   UNL     1      -4.008  -1.761   0.227  0.00  0.00    -0.003 C 
ATOM     28  C   UNL     1      -3.705  -3.240  -0.035  0.00  0.00    -0.006 C 
ATOM     29  C   UNL     1      -2.285  -3.556   0.437  0.00  0.00    +0.019 C 
ATOM     30  H   UNL     1      -1.435  -2.874  -1.286  0.00  0.00    -0.080 HD
BRANCH  29  31
ATOM     31  C   UNL     1      -2.173  -3.273   1.913  0.00  0.00    +0.197 C 
ATOM     32  O   UNL     1      -1.372  -2.456   2.315  0.00  0.00    -0.278 OA
ATOM     33  N   UNL     1      -2.962  -3.929   2.787  0.00  0.00    -0.331 N 
ATOM     34  H   UNL     1      -3.603  -4.583   2.466  0.00  0.00    +0.145 HD
ATOM     35  H   UNL     1      -2.890  -3.748   3.737  0.00  0.00    +0.145 HD
ENDBRANCH  29  31
ENDBRANCH  23  24
ENDBRANCH   6  23
TORSDOF 5
