REMARK  Name = CHEMBL179313
REMARK  15 active torsions:
REMARK  status: ('A' for Active; 'I' for Inactive)
REMARK    1  A    between atoms: C_1  and  C_2
REMARK    2  A    between atoms: C_2  and  O_3
REMARK    3  A    between atoms: O_3  and  C_4
REMARK    4  A    between atoms: C_9  and  N_10
REMARK    5  A    between atoms: C_11  and  C_13
REMARK    6  A    between atoms: C_14  and  C_15
REMARK    7  A    between atoms: C_15  and  N_16
REMARK    8  A    between atoms: N_16  and  C_17
REMARK    9  A    between atoms: N_16  and  C_18
REMARK   10  A    between atoms: C_19  and  N_25
REMARK   11  A    between atoms: C_20  and  C_23
REMARK   12  A    between atoms: N_25  and  C_26
REMARK   13  A    between atoms: C_29  and  O_33
REMARK   14  A    between atoms: O_33  and  C_34
REMARK   15  A    between atoms: C_34  and  C_35
REMARK                            x       y       z     vdW  Elec       q    Type
REMARK                         _______ _______ _______ _____ _____    ______ ____
ROOT
ATOM      1  C   UNL     1       1.673  -3.735  -1.556  0.00  0.00    +0.144 A 
ATOM      2  C   UNL     1       0.364  -4.086  -1.320  0.00  0.00    +0.076 A 
ATOM      3  C   UNL     1       0.021  -4.759  -0.138  0.00  0.00    +0.076 A 
ATOM      4  C   UNL     1       1.035  -5.069   0.801  0.00  0.00    +0.025 A 
ATOM      5  C   UNL     1       2.364  -4.704   0.544  0.00  0.00    +0.039 A 
ATOM      6  C   UNL     1       2.677  -4.048  -0.626  0.00  0.00    +0.077 A 
ATOM      7  C   UNL     1       0.684  -5.748   1.991  0.00  0.00    +0.060 A 
ATOM      8  C   UNL     1      -0.666  -6.083   2.180  0.00  0.00    +0.091 A 
ATOM      9  C   UNL     1      -1.604  -5.736   1.195  0.00  0.00    +0.132 A 
ATOM     10  N   UNL     1      -1.252  -5.108   0.103  0.00  0.00    -0.253 NA
ENDROOT
BRANCH   6  11
ATOM     11  N   UNL     1       4.004  -3.687  -0.887  0.00  0.00    -0.279 N 
ATOM     12  C   UNL     1       4.847  -3.435   0.133  0.00  0.00    +0.241 C 
ATOM     13  O   UNL     1       4.487  -3.621   1.280  0.00  0.00    -0.271 OA
ATOM     14  H   UNL     1       4.316  -3.618  -1.803  0.00  0.00    +0.155 HD
BRANCH  12  15
ATOM     15  C   UNL     1       6.203  -2.936  -0.140  0.00  0.00    +0.064 C 
ATOM     16  C   UNL     1       7.036  -2.687   0.868  0.00  0.00    -0.007 C 
BRANCH  16  17
ATOM     17  C   UNL     1       8.425  -2.176   0.588  0.00  0.00    +0.111 C 
BRANCH  17  18
ATOM     18  N   UNL     1       8.646  -0.927   1.329  0.00  0.00    -0.305 NA
ATOM     19  C   UNL     1      10.057  -0.524   1.274  0.00  0.00    +0.104 C 
ATOM     20  C   UNL     1       7.772   0.143   0.830  0.00  0.00    +0.104 C 
ENDBRANCH  17  18
ENDBRANCH  16  17
ENDBRANCH  12  15
ENDBRANCH   6  11
BRANCH   8  21
ATOM     21  C   UNL     1      -1.081  -6.771   3.365  0.00  0.00    +0.103 C 
ATOM     22  N   UNL     1      -1.411  -7.317   4.305  0.00  0.00    -0.191 NA
ENDBRANCH   8  21
BRANCH   7  23
ATOM     23  N   UNL     1       1.637  -6.072   2.935  0.00  0.00    -0.313 N 
ATOM     24  H   UNL     1       1.951  -5.398   3.558  0.00  0.00    +0.152 HD
BRANCH  23  25
ATOM     25  C   UNL     1       2.152  -7.372   2.993  0.00  0.00    +0.033 A 
ATOM     26  C   UNL     1       2.006  -8.226   1.907  0.00  0.00    +0.027 A 
ATOM     27  C   UNL     1       2.514  -9.509   1.964  0.00  0.00    +0.049 A 
ATOM     28  C   UNL     1       3.169  -9.945   3.106  0.00  0.00    +0.139 A 
ATOM     29  C   UNL     1       3.316  -9.093   4.192  0.00  0.00    +0.084 A 
ATOM     30  C   UNL     1       2.813  -7.807   4.134  0.00  0.00    +0.047 A 
ATOM     31 CL   UNL     1       4.135  -9.641   5.621  0.00  0.00    -0.080 Cl
BRANCH  28  32
ATOM     32  O   UNL     1       3.669 -11.209   3.161  0.00  0.00    -0.486 OA
BRANCH  32  33
ATOM     33  C   UNL     1       3.482 -12.032   2.008  0.00  0.00    +0.266 C 
BRANCH  33  34
ATOM     34  C   UNL     1       4.097 -13.386   2.252  0.00  0.00    +0.008 A 
ATOM     35  C   UNL     1       5.423 -13.624   1.924  0.00  0.00    +0.010 A 
ATOM     36  C   UNL     1       5.946 -14.885   2.166  0.00  0.00    +0.020 A 
ATOM     37  C   UNL     1       5.134 -15.856   2.722  0.00  0.00    +0.111 A 
ATOM     38  N   UNL     1       3.877 -15.594   3.021  0.00  0.00    -0.263 NA
ATOM     39  C   UNL     1       3.348 -14.404   2.810  0.00  0.00    +0.117 A 
ENDBRANCH  33  34
ENDBRANCH  32  33
ENDBRANCH  28  32
ENDBRANCH  23  25
ENDBRANCH   7  23
BRANCH   1  40
ATOM     40  O   UNL     1       1.998  -3.083  -2.702  0.00  0.00    -0.490 OA
BRANCH  40  42
ATOM     41  C   UNL     1       1.488  -2.061  -4.832  0.00  0.00    +0.048 C 
ATOM     42  C   UNL     1       0.932  -2.792  -3.608  0.00  0.00    +0.226 C 
ENDBRANCH  40  42
ENDBRANCH   1  40
TORSDOF 12
