REMARK  Name = CHEMBL119982
REMARK  3 active torsions:
REMARK  status: ('A' for Active; 'I' for Inactive)
REMARK    1  A    between atoms: C_4  and  C_7
REMARK    2  A    between atoms: C_7  and  N_8
REMARK    3  A    between atoms: N_19  and  C_20
REMARK                            x       y       z     vdW  Elec       q    Type
REMARK                         _______ _______ _______ _____ _____    ______ ____
ROOT
ATOM      1  N   UNL     1       4.369  -0.532   1.375  0.00  0.00    -0.324 N 
ATOM      2  C   UNL     1       5.579  -1.152   1.615  0.00  0.00    +0.135 A 
ATOM      3  C   UNL     1       5.941  -1.545   2.914  0.00  0.00    +0.100 A 
ATOM      4  C   UNL     1       5.314  -1.468   4.229  0.00  0.00    +0.157 A 
ATOM      5  N   UNL     1       6.138  -2.008   5.090  0.00  0.00    -0.156 NA
ATOM      6  H   UNL     1       8.048  -2.884   4.858  0.00  0.00    +0.191 HD
ATOM      7  N   UNL     1       7.292  -2.449   4.433  0.00  0.00    -0.258 N 
ATOM      8  C   UNL     1       7.188  -2.174   3.103  0.00  0.00    +0.163 A 
ATOM      9  N   UNL     1       7.972  -2.370   2.043  0.00  0.00    -0.216 NA
ATOM     10  C   UNL     1       7.590  -1.985   0.846  0.00  0.00    +0.225 A 
ATOM     11  N   UNL     1       6.428  -1.397   0.621  0.00  0.00    -0.220 NA
ATOM     12  N   UNL     1       4.063  -0.917   4.517  0.00  0.00    -0.297 N 
ATOM     13  H   UNL     1       3.758  -0.359   2.108  0.00  0.00    +0.148 HD
ATOM     14  H   UNL     1       3.490  -0.611   3.797  0.00  0.00    +0.154 HD
ENDROOT
BRANCH  12  15
ATOM     15  C   UNL     1       3.637  -0.806   5.843  0.00  0.00    +0.034 A 
ATOM     16  C   UNL     1       4.568  -0.648   6.863  0.00  0.00    +0.023 A 
ATOM     17  C   UNL     1       4.144  -0.539   8.172  0.00  0.00    +0.003 A 
ATOM     18  C   UNL     1       2.795  -0.587   8.471  0.00  0.00    +0.020 A 
ATOM     19  C   UNL     1       1.865  -0.744   7.458  0.00  0.00    +0.043 A 
ATOM     20  C   UNL     1       2.282  -0.848   6.144  0.00  0.00    +0.043 A 
ATOM     21 CL   UNL     1       0.172  -0.805   7.838  0.00  0.00    -0.083 Cl
ENDBRANCH  12  15
BRANCH   1  22
ATOM     22  C   UNL     1       4.006  -0.135   0.012  0.00  0.00    +0.138 C 
BRANCH  22  26
ATOM     23  C   UNL     1       0.154   1.710   0.040  0.00  0.00    +0.000 A 
ATOM     24  C   UNL     1       1.289   2.479   0.211  0.00  0.00    +0.000 A 
ATOM     25  C   UNL     1       2.536   1.882   0.203  0.00  0.00    +0.005 A 
ATOM     26  C   UNL     1       2.647   0.516   0.022  0.00  0.00    -0.030 A 
ATOM     27  C   UNL     1       1.511  -0.253  -0.148  0.00  0.00    +0.005 A 
ATOM     28  C   UNL     1       0.265   0.344  -0.141  0.00  0.00    +0.000 A 
ENDBRANCH  22  26
ENDBRANCH   1  22
TORSDOF 3
