REMARK  Name = CHEMBL67057
REMARK  7 active torsions:
REMARK  status: ('A' for Active; 'I' for Inactive)
REMARK    1  A    between atoms: C_1  and  C_2
REMARK    2  A    between atoms: C_4  and  C_36
REMARK    3  A    between atoms: C_7  and  C_8
REMARK    4  A    between atoms: C_15  and  N_16
REMARK    5  A    between atoms: N_16  and  C_17
REMARK    6  A    between atoms: N_25  and  C_26
REMARK    7  A    between atoms: C_26  and  C_27
REMARK                            x       y       z     vdW  Elec       q    Type
REMARK                         _______ _______ _______ _____ _____    ______ ____
ROOT
ATOM      1  C   UNL     1       1.946  -0.066   2.010  0.00  0.00    +0.039 C 
ATOM      2  C   UNL     1       2.067  -1.250   2.704  0.00  0.00    +0.053 C 
ATOM      3  C   UNL     1       1.970  -1.451   4.162  0.00  0.00    +0.067 A 
ATOM      4  C   UNL     1       2.161  -2.823   4.389  0.00  0.00    +0.138 A 
ATOM      5  N   UNL     1       2.119  -3.265   5.644  0.00  0.00    -0.220 NA
ATOM      6  C   UNL     1       1.903  -2.438   6.647  0.00  0.00    +0.225 A 
ATOM      7  N   UNL     1       1.719  -1.144   6.475  0.00  0.00    -0.220 NA
ATOM      8  C   UNL     1       1.744  -0.608   5.255  0.00  0.00    +0.136 A 
ATOM      9  N   UNL     1       2.365  -3.460   3.182  0.00  0.00    -0.266 N 
ATOM     10  C   UNL     1       2.317  -2.595   2.153  0.00  0.00    +0.250 C 
ATOM     11  O   UNL     1       2.457  -2.873   0.976  0.00  0.00    -0.270 OA
ATOM     12  H   UNL     1       2.521  -4.412   3.087  0.00  0.00    +0.157 HD
ENDROOT
BRANCH   1  19
ATOM     13  C   UNL     1       3.047   2.231   0.225  0.00  0.00    +0.046 C 
ATOM     14  C   UNL     1       2.426   0.935  -0.227  0.00  0.00    -0.025 A 
ATOM     15  C   UNL     1       2.238   0.528  -1.544  0.00  0.00    +0.036 A 
ATOM     16  C   UNL     1       1.639  -0.717  -1.515  0.00  0.00    +0.103 A 
ATOM     17  N   UNL     1       1.458  -1.077  -0.204  0.00  0.00    -0.351 N 
ATOM     18  H   UNL     1       1.057  -1.904   0.106  0.00  0.00    +0.166 HD
ATOM     19  C   UNL     1       1.942  -0.074   0.594  0.00  0.00    +0.043 A 
BRANCH  16  20
ATOM     20  C   UNL     1       1.260  -1.518  -2.688  0.00  0.00    +0.263 C 
ATOM     21  O   UNL     1       1.886  -1.412  -3.725  0.00  0.00    -0.268 OA
ATOM     22  N   UNL     1       0.218  -2.370  -2.615  0.00  0.00    -0.292 N 
ATOM     23  C   UNL     1      -0.623  -2.436  -1.409  0.00  0.00    +0.136 C 
ATOM     24  C   UNL     1      -2.091  -2.325  -1.836  0.00  0.00    +0.179 C 
ATOM     25  O   UNL     1      -2.360  -3.294  -2.852  0.00  0.00    -0.377 OA
ATOM     26  C   UNL     1      -1.606  -3.110  -4.052  0.00  0.00    +0.179 C 
ATOM     27  C   UNL     1      -0.116  -3.257  -3.740  0.00  0.00    +0.136 C 
ENDBRANCH  16  20
ENDBRANCH   1  19
BRANCH   8  28
ATOM     28  N   UNL     1       1.552   0.751   5.074  0.00  0.00    -0.299 N 
ATOM     29  H   UNL     1       1.530   1.122   4.178  0.00  0.00    +0.154 HD
BRANCH  28  30
ATOM     30  C   UNL     1       1.388   1.589   6.183  0.00  0.00    +0.033 A 
ATOM     31  C   UNL     1       2.068   1.313   7.369  0.00  0.00    +0.025 A 
ATOM     32  C   UNL     1       1.918   2.127   8.468  0.00  0.00    +0.028 A 
ATOM     33  C   UNL     1       1.081   3.237   8.404  0.00  0.00    +0.049 A 
ATOM     34  C   UNL     1       0.394   3.519   7.210  0.00  0.00    +0.002 A 
ATOM     35  C   UNL     1       0.557   2.691   6.098  0.00  0.00    +0.033 A 
ATOM     36  C   UNL     1      -0.388   4.731   7.468  0.00  0.00    +0.027 A 
ATOM     37  C   UNL     1      -0.141   5.094   8.737  0.00  0.00    +0.087 A 
ATOM     38  N   UNL     1       0.734   4.214   9.313  0.00  0.00    -0.342 N 
BRANCH  38  39
ATOM     39  C   UNL     1       1.228   4.298  10.689  0.00  0.00    +0.157 C 
BRANCH  39  40
ATOM     40  C   UNL     1       2.551   5.018  10.705  0.00  0.00    -0.028 A 
ATOM     41  C   UNL     1       3.728   4.305  10.566  0.00  0.00    +0.005 A 
ATOM     42  C   UNL     1       4.942   4.965  10.580  0.00  0.00    +0.000 A 
ATOM     43  C   UNL     1       4.980   6.339  10.734  0.00  0.00    +0.000 A 
ATOM     44  C   UNL     1       3.804   7.051  10.873  0.00  0.00    +0.000 A 
ATOM     45  C   UNL     1       2.589   6.391  10.854  0.00  0.00    +0.005 A 
ENDBRANCH  39  40
ENDBRANCH  38  39
ENDBRANCH  28  30
ENDBRANCH   8  28
TORSDOF 6
