REMARK  Name = CHEMBL215973
REMARK  6 active torsions:
REMARK  status: ('A' for Active; 'I' for Inactive)
REMARK    1  A    between atoms: C_1  and  O_2
REMARK    2  A    between atoms: O_2  and  C_3
REMARK    3  A    between atoms: C_8  and  O_9
REMARK    4  A    between atoms: O_9  and  C_10
REMARK    5  A    between atoms: C_14  and  N_18
REMARK    6  A    between atoms: N_18  and  C_19
REMARK                            x       y       z     vdW  Elec       q    Type
REMARK                         _______ _______ _______ _____ _____    ______ ____
ROOT
ATOM      1  C   UNL     1      -0.135  -0.865  -1.812  0.00  0.00    +0.162 A 
ATOM      2  C   UNL     1       0.505  -0.093  -2.759  0.00  0.00    +0.058 A 
ATOM      3  C   UNL     1       1.359  -0.664  -3.705  0.00  0.00    +0.016 A 
ATOM      4  C   UNL     1       1.561  -2.025  -3.692  0.00  0.00    +0.139 A 
ATOM      5  C   UNL     1       0.914  -2.809  -2.729  0.00  0.00    +0.096 A 
ATOM      6  C   UNL     1       0.077  -2.240  -1.792  0.00  0.00    +0.165 A 
ATOM      7  O   UNL     1       2.344  -2.708  -4.555  0.00  0.00    -0.436 OA
ATOM      8  C   UNL     1       3.597  -2.335  -4.873  0.00  0.00    +0.247 A 
ATOM      9  C   UNL     1       3.759  -1.154  -5.575  0.00  0.00    +0.131 A 
ATOM     10  C   UNL     1       5.040  -0.790  -5.987  0.00  0.00    +0.151 A 
ATOM     11  N   UNL     1       6.059  -1.579  -5.648  0.00  0.00    -0.218 NA
ATOM     12  C   UNL     1       5.865  -2.674  -4.941  0.00  0.00    +0.227 A 
ATOM     13  N   UNL     1       4.662  -3.058  -4.554  0.00  0.00    -0.199 NA
ATOM     14  N   UNL     1       2.657  -0.324  -5.786  0.00  0.00    -0.333 N 
ATOM     15  C   UNL     1       1.988   0.313  -4.665  0.00  0.00    +0.141 C 
ATOM     16  H   UNL     1       2.335  -0.171  -6.688  0.00  0.00    +0.147 HD
ENDROOT
BRANCH   1  18
ATOM     17  C   UNL     1      -1.132   1.131  -0.987  0.00  0.00    +0.277 C 
ATOM     18  O   UNL     1      -0.964  -0.286  -0.902  0.00  0.00    -0.491 OA
ENDBRANCH   1  18
BRANCH   6  19
ATOM     19  O   UNL     1      -0.539  -3.016  -0.860  0.00  0.00    -0.491 OA
ATOM     20  C   UNL     1      -0.270  -4.419  -0.904  0.00  0.00    +0.277 C 
ENDBRANCH   6  19
BRANCH  10  21
ATOM     21  N   UNL     1       5.249   0.365  -6.733  0.00  0.00    -0.298 N 
ATOM     22  H   UNL     1       4.513   0.973  -6.902  0.00  0.00    +0.154 HD
BRANCH  21  23
ATOM     23  C   UNL     1       6.520   0.650  -7.237  0.00  0.00    +0.033 A 
ATOM     24  C   UNL     1       6.970   1.976  -7.275  0.00  0.00    +0.024 A 
ATOM     25  C   UNL     1       8.201   2.283  -7.760  0.00  0.00    +0.010 A 
ATOM     26  C   UNL     1       9.043   1.260  -8.232  0.00  0.00    -0.018 A 
ATOM     27  C   UNL     1      10.322   1.547  -8.739  0.00  0.00    +0.008 A 
ATOM     28  C   UNL     1      11.113   0.534  -9.188  0.00  0.00    +0.001 A 
ATOM     29  C   UNL     1      10.673  -0.788  -9.155  0.00  0.00    +0.001 A 
ATOM     30  C   UNL     1       9.441  -1.104  -8.671  0.00  0.00    +0.008 A 
ATOM     31  C   UNL     1       8.597  -0.085  -8.198  0.00  0.00    -0.016 A 
ATOM     32  C   UNL     1       7.321  -0.376  -7.687  0.00  0.00    +0.031 A 
ENDBRANCH  21  23
ENDBRANCH  10  21
TORSDOF 4
