REMARK  Name = CHEMBL417420
REMARK  5 active torsions:
REMARK  status: ('A' for Active; 'I' for Inactive)
REMARK    1  A    between atoms: C_3  and  N_8
REMARK    2  A    between atoms: N_16  and  C_17
REMARK    3  A    between atoms: C_17  and  C_18
REMARK    4  A    between atoms: C_18  and  C_19
REMARK    5  A    between atoms: C_19  and  N_20
REMARK                            x       y       z     vdW  Elec       q    Type
REMARK                         _______ _______ _______ _____ _____    ______ ____
ROOT
ATOM      1  N   UNL     1       3.583   2.124  -0.021  0.00  0.00    -0.298 N 
ATOM      2  C   UNL     1       4.786   1.452   0.068  0.00  0.00    +0.152 A 
ATOM      3  C   UNL     1       6.051   2.175   0.177  0.00  0.00    +0.134 A 
ATOM      4  C   UNL     1       7.240   1.410   0.264  0.00  0.00    +0.112 A 
ATOM      5  C   UNL     1       8.464   2.094   0.369  0.00  0.00    +0.144 A 
ATOM      6  N   UNL     1       8.446   3.411   0.381  0.00  0.00    -0.221 NA
ATOM      7  C   UNL     1       7.307   4.094   0.297  0.00  0.00    +0.216 A 
ATOM      8  N   UNL     1       6.130   3.503   0.197  0.00  0.00    -0.209 NA
ATOM      9  N   UNL     1       7.358   5.478   0.317  0.00  0.00    -0.313 N 
ATOM     10  N   UNL     1       7.151   0.076   0.242  0.00  0.00    -0.232 NA
ATOM     11  C   UNL     1       5.988  -0.520   0.142  0.00  0.00    +0.224 A 
ATOM     12  N   UNL     1       4.837   0.126   0.063  0.00  0.00    -0.218 NA
ATOM     13  H   UNL     1       3.571   3.091  -0.094  0.00  0.00    +0.154 HD
ATOM     14  H   UNL     1       6.538   5.994   0.257  0.00  0.00    +0.149 HD
ENDROOT
BRANCH   1  17
ATOM     15  C   UNL     1       1.090  -0.468   0.739  0.00  0.00    +0.003 A 
ATOM     16  C   UNL     1       2.278   0.235   0.727  0.00  0.00    +0.023 A 
ATOM     17  C   UNL     1       2.381   1.410  -0.007  0.00  0.00    +0.033 A 
ATOM     18  C   UNL     1       1.287   1.874  -0.727  0.00  0.00    +0.038 A 
ATOM     19  C   UNL     1       0.101   1.166  -0.710  0.00  0.00    +0.020 A 
ATOM     20  C   UNL     1       0.002  -0.004   0.022  0.00  0.00    +0.015 A 
ATOM     21 BR   UNL     1      -1.389   1.796  -1.689  0.00  0.00    -0.050 Br
ENDBRANCH   1  17
BRANCH   9  22
ATOM     22  C   UNL     1       8.648   6.162   0.428  0.00  0.00    +0.105 C 
BRANCH  22  23
ATOM     23  C   UNL     1       8.425   7.676   0.426  0.00  0.00    +0.034 C 
BRANCH  23  24
ATOM     24  C   UNL     1       9.773   8.390   0.542  0.00  0.00    +0.086 C 
BRANCH  24  25
ATOM     25  N   UNL     1       9.558   9.843   0.541  0.00  0.00    -0.298 NA
ATOM     26  C   UNL     1       9.039  10.298  -0.757  0.00  0.00    +0.112 C 
ATOM     27  C   UNL     1       8.774  11.805  -0.695  0.00  0.00    +0.175 C 
ATOM     28  O   UNL     1       9.980  12.481  -0.327  0.00  0.00    -0.377 OA
ATOM     29  C   UNL     1      10.513  12.063   0.932  0.00  0.00    +0.175 C 
ATOM     30  C   UNL     1      10.795  10.559   0.887  0.00  0.00    +0.112 C 
ENDBRANCH  24  25
ENDBRANCH  23  24
ENDBRANCH  22  23
ENDBRANCH   9  22
TORSDOF 5
