REMARK  Name = CHEMBL40734
REMARK  1 active torsions:
REMARK  status: ('A' for Active; 'I' for Inactive)
REMARK    1  A    between atoms: C_3  and  N_8
REMARK                            x       y       z     vdW  Elec       q    Type
REMARK                         _______ _______ _______ _____ _____    ______ ____
ROOT
ATOM      1  N   UNL     1       3.583   2.124  -0.021  0.00  0.00    -0.299 N 
ATOM      2  C   UNL     1       4.785   1.453   0.068  0.00  0.00    +0.134 A 
ATOM      3  C   UNL     1       6.008   2.163   0.173  0.00  0.00    +0.041 A 
ATOM      4  C   UNL     1       6.048   3.556   0.191  0.00  0.00    +0.023 A 
ATOM      5  C   UNL     1       7.273   4.200   0.297  0.00  0.00    +0.000 A 
ATOM      6  C   UNL     1       7.670   5.612   0.344  0.00  0.00    +0.027 A 
ATOM      7  C   UNL     1       9.006   5.641   0.452  0.00  0.00    +0.083 A 
ATOM      8  N   UNL     1       9.505   4.365   0.478  0.00  0.00    -0.361 N 
ATOM      9  H   UNL     1      10.445   4.136   0.551  0.00  0.00    +0.165 HD
ATOM     10  C   UNL     1       8.473   3.455   0.385  0.00  0.00    +0.049 A 
ATOM     11  C   UNL     1       8.437   2.073   0.367  0.00  0.00    +0.054 A 
ATOM     12  C   UNL     1       7.211   1.413   0.262  0.00  0.00    +0.078 A 
ATOM     13  N   UNL     1       7.135   0.071   0.242  0.00  0.00    -0.235 NA
ATOM     14  C   UNL     1       5.974  -0.529   0.143  0.00  0.00    +0.223 A 
ATOM     15  N   UNL     1       4.827   0.128   0.063  0.00  0.00    -0.220 NA
ATOM     16  H   UNL     1       3.571   3.091  -0.094  0.00  0.00    +0.154 HD
ENDROOT
BRANCH   1  19
ATOM     17  C   UNL     1       1.088  -0.466   0.744  0.00  0.00    +0.003 A 
ATOM     18  C   UNL     1       2.277   0.238   0.731  0.00  0.00    +0.023 A 
ATOM     19  C   UNL     1       2.381   1.410  -0.007  0.00  0.00    +0.033 A 
ATOM     20  C   UNL     1       1.289   1.871  -0.730  0.00  0.00    +0.038 A 
ATOM     21  C   UNL     1       0.102   1.163  -0.713  0.00  0.00    +0.020 A 
ATOM     22  C   UNL     1       0.002  -0.004   0.024  0.00  0.00    +0.015 A 
ATOM     23 BR   UNL     1      -1.386   1.790  -1.697  0.00  0.00    -0.050 Br
ENDBRANCH   1  19
TORSDOF 1
