REMARK  Name = CHEMBL359630
REMARK  13 active torsions:
REMARK  status: ('A' for Active; 'I' for Inactive)
REMARK    1  A    between atoms: C_1  and  C_2
REMARK    2  A    between atoms: C_2  and  O_3
REMARK    3  A    between atoms: O_3  and  C_4
REMARK    4  A    between atoms: C_9  and  N_10
REMARK    5  A    between atoms: C_11  and  C_13
REMARK    6  A    between atoms: C_14  and  C_15
REMARK    7  A    between atoms: C_15  and  C_16
REMARK    8  A    between atoms: C_22  and  N_28
REMARK    9  A    between atoms: C_23  and  C_26
REMARK   10  A    between atoms: N_28  and  C_29
REMARK   11  A    between atoms: C_32  and  O_36
REMARK   12  A    between atoms: O_36  and  C_37
REMARK   13  A    between atoms: C_37  and  C_38
REMARK                            x       y       z     vdW  Elec       q    Type
REMARK                         _______ _______ _______ _____ _____    ______ ____
ROOT
ATOM      1  C   UNL     1       1.673  -3.735  -1.556  0.00  0.00    +0.144 A 
ATOM      2  C   UNL     1       0.364  -4.086  -1.320  0.00  0.00    +0.076 A 
ATOM      3  C   UNL     1       0.021  -4.759  -0.138  0.00  0.00    +0.076 A 
ATOM      4  C   UNL     1       1.035  -5.069   0.801  0.00  0.00    +0.025 A 
ATOM      5  C   UNL     1       2.364  -4.704   0.544  0.00  0.00    +0.039 A 
ATOM      6  C   UNL     1       2.677  -4.048  -0.626  0.00  0.00    +0.077 A 
ATOM      7  C   UNL     1       0.684  -5.748   1.991  0.00  0.00    +0.060 A 
ATOM      8  C   UNL     1      -0.666  -6.083   2.180  0.00  0.00    +0.091 A 
ATOM      9  C   UNL     1      -1.604  -5.736   1.195  0.00  0.00    +0.132 A 
ATOM     10  N   UNL     1      -1.252  -5.108   0.103  0.00  0.00    -0.253 NA
ENDROOT
BRANCH   6  11
ATOM     11  N   UNL     1       4.004  -3.687  -0.887  0.00  0.00    -0.279 N 
ATOM     12  C   UNL     1       4.847  -3.435   0.133  0.00  0.00    +0.241 C 
ATOM     13  O   UNL     1       4.487  -3.621   1.280  0.00  0.00    -0.271 OA
ATOM     14  H   UNL     1       4.316  -3.618  -1.803  0.00  0.00    +0.155 HD
BRANCH  12  15
ATOM     15  C   UNL     1       6.203  -2.936  -0.140  0.00  0.00    +0.064 C 
ATOM     16  C   UNL     1       7.036  -2.687   0.868  0.00  0.00    -0.016 C 
BRANCH  16  17
ATOM     17  C   UNL     1       8.425  -2.176   0.588  0.00  0.00    +0.082 C 
BRANCH  17  18
ATOM     18  C   UNL     1       8.651  -0.895   1.349  0.00  0.00    +0.039 A 
ATOM     19  C   UNL     1       9.061  -0.781   2.627  0.00  0.00    +0.133 A 
ATOM     20  N   UNL     1       9.138   0.524   2.923  0.00  0.00    -0.244 NA
ATOM     21  H   UNL     1       8.199   0.625  -0.022  0.00  0.00    +0.166 HD
ATOM     22  C   UNL     1       8.792   1.225   1.878  0.00  0.00    +0.196 A 
ATOM     23  N   UNL     1       8.486   0.378   0.872  0.00  0.00    -0.348 N 
ENDBRANCH  17  18
ENDBRANCH  16  17
ENDBRANCH  12  15
ENDBRANCH   6  11
BRANCH   8  24
ATOM     24  C   UNL     1      -1.081  -6.771   3.365  0.00  0.00    +0.103 C 
ATOM     25  N   UNL     1      -1.411  -7.317   4.305  0.00  0.00    -0.191 NA
ENDBRANCH   8  24
BRANCH   7  26
ATOM     26  N   UNL     1       1.637  -6.072   2.935  0.00  0.00    -0.313 N 
ATOM     27  H   UNL     1       1.951  -5.398   3.558  0.00  0.00    +0.152 HD
BRANCH  26  28
ATOM     28  C   UNL     1       2.152  -7.372   2.993  0.00  0.00    +0.033 A 
ATOM     29  C   UNL     1       2.006  -8.226   1.907  0.00  0.00    +0.027 A 
ATOM     30  C   UNL     1       2.514  -9.509   1.964  0.00  0.00    +0.049 A 
ATOM     31  C   UNL     1       3.169  -9.945   3.106  0.00  0.00    +0.139 A 
ATOM     32  C   UNL     1       3.316  -9.093   4.192  0.00  0.00    +0.084 A 
ATOM     33  C   UNL     1       2.813  -7.807   4.134  0.00  0.00    +0.047 A 
ATOM     34 CL   UNL     1       4.135  -9.641   5.621  0.00  0.00    -0.080 Cl
BRANCH  31  35
ATOM     35  O   UNL     1       3.669 -11.209   3.161  0.00  0.00    -0.486 OA
BRANCH  35  36
ATOM     36  C   UNL     1       3.482 -12.032   2.008  0.00  0.00    +0.264 C 
BRANCH  36  37
ATOM     37  C   UNL     1       4.097 -13.386   2.252  0.00  0.00    -0.010 A 
ATOM     38  C   UNL     1       5.420 -13.614   1.922  0.00  0.00    +0.007 A 
ATOM     39  C   UNL     1       5.984 -14.856   2.146  0.00  0.00    +0.000 A 
ATOM     40  C   UNL     1       5.225 -15.870   2.700  0.00  0.00    +0.000 A 
ATOM     41  C   UNL     1       3.902 -15.642   3.031  0.00  0.00    +0.000 A 
ATOM     42  C   UNL     1       3.340 -14.398   2.811  0.00  0.00    +0.007 A 
ENDBRANCH  36  37
ENDBRANCH  35  36
ENDBRANCH  31  35
ENDBRANCH  26  28
ENDBRANCH   7  26
BRANCH   1  43
ATOM     43  O   UNL     1       1.998  -3.083  -2.702  0.00  0.00    -0.490 OA
BRANCH  43  45
ATOM     44  C   UNL     1       1.488  -2.061  -4.832  0.00  0.00    +0.048 C 
ATOM     45  C   UNL     1       0.932  -2.792  -3.608  0.00  0.00    +0.226 C 
ENDBRANCH  43  45
ENDBRANCH   1  43
TORSDOF 12
