REMARK  Name = CHEMBL553137
REMARK  3 active torsions:
REMARK  status: ('A' for Active; 'I' for Inactive)
REMARK    1  A    between atoms: C_1  and  N_2
REMARK    2  A    between atoms: C_11  and  N_15
REMARK    3  A    between atoms: N_15  and  C_16
REMARK                            x       y       z     vdW  Elec       q    Type
REMARK                         _______ _______ _______ _____ _____    ______ ____
ROOT
ATOM      1  C   UNL     1       0.545   1.219  -0.038  0.00  0.00    +0.149 C 
ATOM      2  N   UNL     1      -0.102  -0.094   0.039  0.00  0.00    -0.339 N 
ATOM      3  C   UNL     1      -0.455  -0.867  -1.050  0.00  0.00    +0.051 A 
ATOM      4  C   UNL     1      -0.325  -0.668  -2.422  0.00  0.00    +0.026 A 
ATOM      5  C   UNL     1      -0.774  -1.627  -3.303  0.00  0.00    +0.002 A 
ATOM      6  C   UNL     1      -1.359  -2.795  -2.837  0.00  0.00    +0.001 A 
ATOM      7  C   UNL     1      -1.498  -3.011  -1.484  0.00  0.00    +0.012 A 
ATOM      8  C   UNL     1      -1.047  -2.050  -0.580  0.00  0.00    +0.026 A 
ATOM      9  C   UNL     1      -1.041  -1.965   0.889  0.00  0.00    +0.101 A 
ATOM     10  C   UNL     1      -0.441  -0.741   1.212  0.00  0.00    +0.109 A 
ATOM     11  C   UNL     1      -0.305  -0.413   2.568  0.00  0.00    +0.150 A 
ATOM     12  N   UNL     1      -0.745  -1.274   3.479  0.00  0.00    -0.218 NA
ATOM     13  C   UNL     1      -1.301  -2.419   3.129  0.00  0.00    +0.224 A 
ATOM     14  N   UNL     1      -1.457  -2.766   1.869  0.00  0.00    -0.233 NA
ENDROOT
BRANCH  11  15
ATOM     15  N   UNL     1       0.278   0.786   2.950  0.00  0.00    -0.298 N 
ATOM     16  H   UNL     1       0.523   1.442   2.279  0.00  0.00    +0.154 HD
BRANCH  15  17
ATOM     17  C   UNL     1       0.511   1.050   4.303  0.00  0.00    +0.033 A 
ATOM     18  C   UNL     1       0.826   0.011   5.170  0.00  0.00    +0.023 A 
ATOM     19  C   UNL     1       1.056   0.274   6.506  0.00  0.00    +0.003 A 
ATOM     20  C   UNL     1       0.975   1.570   6.981  0.00  0.00    +0.015 A 
ATOM     21  C   UNL     1       0.662   2.607   6.121  0.00  0.00    +0.020 A 
ATOM     22  C   UNL     1       0.435   2.351   4.782  0.00  0.00    +0.038 A 
ATOM     23 BR   UNL     1       0.551   4.377   6.776  0.00  0.00    -0.050 Br
ENDBRANCH  15  17
ENDBRANCH  11  15
TORSDOF 2
