REMARK  Name = CHEMBL474142
REMARK  4 active torsions:
REMARK  status: ('A' for Active; 'I' for Inactive)
REMARK    1  A    between atoms: C_2  and  C_3
REMARK    2  A    between atoms: N_5  and  C_6
REMARK    3  A    between atoms: C_12  and  N_16
REMARK    4  A    between atoms: N_16  and  C_17
REMARK                            x       y       z     vdW  Elec       q    Type
REMARK                         _______ _______ _______ _____ _____    ______ ____
ROOT
ATOM      1  C   UNL     1      -2.492  -2.842  -0.602  0.00  0.00    +0.105 A 
ATOM      2  C   UNL     1      -3.716  -2.285  -0.437  0.00  0.00    +0.071 A 
ATOM      3  C   UNL     1      -4.636  -3.327  -0.182  0.00  0.00    +0.095 A 
ATOM      4  C   UNL     1      -3.902  -4.528  -0.203  0.00  0.00    +0.107 A 
ATOM      5  N   UNL     1      -2.588  -4.200  -0.468  0.00  0.00    -0.339 N 
ATOM      6  H   UNL     1      -1.853  -4.829  -0.545  0.00  0.00    +0.167 HD
ATOM      7  C   UNL     1      -4.584  -5.724   0.024  0.00  0.00    +0.150 A 
ATOM      8  N   UNL     1      -5.895  -5.678   0.250  0.00  0.00    -0.218 NA
ATOM      9  C   UNL     1      -6.548  -4.530   0.262  0.00  0.00    +0.224 A 
ATOM     10  N   UNL     1      -5.952  -3.377   0.053  0.00  0.00    -0.234 NA
ENDROOT
BRANCH   1  13
ATOM     11  C   UNL     1      -1.350  -0.799  -0.980  0.00  0.00    +0.242 C 
ATOM     12  O   UNL     1      -2.400  -0.200  -0.844  0.00  0.00    -0.270 OA
ATOM     13  N   UNL     1      -1.322  -2.142  -0.870  0.00  0.00    -0.268 N 
ATOM     14  H   UNL     1      -0.485  -2.620  -0.979  0.00  0.00    +0.156 HD
BRANCH  11  16
ATOM     15  C   UNL     1      -0.140   1.267  -1.373  0.00  0.00    +0.013 C 
ATOM     16  C   UNL     1      -0.112  -0.059  -1.264  0.00  0.00    +0.060 C 
ENDBRANCH  11  16
ENDBRANCH   1  13
BRANCH   7  17
ATOM     17  N   UNL     1      -3.910  -6.937   0.014  0.00  0.00    -0.298 N 
ATOM     18  H   UNL     1      -2.943  -6.954  -0.069  0.00  0.00    +0.154 HD
BRANCH  17  19
ATOM     19  C   UNL     1      -4.623  -8.134   0.122  0.00  0.00    +0.033 A 
ATOM     20  C   UNL     1      -4.080  -9.207   0.819  0.00  0.00    +0.023 A 
ATOM     21  C   UNL     1      -4.787 -10.388   0.924  0.00  0.00    +0.003 A 
ATOM     22  C   UNL     1      -6.034 -10.505   0.338  0.00  0.00    +0.015 A 
ATOM     23  C   UNL     1      -6.578  -9.439  -0.357  0.00  0.00    +0.020 A 
ATOM     24  C   UNL     1      -5.878  -8.251  -0.461  0.00  0.00    +0.038 A 
ATOM     25 BR   UNL     1      -8.283  -9.604  -1.158  0.00  0.00    -0.050 Br
ENDBRANCH  17  19
ENDBRANCH   7  17
TORSDOF 4
