REMARK  Name = CHEMBL97162
REMARK  6 active torsions:
REMARK  status: ('A' for Active; 'I' for Inactive)
REMARK    1  A    between atoms: C_1  and  O_2
REMARK    2  A    between atoms: O_2  and  C_3
REMARK    3  A    between atoms: C_7  and  C_9
REMARK    4  A    between atoms: C_10  and  C_21
REMARK    5  A    between atoms: N_13  and  C_14
REMARK    6  A    between atoms: C_17  and  O_20
REMARK                            x       y       z     vdW  Elec       q    Type
REMARK                         _______ _______ _______ _____ _____    ______ ____
ROOT
ATOM      1  C   UNL     1      -2.548  -4.101  -0.180  0.00  0.00    +0.093 A 
ATOM      2  C   UNL     1      -1.557  -4.945  -0.653  0.00  0.00    +0.073 A 
ATOM      3  N   UNL     1      -1.829  -6.179  -0.194  0.00  0.00    -0.345 N 
ATOM      4  C   UNL     1      -2.916  -6.149   0.526  0.00  0.00    +0.175 A 
ATOM      5  N   UNL     1      -3.394  -4.888   0.570  0.00  0.00    -0.327 N 
ATOM      6  H   UNL     1      -1.297  -6.971  -0.371  0.00  0.00    +0.167 HD
ENDROOT
BRANCH   2   7
ATOM      7  C   UNL     1      -0.410  -4.559  -1.507  0.00  0.00    +0.001 A 
ATOM      8  C   UNL     1      -0.606  -3.720  -2.604  0.00  0.00    +0.013 A 
ATOM      9  C   UNL     1       0.466  -3.364  -3.397  0.00  0.00    +0.039 A 
ATOM     10  C   UNL     1       1.735  -3.837  -3.104  0.00  0.00    +0.123 A 
ATOM     11  C   UNL     1       1.934  -4.671  -2.015  0.00  0.00    +0.039 A 
ATOM     12  C   UNL     1       0.870  -5.028  -1.213  0.00  0.00    +0.013 A 
ATOM     13  F   UNL     1       2.781  -3.485  -3.883  0.00  0.00    -0.205 F 
ENDBRANCH   2   7
BRANCH   1  18
ATOM     14  C   UNL     1      -1.692  -0.610  -0.861  0.00  0.00    +0.318 A 
ATOM     15  N   UNL     1      -2.867  -0.001  -0.874  0.00  0.00    -0.203 NA
ATOM     16  C   UNL     1      -3.989  -0.675  -0.666  0.00  0.00    +0.118 A 
ATOM     17  C   UNL     1      -3.927  -2.035  -0.432  0.00  0.00    +0.050 A 
ATOM     18  C   UNL     1      -2.669  -2.653  -0.424  0.00  0.00    +0.096 A 
ATOM     19  N   UNL     1      -1.584  -1.909  -0.647  0.00  0.00    -0.193 NA
BRANCH  14  21
ATOM     20  C   UNL     1      -0.739   1.518  -1.306  0.00  0.00    +0.280 C 
ATOM     21  O   UNL     1      -0.570   0.118  -1.079  0.00  0.00    -0.466 OA
ENDBRANCH  14  21
ENDBRANCH   1  18
BRANCH   5  22
ATOM     22  C   UNL     1      -4.594  -4.440   1.281  0.00  0.00    +0.089 C 
ATOM     23  C   UNL     1      -4.515  -4.881   2.744  0.00  0.00    +0.027 C 
ATOM     24  C   UNL     1      -5.768  -4.412   3.486  0.00  0.00    +0.033 C 
ATOM     25  C   UNL     1      -7.008  -5.028   2.834  0.00  0.00    +0.115 C 
ATOM     26  C   UNL     1      -7.087  -4.588   1.371  0.00  0.00    +0.033 C 
ATOM     27  C   UNL     1      -5.833  -5.056   0.629  0.00  0.00    +0.027 C 
BRANCH  25  28
ATOM     28  O   UNL     1      -8.178  -4.591   3.527  0.00  0.00    -0.392 OA
ATOM     29  H   UNL     1      -9.003  -4.943   3.167  0.00  0.00    +0.210 HD
ENDBRANCH  25  28
ENDBRANCH   5  22
TORSDOF 5
