REMARK  Name = CHEMBL225929
REMARK  11 active torsions:
REMARK  status: ('A' for Active; 'I' for Inactive)
REMARK    1  A    between atoms: C_4  and  C_7
REMARK    2  A    between atoms: C_7  and  N_8
REMARK    3  A    between atoms: N_8  and  C_9
REMARK    4  A    between atoms: N_8  and  C_32
REMARK    5  A    between atoms: C_9  and  C_10
REMARK    6  A    between atoms: C_10  and  N_11
REMARK    7  A    between atoms: N_11  and  N_12
REMARK    8  A    between atoms: N_13  and  C_14
REMARK    9  A    between atoms: C_20  and  N_24
REMARK   10  A    between atoms: N_24  and  C_25
REMARK   11  A    between atoms: C_32  and  C_33
REMARK                            x       y       z     vdW  Elec       q    Type
REMARK                         _______ _______ _______ _____ _____    ______ ____
ROOT
ATOM      1  C   UNL     1       9.986  -2.521   2.711  0.00  0.00    +0.088 A 
ATOM      2  C   UNL     1       9.319  -2.296   1.496  0.00  0.00    +0.032 A 
ATOM      3  C   UNL     1       9.884  -2.654   0.312  0.00  0.00    +0.030 A 
ATOM      4  C   UNL     1      11.150  -3.256   0.295  0.00  0.00    +0.076 A 
ATOM      5  C   UNL     1      11.833  -3.487   1.516  0.00  0.00    +0.042 A 
ATOM      6  C   UNL     1      11.242  -3.110   2.724  0.00  0.00    +0.043 A 
ATOM      7  C   UNL     1      13.111  -4.097   1.464  0.00  0.00    +0.134 A 
ATOM      8  N   UNL     1      13.602  -4.420   0.275  0.00  0.00    -0.220 NA
ATOM      9  C   UNL     1      12.928  -4.185  -0.839  0.00  0.00    +0.223 A 
ATOM     10  N   UNL     1      11.742  -3.624  -0.851  0.00  0.00    -0.235 NA
ENDROOT
BRANCH   1  12
ATOM     11  N   UNL     1       8.128  -1.911   3.932  0.00  0.00    -0.081 NA
ATOM     12  N   UNL     1       9.395  -2.151   3.892  0.00  0.00    -0.134 NA
BRANCH  11  13
ATOM     13  N   UNL     1       7.286  -2.427   2.938  0.00  0.00    -0.249 N 
ATOM     14  H   UNL     1       7.638  -3.041   2.275  0.00  0.00    +0.170 HD
BRANCH  13  15
ATOM     15  C   UNL     1       5.874  -2.040   2.902  0.00  0.00    +0.139 C 
BRANCH  15  16
ATOM     16  C   UNL     1       5.184  -2.739   1.728  0.00  0.00    +0.105 C 
BRANCH  16  17
ATOM     17  N   UNL     1       3.795  -2.271   1.628  0.00  0.00    -0.296 NA
BRANCH  17  18
ATOM     18  C   UNL     1       3.744  -0.854   1.245  0.00  0.00    +0.119 C 
BRANCH  18  22
ATOM     19  C   UNL     1      -0.256   0.590   1.653  0.00  0.00    +0.000 A 
ATOM     20  C   UNL     1       0.620   0.670   2.720  0.00  0.00    +0.000 A 
ATOM     21  C   UNL     1       1.914   0.203   2.587  0.00  0.00    +0.005 A 
ATOM     22  C   UNL     1       2.333  -0.345   1.389  0.00  0.00    -0.033 A 
ATOM     23  C   UNL     1       1.456  -0.425   0.323  0.00  0.00    +0.005 A 
ATOM     24  C   UNL     1       0.163   0.043   0.454  0.00  0.00    +0.000 A 
ENDBRANCH  18  22
ENDBRANCH  17  18
BRANCH  17  25
ATOM     25  C   UNL     1       3.027  -3.098   0.687  0.00  0.00    +0.100 C 
BRANCH  25  26
ATOM     26  C   UNL     1       2.776  -4.474   1.307  0.00  0.00    +0.124 C 
ATOM     27 CL   UNL     1       1.956  -5.535   0.101  0.00  0.00    -0.124 Cl
ENDBRANCH  25  26
ENDBRANCH  17  25
ENDBRANCH  16  17
ENDBRANCH  15  16
ENDBRANCH  13  15
ENDBRANCH  11  13
ENDBRANCH   1  12
BRANCH   7  28
ATOM     28  N   UNL     1      13.824  -4.348   2.617  0.00  0.00    -0.299 N 
ATOM     29  H   UNL     1      13.420  -4.182   3.483  0.00  0.00    +0.154 HD
BRANCH  28  30
ATOM     30  C   UNL     1      15.130  -4.840   2.539  0.00  0.00    +0.034 A 
ATOM     31  C   UNL     1      15.601  -5.721   3.504  0.00  0.00    +0.023 A 
ATOM     32  C   UNL     1      16.892  -6.206   3.424  0.00  0.00    +0.003 A 
ATOM     33  C   UNL     1      17.716  -5.815   2.385  0.00  0.00    +0.020 A 
ATOM     34  C   UNL     1      17.250  -4.938   1.421  0.00  0.00    +0.043 A 
ATOM     35  C   UNL     1      15.957  -4.454   1.492  0.00  0.00    +0.043 A 
ATOM     36 CL   UNL     1      18.288  -4.450   0.118  0.00  0.00    -0.083 Cl
ENDBRANCH  28  30
ENDBRANCH   7  28
TORSDOF 11
