REMARK  Name = CHEMBL251123
REMARK  11 active torsions:
REMARK  status: ('A' for Active; 'I' for Inactive)
REMARK    1  A    between atoms: C_1  and  C_2
REMARK    2  A    between atoms: C_2  and  O_3
REMARK    3  A    between atoms: O_3  and  C_4
REMARK    4  A    between atoms: C_9  and  O_10
REMARK    5  A    between atoms: O_10  and  C_11
REMARK    6  A    between atoms: C_11  and  C_12
REMARK    7  A    between atoms: C_16  and  C_17
REMARK    8  A    between atoms: C_18  and  C_19
REMARK    9  A    between atoms: C_19  and  C_20
REMARK   10  A    between atoms: C_20  and  C_21
REMARK   11  A    between atoms: C_21  and  C_22
REMARK                            x       y       z     vdW  Elec       q    Type
REMARK                         _______ _______ _______ _____ _____    ______ ____
ROOT
ATOM      1  C   UNL     1      -1.498  -1.849   0.006  0.00  0.00    +0.163 A 
ATOM      2  C   UNL     1      -0.398  -2.659  -0.003  0.00  0.00    +0.061 A 
ATOM      3  C   UNL     1      -0.565  -4.048  -0.008  0.00  0.00    +0.029 A 
ATOM      4  C   UNL     1      -1.871  -4.603  -0.004  0.00  0.00    +0.078 A 
ATOM      5  C   UNL     1      -2.981  -3.748   0.005  0.00  0.00    +0.077 A 
ATOM      6  C   UNL     1      -2.791  -2.394   0.016  0.00  0.00    +0.164 A 
ATOM      7  N   UNL     1      -2.004  -5.936  -0.009  0.00  0.00    -0.235 NA
ATOM      8  C   UNL     1      -0.946  -6.712  -0.017  0.00  0.00    +0.222 A 
ATOM      9  N   UNL     1       0.291  -6.244  -0.021  0.00  0.00    -0.235 NA
ATOM     10  C   UNL     1       0.538  -4.938  -0.017  0.00  0.00    +0.075 A 
ENDROOT
BRANCH  10  11
ATOM     11  C   UNL     1       1.921  -4.429  -0.022  0.00  0.00    +0.024 C 
ATOM     12  C   UNL     1       2.942  -5.280  -0.031  0.00  0.00    -0.025 C 
BRANCH  12  13
ATOM     13  C   UNL     1       4.357  -4.760  -0.036  0.00  0.00    +0.027 C 
BRANCH  13  14
ATOM     14  C   UNL     1       5.127  -5.365   1.139  0.00  0.00    +0.009 C 
BRANCH  14  15
ATOM     15  C   UNL     1       6.563  -4.836   1.134  0.00  0.00    +0.035 C 
BRANCH  15  16
ATOM     16  C   UNL     1       7.322  -5.432   2.292  0.00  0.00    -0.047 A 
ATOM     17  C   UNL     1       7.330  -4.791   3.516  0.00  0.00    +0.003 A 
ATOM     18  C   UNL     1       8.026  -5.337   4.578  0.00  0.00    +0.000 A 
ATOM     19  C   UNL     1       8.713  -6.526   4.416  0.00  0.00    +0.000 A 
ATOM     20  C   UNL     1       8.704  -7.168   3.192  0.00  0.00    +0.000 A 
ATOM     21  C   UNL     1       8.005  -6.623   2.131  0.00  0.00    +0.003 A 
ENDBRANCH  15  16
ENDBRANCH  14  15
ENDBRANCH  13  14
ENDBRANCH  12  13
ENDBRANCH  10  11
BRANCH   1  22
ATOM     22  O   UNL     1      -1.339  -0.499   0.012  0.00  0.00    -0.489 OA
BRANCH  22  24
ATOM     23  C   UNL     1      -0.019   1.526   0.010  0.00  0.00    +0.048 C 
ATOM     24  C   UNL     1       0.002  -0.004   0.002  0.00  0.00    +0.226 C 
ENDBRANCH  22  24
ENDBRANCH   1  22
BRANCH   6  25
ATOM     25  O   UNL     1      -3.868  -1.566   0.030  0.00  0.00    -0.489 OA
BRANCH  25  26
ATOM     26  C   UNL     1      -5.158  -2.180   0.039  0.00  0.00    +0.226 C 
ATOM     27  C   UNL     1      -6.238  -1.097   0.055  0.00  0.00    +0.048 C 
ENDBRANCH  25  26
ENDBRANCH   6  25
TORSDOF 9
