REMARK  Name = CHEMBL467215
REMARK  10 active torsions:
REMARK  status: ('A' for Active; 'I' for Inactive)
REMARK    1  A    between atoms: C_1  and  N_2
REMARK    2  A    between atoms: N_2  and  C_3
REMARK    3  A    between atoms: N_2  and  C_4
REMARK    4  A    between atoms: C_4  and  C_5
REMARK    5  A    between atoms: C_6  and  C_7
REMARK    6  A    between atoms: N_9  and  C_10
REMARK    7  A    between atoms: C_13  and  N_27
REMARK    8  A    between atoms: C_19  and  O_20
REMARK    9  A    between atoms: O_20  and  C_21
REMARK   10  A    between atoms: N_27  and  C_28
REMARK                            x       y       z     vdW  Elec       q    Type
REMARK                         _______ _______ _______ _____ _____    ______ ____
ROOT
ATOM      1  C   UNL     1      -2.530  -6.118   1.227  0.00  0.00    +0.077 A 
ATOM      2  C   UNL     1      -1.858  -6.665   0.156  0.00  0.00    +0.038 A 
ATOM      3  C   UNL     1      -2.331  -7.849  -0.425  0.00  0.00    +0.021 A 
ATOM      4  C   UNL     1      -1.668  -8.442  -1.526  0.00  0.00    +0.042 A 
ATOM      5  C   UNL     1      -2.195  -9.614  -2.047  0.00  0.00    +0.041 A 
ATOM      6  C   UNL     1      -3.338 -10.164  -1.484  0.00  0.00    +0.085 A 
ATOM      7  N   UNL     1      -3.945  -9.605  -0.462  0.00  0.00    -0.360 N 
ATOM      8  C   UNL     1      -3.492  -8.474   0.092  0.00  0.00    +0.052 A 
ATOM      9  C   UNL     1      -4.156  -7.893   1.185  0.00  0.00    +0.073 A 
ATOM     10  C   UNL     1      -3.677  -6.742   1.741  0.00  0.00    +0.144 A 
ATOM     11  H   UNL     1      -4.741 -10.024  -0.100  0.00  0.00    +0.165 HD
ENDROOT
BRANCH   1  14
ATOM     12  C   UNL     1      -0.771  -4.576   1.663  0.00  0.00    +0.241 C 
ATOM     13  O   UNL     1       0.017  -5.340   1.138  0.00  0.00    -0.271 OA
ATOM     14  N   UNL     1      -2.061  -4.935   1.811  0.00  0.00    -0.279 N 
ATOM     15  H   UNL     1      -2.665  -4.375   2.322  0.00  0.00    +0.155 HD
BRANCH  12  17
ATOM     16  C   UNL     1       0.958  -2.905   1.989  0.00  0.00    -0.040 C 
ATOM     17  C   UNL     1      -0.316  -3.260   2.135  0.00  0.00    +0.061 C 
BRANCH  16  18
ATOM     18  C   UNL     1       1.425  -1.556   2.474  0.00  0.00    -0.052 C 
BRANCH  18  20
ATOM     19  C   UNL     1       3.085  -0.415   3.776  0.00  0.00    -0.096 C 
ATOM     20  N   UNL     1       2.554  -1.731   3.397  0.00  0.00    +0.378 N 
ATOM     21  C   UNL     1       2.097  -2.439   4.600  0.00  0.00    -0.096 C 
ATOM     22  H   UNL     1       3.278  -2.269   2.945  0.00  0.00    -0.082 HD
ENDBRANCH  18  20
ENDBRANCH  16  18
ENDBRANCH  12  17
ENDBRANCH   1  14
BRANCH   4  23
ATOM     23  N   UNL     1      -0.527  -7.867  -2.068  0.00  0.00    -0.314 N 
ATOM     24  H   UNL     1      -0.113  -7.107  -1.631  0.00  0.00    +0.152 HD
BRANCH  23  25
ATOM     25  C   UNL     1       0.025  -8.383  -3.244  0.00  0.00    +0.033 A 
ATOM     26  C   UNL     1       1.400  -8.551  -3.352  0.00  0.00    +0.026 A 
ATOM     27  C   UNL     1       1.944  -9.062  -4.514  0.00  0.00    +0.041 A 
ATOM     28  C   UNL     1       1.120  -9.407  -5.572  0.00  0.00    +0.142 A 
ATOM     29  C   UNL     1      -0.252  -9.240  -5.468  0.00  0.00    +0.078 A 
ATOM     30  C   UNL     1      -0.801  -8.735  -4.304  0.00  0.00    +0.046 A 
ATOM     31 CL   UNL     1      -1.282  -9.673  -6.796  0.00  0.00    -0.081 Cl
ATOM     32  F   UNL     1       1.654  -9.906  -6.708  0.00  0.00    -0.204 F 
ENDBRANCH  23  25
ENDBRANCH   4  23
BRANCH  10  33
ATOM     33  O   UNL     1      -4.322  -6.191   2.802  0.00  0.00    -0.485 OA
BRANCH  33  34
ATOM     34  C   UNL     1      -5.495  -6.862   3.269  0.00  0.00    +0.201 C 
ATOM     35  C   UNL     1      -5.872  -6.385   4.698  0.00  0.00    +0.075 C 
ATOM     36  C   UNL     1      -7.404  -6.619   4.690  0.00  0.00    +0.163 C 
ATOM     37  O   UNL     1      -7.827  -6.292   3.357  0.00  0.00    -0.376 OA
ATOM     38  C   UNL     1      -6.731  -6.447   2.442  0.00  0.00    +0.204 C 
ENDBRANCH  33  34
ENDBRANCH  10  33
TORSDOF 8
