REMARK  Name = CHEMBL144908
REMARK  13 active torsions:
REMARK  status: ('A' for Active; 'I' for Inactive)
REMARK    1  A    between atoms: C_2  and  C_9
REMARK    2  A    between atoms: C_4  and  O_8
REMARK    3  A    between atoms: C_5  and  O_7
REMARK    4  A    between atoms: C_10  and  C_11
REMARK    5  A    between atoms: C_10  and  C_31
REMARK    6  A    between atoms: N_13  and  C_14
REMARK    7  A    between atoms: C_14  and  C_15
REMARK    8  A    between atoms: C_15  and  N_16
REMARK    9  A    between atoms: C_17  and  C_19
REMARK   10  A    between atoms: C_19  and  C_29
REMARK   11  A    between atoms: C_20  and  C_21
REMARK   12  A    between atoms: C_23  and  O_28
REMARK   13  A    between atoms: C_24  and  O_27
REMARK                            x       y       z     vdW  Elec       q    Type
REMARK                         _______ _______ _______ _____ _____    ______ ____
ROOT
ATOM      1  C   UNL     1      -1.199   7.857  -0.170  0.00  0.00    +0.123 C 
ENDROOT
BRANCH   1   4
ATOM      2  C   UNL     1      -0.007   5.745   0.063  0.00  0.00    +0.254 C 
ATOM      3  O   UNL     1       1.028   6.374   0.170  0.00  0.00    -0.269 OA
ATOM      4  N   UNL     1      -1.176   6.394  -0.110  0.00  0.00    -0.309 N 
ATOM      5  H   UNL     1      -2.002   5.892  -0.195  0.00  0.00    +0.149 HD
BRANCH   2   7
ATOM      6  C   UNL     1       1.210   3.611   0.301  0.00  0.00    +0.032 C 
ATOM      7  C   UNL     1       0.015   4.275   0.124  0.00  0.00    +0.114 C 
BRANCH   6   9
ATOM      8  C   UNL     1       2.205   1.431   0.955  0.00  0.00    +0.012 A 
ATOM      9  C   UNL     1       1.255   2.150   0.215  0.00  0.00    -0.020 A 
ATOM     10  C   UNL     1       0.349   1.465  -0.607  0.00  0.00    +0.057 A 
ATOM     11  C   UNL     1       0.397   0.088  -0.683  0.00  0.00    +0.159 A 
ATOM     12  C   UNL     1       1.346  -0.619   0.057  0.00  0.00    +0.158 A 
ATOM     13  C   UNL     1       2.244   0.058   0.872  0.00  0.00    +0.050 A 
BRANCH  12  14
ATOM     14  O   UNL     1       1.390  -1.974  -0.020  0.00  0.00    -0.503 OA
ATOM     15  H   UNL     1       1.971  -2.310  -0.716  0.00  0.00    +0.292 HD
ENDBRANCH  12  14
BRANCH  11  16
ATOM     16  O   UNL     1      -0.480  -0.580  -1.478  0.00  0.00    -0.503 OA
ATOM     17  H   UNL     1      -0.166  -0.716  -2.383  0.00  0.00    +0.292 HD
ENDBRANCH  11  16
ENDBRANCH   6   9
BRANCH   7  18
ATOM     18  C   UNL     1      -1.204   3.534  -0.001  0.00  0.00    +0.104 C 
ATOM     19  N   UNL     1      -2.171   2.946  -0.101  0.00  0.00    -0.191 NA
ENDBRANCH   7  18
ENDBRANCH   2   7
ENDBRANCH   1   4
BRANCH   1  20
ATOM     20  C   UNL     1      -2.638   8.337  -0.371  0.00  0.00    +0.123 C 
BRANCH  20  21
ATOM     21  N   UNL     1      -2.660   9.801  -0.431  0.00  0.00    -0.309 N 
ATOM     22  C   UNL     1      -3.829  10.450  -0.605  0.00  0.00    +0.254 C 
ATOM     23  O   UNL     1      -4.864   9.821  -0.711  0.00  0.00    -0.269 OA
ATOM     24  H   UNL     1      -1.835  10.303  -0.346  0.00  0.00    +0.149 HD
BRANCH  22  25
ATOM     25  C   UNL     1      -3.852  11.920  -0.665  0.00  0.00    +0.114 C 
ATOM     26  C   UNL     1      -5.046  12.584  -0.842  0.00  0.00    +0.032 C 
BRANCH  26  27
ATOM     27  C   UNL     1      -5.054  14.032  -1.055  0.00  0.00    -0.020 A 
ATOM     28  C   UNL     1      -3.965  14.658  -1.680  0.00  0.00    +0.057 A 
ATOM     29  C   UNL     1      -3.979  16.023  -1.877  0.00  0.00    +0.159 A 
ATOM     30  C   UNL     1      -5.075  16.779  -1.456  0.00  0.00    +0.158 A 
ATOM     31  C   UNL     1      -6.154  16.161  -0.837  0.00  0.00    +0.050 A 
ATOM     32  C   UNL     1      -6.153  14.798  -0.640  0.00  0.00    +0.012 A 
BRANCH  30  33
ATOM     33  O   UNL     1      -5.085  18.122  -1.651  0.00  0.00    -0.503 OA
ATOM     34  H   UNL     1      -5.472  18.394  -2.495  0.00  0.00    +0.292 HD
ENDBRANCH  30  33
BRANCH  29  35
ATOM     35  O   UNL     1      -2.925  16.633  -2.482  0.00  0.00    -0.503 OA
ATOM     36  H   UNL     1      -3.004  16.692  -3.444  0.00  0.00    +0.292 HD
ENDBRANCH  29  35
ENDBRANCH  26  27
BRANCH  25  37
ATOM     37  C   UNL     1      -2.632  12.661  -0.540  0.00  0.00    +0.104 C 
ATOM     38  N   UNL     1      -1.665  13.248  -0.441  0.00  0.00    -0.191 NA
ENDBRANCH  25  37
ENDBRANCH  22  25
ENDBRANCH  20  21
ENDBRANCH   1  20
TORSDOF 13
