REMARK  Name = CHEMBL489058
REMARK  12 active torsions:
REMARK  status: ('A' for Active; 'I' for Inactive)
REMARK    1  A    between atoms: C_1  and  C_2
REMARK    2  A    between atoms: C_2  and  N_3
REMARK    3  A    between atoms: N_6  and  C_9
REMARK    4  A    between atoms: C_9  and  C_10
REMARK    5  A    between atoms: C_10  and  C_11
REMARK    6  A    between atoms: C_12  and  C_13
REMARK    7  A    between atoms: C_21  and  C_38
REMARK    8  A    between atoms: C_22  and  N_23
REMARK    9  A    between atoms: N_23  and  C_24
REMARK   10  A    between atoms: C_27  and  S_31
REMARK   11  A    between atoms: S_31  and  C_32
REMARK   12  A    between atoms: N_36  and  C_37
REMARK                            x       y       z     vdW  Elec       q    Type
REMARK                         _______ _______ _______ _____ _____    ______ ____
ROOT
ATOM      1  C   UNL     1       5.433 -10.260   7.968  0.00  0.00    -0.023 A 
ATOM      2  C   UNL     1       6.738  -9.846   8.284  0.00  0.00    +0.009 A 
ATOM      3  C   UNL     1       6.949  -8.811   9.139  0.00  0.00    +0.012 A 
ATOM      4  C   UNL     1       5.857  -8.144   9.716  0.00  0.00    +0.023 A 
ATOM      5  C   UNL     1       4.535  -8.549   9.407  0.00  0.00    +0.073 A 
ATOM      6  C   UNL     1       4.337  -9.616   8.519  0.00  0.00    +0.036 A 
ATOM      7  N   UNL     1       3.488  -7.914   9.955  0.00  0.00    -0.254 NA
ATOM      8  C   UNL     1       3.640  -6.912  10.783  0.00  0.00    +0.132 A 
ATOM      9  C   UNL     1       4.913  -6.443  11.145  0.00  0.00    +0.091 A 
ATOM     10  C   UNL     1       6.052  -7.064  10.608  0.00  0.00    +0.060 A 
ENDROOT
BRANCH   1  12
ATOM     11  C   UNL     1       6.272 -12.008   6.505  0.00  0.00    -0.028 C 
ATOM     12  C   UNL     1       5.228 -11.387   7.036  0.00  0.00    +0.004 C 
BRANCH  11  13
ATOM     13  C   UNL     1       6.063 -13.158   5.554  0.00  0.00    +0.008 C 
BRANCH  13  14
ATOM     14  C   UNL     1       6.797 -12.876   4.242  0.00  0.00    -0.075 C 
BRANCH  14  18
ATOM     15  N   UNL     1       5.772 -15.070   0.799  0.00  0.00    -0.306 NA
ATOM     16  C   UNL     1       7.196 -14.959   1.145  0.00  0.00    +0.066 C 
ATOM     17  C   UNL     1       7.394 -13.782   2.103  0.00  0.00    -0.063 C 
ATOM     18  N   UNL     1       6.593 -13.997   3.315  0.00  0.00    +0.382 N 
ATOM     19  C   UNL     1       5.171 -14.082   2.956  0.00  0.00    -0.063 C 
ATOM     20  C   UNL     1       4.954 -15.261   2.005  0.00  0.00    +0.066 C 
ATOM     21  H   UNL     1       6.879 -14.857   3.759  0.00  0.00    -0.082 HD
BRANCH  15  23
ATOM     22  C   UNL     1       6.214 -15.801  -1.496  0.00  0.00    +0.020 C 
ATOM     23  C   UNL     1       5.548 -16.156  -0.166  0.00  0.00    +0.081 C 
ENDBRANCH  15  23
ENDBRANCH  14  18
ENDBRANCH  13  14
ENDBRANCH  11  13
ENDBRANCH   1  12
BRANCH  10  24
ATOM     24  N   UNL     1       7.321  -6.633  10.938  0.00  0.00    -0.313 N 
ATOM     25  H   UNL     1       7.732  -5.909  10.441  0.00  0.00    +0.152 HD
BRANCH  24  26
ATOM     26  C   UNL     1       8.013  -7.242  11.991  0.00  0.00    +0.033 A 
ATOM     27  C   UNL     1       7.485  -8.367  12.611  0.00  0.00    +0.024 A 
ATOM     28  C   UNL     1       8.168  -8.967  13.650  0.00  0.00    +0.018 A 
ATOM     29  C   UNL     1       9.384  -8.447  14.075  0.00  0.00    +0.034 A 
ATOM     30  C   UNL     1       9.913  -7.321  13.454  0.00  0.00    +0.057 A 
ATOM     31  C   UNL     1       9.232  -6.724  12.411  0.00  0.00    +0.044 A 
ATOM     32 CL   UNL     1      11.432  -6.670  13.985  0.00  0.00    -0.082 Cl
BRANCH  29  33
ATOM     33  S   UNL     1      10.255  -9.213  15.402  0.00  0.00    -0.050 S 
BRANCH  33  34
ATOM     34  C   UNL     1      11.577 -10.065  14.608  0.00  0.00    +0.173 A 
ATOM     35  N   UNL     1      11.759 -10.162  13.311  0.00  0.00    -0.230 NA
ATOM     36  C   UNL     1      12.867 -10.883  13.072  0.00  0.00    +0.131 A 
ATOM     37  C   UNL     1      13.396 -11.250  14.251  0.00  0.00    +0.107 A 
ATOM     38  N   UNL     1      12.586 -10.730  15.234  0.00  0.00    -0.328 N 
ATOM     39  C   UNL     1      12.772 -10.869  16.681  0.00  0.00    +0.151 C 
ENDBRANCH  33  34
ENDBRANCH  29  33
ENDBRANCH  24  26
ENDBRANCH  10  24
BRANCH   9  40
ATOM     40  C   UNL     1       5.048  -5.344  12.052  0.00  0.00    +0.103 C 
ATOM     41  N   UNL     1       5.156  -4.471  12.772  0.00  0.00    -0.191 NA
ENDBRANCH   9  40
TORSDOF 10
