REMARK  Name = CHEMBL606403
REMARK  7 active torsions:
REMARK  status: ('A' for Active; 'I' for Inactive)
REMARK    1  A    between atoms: C_1  and  C_2
REMARK    2  A    between atoms: C_2  and  C_3
REMARK    3  A    between atoms: C_2  and  C_4
REMARK    4  A    between atoms: C_6  and  C_9
REMARK    5  A    between atoms: N_11  and  C_12
REMARK    6  A    between atoms: C_18  and  N_22
REMARK    7  A    between atoms: N_22  and  C_23
REMARK                            x       y       z     vdW  Elec       q    Type
REMARK                         _______ _______ _______ _____ _____    ______ ____
ROOT
ATOM      1  C   UNL     1      -5.978  -3.599  -2.416  0.00  0.00    +0.035 A 
ATOM      2  C   UNL     1      -5.471  -3.983  -3.662  0.00  0.00    +0.025 A 
ATOM      3  C   UNL     1      -6.276  -4.556  -4.598  0.00  0.00    +0.030 A 
ATOM      4  C   UNL     1      -7.633  -4.768  -4.317  0.00  0.00    +0.076 A 
ATOM      5  C   UNL     1      -8.153  -4.381  -3.058  0.00  0.00    +0.042 A 
ATOM      6  C   UNL     1      -7.308  -3.799  -2.107  0.00  0.00    +0.036 A 
ATOM      7  C   UNL     1      -9.527  -4.608  -2.803  0.00  0.00    +0.134 A 
ATOM      8  N   UNL     1     -10.257  -5.171  -3.756  0.00  0.00    -0.220 NA
ATOM      9  C   UNL     1      -9.727  -5.516  -4.919  0.00  0.00    +0.223 A 
ATOM     10  N   UNL     1      -8.461  -5.330  -5.210  0.00  0.00    -0.235 NA
ENDROOT
BRANCH   1  13
ATOM     11  C   UNL     1      -4.150  -2.176  -1.875  0.00  0.00    +0.275 C 
ATOM     12  O   UNL     1      -3.951  -2.000  -3.062  0.00  0.00    -0.268 OA
ATOM     13  N   UNL     1      -5.128  -3.012  -1.473  0.00  0.00    -0.280 N 
ATOM     14  H   UNL     1      -5.243  -3.206  -0.530  0.00  0.00    +0.155 HD
BRANCH  11  17
ATOM     15  C   UNL     1      -1.751  -0.143   0.001  0.00  0.00    +0.142 A 
ATOM     16  N   UNL     1      -2.323  -0.624  -1.074  0.00  0.00    -0.218 NA
ATOM     17  C   UNL     1      -3.321  -1.475  -0.875  0.00  0.00    +0.183 A 
ATOM     18  S   UNL     1      -3.403  -1.554   0.800  0.00  0.00    +0.038 S 
ATOM     19  N   UNL     1      -2.199  -0.537   1.169  0.00  0.00    -0.193 NA
BRANCH  15  21
ATOM     20  C   UNL     1      -0.988   2.141   0.593  0.00  0.00    +0.015 C 
ATOM     21  C   UNL     1      -0.607   0.833  -0.102  0.00  0.00    +0.051 C 
ATOM     22  C   UNL     1       0.631   0.239   0.573  0.00  0.00    +0.015 C 
ENDBRANCH  15  21
ENDBRANCH  11  17
ENDBRANCH   1  13
BRANCH   7  23
ATOM     23  N   UNL     1     -10.092  -4.254  -1.594  0.00  0.00    -0.299 N 
ATOM     24  H   UNL     1      -9.566  -3.774  -0.935  0.00  0.00    +0.154 HD
BRANCH  23  25
ATOM     25  C   UNL     1     -11.422  -4.585  -1.321  0.00  0.00    +0.033 A 
ATOM     26  C   UNL     1     -12.201  -3.746  -0.534  0.00  0.00    +0.023 A 
ATOM     27  C   UNL     1     -13.515  -4.076  -0.265  0.00  0.00    +0.003 A 
ATOM     28  C   UNL     1     -14.056  -5.241  -0.777  0.00  0.00    +0.015 A 
ATOM     29  C   UNL     1     -13.283  -6.079  -1.561  0.00  0.00    +0.020 A 
ATOM     30  C   UNL     1     -11.970  -5.752  -1.839  0.00  0.00    +0.038 A 
ATOM     31 BR   UNL     1     -14.027  -7.671  -2.260  0.00  0.00    -0.050 Br
ENDBRANCH  23  25
ENDBRANCH   7  23
TORSDOF 5
