REMARK  Name = CHEMBL293584
REMARK  4 active torsions:
REMARK  status: ('A' for Active; 'I' for Inactive)
REMARK    1  A    between atoms: C_5  and  O_8
REMARK    2  A    between atoms: C_6  and  O_7
REMARK    3  A    between atoms: C_10  and  C_11
REMARK    4  A    between atoms: C_10  and  C_13
REMARK                            x       y       z     vdW  Elec       q    Type
REMARK                         _______ _______ _______ _____ _____    ______ ____
ROOT
ATOM      1  C   UNL     1      -0.017   1.384   0.010  0.00  0.00    +0.053 A 
ATOM      2  C   UNL     1       1.164   2.097   0.002  0.00  0.00    -0.036 A 
ATOM      3  C   UNL     1       2.389   1.424  -0.013  0.00  0.00    -0.013 A 
ATOM      4  C   UNL     1       2.404   0.016  -0.021  0.00  0.00    +0.057 A 
ATOM      5  C   UNL     1       1.219  -0.687  -0.015  0.00  0.00    +0.159 A 
ATOM      6  C   UNL     1       0.002  -0.004   0.002  0.00  0.00    +0.159 A 
ATOM      7  C   UNL     1       3.504   2.376  -0.019  0.00  0.00    -0.012 C 
ATOM      8  C   UNL     1       4.842   2.052  -0.034  0.00  0.00    +0.132 C 
ATOM      9  C   UNL     1       2.932   3.772  -0.006  0.00  0.00    +0.042 C 
ATOM     10  C   UNL     1       1.408   3.588   0.008  0.00  0.00    +0.040 C 
ENDROOT
BRANCH   6  11
ATOM     11  O   UNL     1      -1.165  -0.698   0.009  0.00  0.00    -0.503 OA
ATOM     12  H   UNL     1      -1.511  -0.895  -0.872  0.00  0.00    +0.292 HD
ENDBRANCH   6  11
BRANCH   5  13
ATOM     13  O   UNL     1       1.236  -2.046  -0.023  0.00  0.00    -0.503 OA
ATOM     14  H   UNL     1       1.248  -2.445   0.858  0.00  0.00    +0.292 HD
ENDBRANCH   5  13
BRANCH   8  15
ATOM     15  C   UNL     1       5.830   3.088  -0.037  0.00  0.00    +0.110 C 
ATOM     16  N   UNL     1       6.614   3.911  -0.040  0.00  0.00    -0.190 NA
ENDBRANCH   8  15
BRANCH   8  17
ATOM     17  C   UNL     1       5.246   0.678  -0.045  0.00  0.00    +0.110 C 
ATOM     18  N   UNL     1       5.566  -0.412  -0.054  0.00  0.00    -0.190 NA
ENDBRANCH   8  17
TORSDOF 4
