REMARK  Name = CHEMBL510597
REMARK  8 active torsions:
REMARK  status: ('A' for Active; 'I' for Inactive)
REMARK    1  A    between atoms: C_2  and  C_3
REMARK    2  A    between atoms: C_3  and  C_5
REMARK    3  A    between atoms: C_5  and  C_6
REMARK    4  A    between atoms: C_5  and  C_15
REMARK    5  A    between atoms: C_6  and  C_7
REMARK    6  A    between atoms: C_7  and  C_8
REMARK    7  A    between atoms: C_8  and  N_9
REMARK    8  A    between atoms: N_25  and  C_26
REMARK                            x       y       z     vdW  Elec       q    Type
REMARK                         _______ _______ _______ _____ _____    ______ ____
ROOT
ATOM      1  C   UNL     1       2.552  -2.708  -0.789  0.00  0.00    +0.053 A 
ATOM      2  C   UNL     1       3.696  -2.909  -0.070  0.00  0.00    +0.037 A 
ATOM      3  C   UNL     1       4.788  -3.511  -0.705  0.00  0.00    +0.044 A 
ATOM      4  C   UNL     1       4.658  -3.887  -2.065  0.00  0.00    +0.094 A 
ATOM      5  C   UNL     1       3.441  -3.638  -2.715  0.00  0.00    +0.139 A 
ATOM      6  N   UNL     1       2.454  -3.073  -2.058  0.00  0.00    -0.257 NA
ATOM      7  N   UNL     1       5.701  -4.466  -2.675  0.00  0.00    -0.234 NA
ATOM      8  C   UNL     1       6.818  -4.677  -2.020  0.00  0.00    +0.224 A 
ATOM      9  N   UNL     1       6.986  -4.344  -0.750  0.00  0.00    -0.220 NA
ATOM     10  C   UNL     1       6.018  -3.764  -0.052  0.00  0.00    +0.134 A 
ATOM     11  N   UNL     1       6.204  -3.421   1.271  0.00  0.00    -0.299 N 
ATOM     12  H   UNL     1       5.462  -3.074   1.791  0.00  0.00    +0.154 HD
ENDROOT
BRANCH  11  13
ATOM     13  C   UNL     1       7.462  -3.572   1.862  0.00  0.00    +0.033 A 
ATOM     14  C   UNL     1       8.613  -3.392   1.105  0.00  0.00    +0.023 A 
ATOM     15  C   UNL     1       9.854  -3.542   1.691  0.00  0.00    +0.003 A 
ATOM     16  C   UNL     1       9.953  -3.870   3.031  0.00  0.00    +0.015 A 
ATOM     17  C   UNL     1       8.809  -4.050   3.788  0.00  0.00    +0.020 A 
ATOM     18  C   UNL     1       7.564  -3.896   3.208  0.00  0.00    +0.038 A 
ATOM     19 BR   UNL     1       8.949  -4.499   5.620  0.00  0.00    -0.050 Br
ENDBRANCH  11  13
BRANCH   1  20
ATOM     20  C   UNL     1       1.368  -2.061  -0.118  0.00  0.00    +0.108 C 
BRANCH  20  21
ATOM     21  C   UNL     1       1.523  -0.562  -0.164  0.00  0.00    +0.164 C 
ATOM     22  O   UNL     1       2.630  -0.066  -0.163  0.00  0.00    -0.292 OA
BRANCH  21  24
ATOM     23  C   UNL     1       0.474   1.621  -0.250  0.00  0.00    +0.012 C 
ATOM     24  C   UNL     1       0.338   0.294  -0.210  0.00  0.00    +0.039 C 
ENDBRANCH  21  24
ENDBRANCH  20  21
BRANCH  20  25
ATOM     25  C   UNL     1       1.293  -2.521   1.339  0.00  0.00    +0.019 C 
BRANCH  25  26
ATOM     26  C   UNL     1       0.023  -1.964   1.985  0.00  0.00    +0.016 C 
BRANCH  26  27
ATOM     27  C   UNL     1      -0.052  -2.424   3.442  0.00  0.00    +0.084 C 
BRANCH  27  28
ATOM     28  N   UNL     1      -1.272  -1.889   4.063  0.00  0.00    -0.298 NA
ATOM     29  C   UNL     1      -1.209  -0.424   4.169  0.00  0.00    +0.112 C 
ATOM     30  C   UNL     1      -2.521   0.096   4.764  0.00  0.00    +0.175 C 
ATOM     31  O   UNL     1      -2.744  -0.530   6.030  0.00  0.00    -0.377 OA
ATOM     32  C   UNL     1      -2.811  -1.957   5.964  0.00  0.00    +0.175 C 
ATOM     33  C   UNL     1      -1.503  -2.497   5.381  0.00  0.00    +0.112 C 
ENDBRANCH  27  28
ENDBRANCH  26  27
ENDBRANCH  25  26
ENDBRANCH  20  25
ENDBRANCH   1  20
TORSDOF 8
