REMARK  Name = CHEMBL1171792
REMARK  4 active torsions:
REMARK  status: ('A' for Active; 'I' for Inactive)
REMARK    1  A    between atoms: C_1  and  C_2
REMARK    2  A    between atoms: C_8  and  C_13
REMARK    3  A    between atoms: C_10  and  C_11
REMARK    4  A    between atoms: C_13  and  C_15
REMARK                            x       y       z     vdW  Elec       q    Type
REMARK                         _______ _______ _______ _____ _____    ______ ____
ROOT
ATOM      1  C   UNL     1      -0.023   1.503   0.011  0.00  0.00    +0.064 C 
ATOM      2  C   UNL     1      -0.002  -0.004   0.002  0.00  0.00    +0.021 A 
ATOM      3  C   UNL     1      -0.103  -0.667  -1.173  0.00  0.00    +0.022 A 
ATOM      4  C   UNL     1      -0.085  -2.067  -1.195  0.00  0.00    +0.019 A 
ATOM      5  C   UNL     1       0.036  -2.756  -0.021  0.00  0.00    +0.043 A 
ATOM      6  C   UNL     1       0.139  -2.046   1.184  0.00  0.00    +0.078 A 
ATOM      7  N   UNL     1       0.124  -0.682   1.177  0.00  0.00    -0.308 N 
ATOM      8  C   UNL     1       0.245  -0.233   2.482  0.00  0.00    +0.091 A 
ATOM      9  C   UNL     1       0.345  -1.332   3.321  0.00  0.00    +0.050 A 
ATOM     10  C   UNL     1       0.272  -2.478   2.524  0.00  0.00    +0.079 A 
ATOM     11 BR   UNL     1       0.063  -4.646  -0.020  0.00  0.00    -0.048 Br
ENDROOT
BRANCH  10  12
ATOM     12  C   UNL     1       0.335  -3.835   2.978  0.00  0.00    +0.101 C 
ATOM     13  N   UNL     1       0.385  -4.911   3.339  0.00  0.00    -0.191 NA
ENDBRANCH  10  12
BRANCH   8  14
ATOM     14  C   UNL     1       0.265   1.114   2.887  0.00  0.00    +0.183 C 
ATOM     15  O   UNL     1      -0.761   1.654   3.251  0.00  0.00    -0.290 OA
BRANCH  14  16
ATOM     16  C   UNL     1       1.559   1.887   2.871  0.00  0.00    +0.062 C 
ATOM     17  C   UNL     1       1.502   3.350   2.426  0.00  0.00    +0.012 C 
ATOM     18  C   UNL     1       1.726   3.006   3.900  0.00  0.00    +0.012 C 
ENDBRANCH  14  16
ENDBRANCH   8  14
TORSDOF 3
