REMARK  Name = CHEMBL283088
REMARK  8 active torsions:
REMARK  status: ('A' for Active; 'I' for Inactive)
REMARK    1  A    between atoms: C_1  and  N_2
REMARK    2  A    between atoms: N_5  and  C_8
REMARK    3  A    between atoms: C_8  and  C_9
REMARK    4  A    between atoms: C_9  and  O_10
REMARK    5  A    between atoms: O_10  and  C_11
REMARK    6  A    between atoms: C_16  and  O_17
REMARK    7  A    between atoms: O_17  and  C_18
REMARK    8  A    between atoms: N_23  and  C_24
REMARK                            x       y       z     vdW  Elec       q    Type
REMARK                         _______ _______ _______ _____ _____    ______ ____
ROOT
ATOM      1  C   UNL     1      -0.151  -3.468   5.087  0.00  0.00    +0.164 A 
ATOM      2  C   UNL     1       1.049  -4.101   5.326  0.00  0.00    +0.078 A 
ATOM      3  C   UNL     1       1.289  -4.674   6.580  0.00  0.00    +0.080 A 
ATOM      4  C   UNL     1       0.293  -4.595   7.585  0.00  0.00    +0.044 A 
ATOM      5  C   UNL     1      -0.918  -3.946   7.317  0.00  0.00    +0.062 A 
ATOM      6  C   UNL     1      -1.130  -3.389   6.088  0.00  0.00    +0.162 A 
ATOM      7  C   UNL     1       0.565  -5.183   8.843  0.00  0.00    +0.134 A 
ATOM      8  N   UNL     1       1.737  -5.779   9.017  0.00  0.00    -0.220 NA
ATOM      9  C   UNL     1       2.638  -5.829   8.049  0.00  0.00    +0.223 A 
ATOM     10  N   UNL     1       2.442  -5.301   6.864  0.00  0.00    -0.235 NA
ATOM     11  N   UNL     1      -0.366  -5.139   9.862  0.00  0.00    -0.297 N 
ATOM     12  H   UNL     1      -1.253  -4.785   9.693  0.00  0.00    +0.154 HD
ENDROOT
BRANCH  11  13
ATOM     13  C   UNL     1      -0.029  -5.605  11.138  0.00  0.00    +0.068 A 
ATOM     14  C   UNL     1       1.305  -5.743  11.498  0.00  0.00    +0.027 A 
ATOM     15  C   UNL     1       1.635  -6.202  12.758  0.00  0.00    +0.022 A 
ATOM     16  C   UNL     1       0.638  -6.526  13.662  0.00  0.00    +0.044 A 
ATOM     17  C   UNL     1      -0.692  -6.389  13.308  0.00  0.00    +0.060 A 
ATOM     18  C   UNL     1      -1.029  -5.924  12.050  0.00  0.00    +0.146 A 
ATOM     19  F   UNL     1      -2.328  -5.786  11.705  0.00  0.00    -0.203 F 
ATOM     20 CL   UNL     1       1.058  -7.104  15.245  0.00  0.00    -0.083 Cl
ENDBRANCH  11  13
BRANCH   6  21
ATOM     21  O   UNL     1      -2.304  -2.754   5.830  0.00  0.00    -0.491 OA
ATOM     22  C   UNL     1      -3.262  -2.707   6.889  0.00  0.00    +0.277 C 
ENDBRANCH   6  21
BRANCH   1  23
ATOM     23  O   UNL     1      -0.386  -2.910   3.871  0.00  0.00    -0.487 OA
BRANCH  23  24
ATOM     24  C   UNL     1       0.650  -3.024   2.894  0.00  0.00    +0.244 C 
BRANCH  24  25
ATOM     25  C   UNL     1       0.207  -2.342   1.598  0.00  0.00    +0.125 C 
BRANCH  25  30
ATOM     26  C   UNL     1       0.320   3.291   1.540  0.00  0.00    -0.096 C 
ATOM     27  N   UNL     1       0.508   1.861   1.262  0.00  0.00    +0.379 N 
ATOM     28  C   UNL     1      -0.795   1.239   0.996  0.00  0.00    -0.064 C 
ATOM     29  C   UNL     1      -0.598  -0.247   0.687  0.00  0.00    +0.066 C 
ATOM     30  N   UNL     1       0.051  -0.900   1.833  0.00  0.00    -0.303 NA
ATOM     31  C   UNL     1       1.346  -0.271   2.128  0.00  0.00    +0.066 C 
ATOM     32  C   UNL     1       1.133   1.215   2.424  0.00  0.00    -0.064 C 
ATOM     33  H   UNL     1       1.104   1.751   0.456  0.00  0.00    -0.082 HD
ENDBRANCH  25  30
ENDBRANCH  24  25
ENDBRANCH  23  24
ENDBRANCH   1  23
TORSDOF 6
