REMARK  Name = CHEMBL94066
REMARK  6 active torsions:
REMARK  status: ('A' for Active; 'I' for Inactive)
REMARK    1  A    between atoms: C_2  and  C_3
REMARK    2  A    between atoms: C_2  and  C_10
REMARK    3  A    between atoms: C_3  and  N_4
REMARK    4  A    between atoms: N_12  and  C_13
REMARK    5  A    between atoms: C_19  and  N_23
REMARK    6  A    between atoms: N_23  and  C_24
REMARK                            x       y       z     vdW  Elec       q    Type
REMARK                         _______ _______ _______ _____ _____    ______ ____
ROOT
ATOM      1  C   UNL     1       2.537  -2.798  -0.131  0.00  0.00    +0.034 A 
ATOM      2  C   UNL     1       3.752  -2.126  -0.290  0.00  0.00    +0.025 A 
ATOM      3  C   UNL     1       4.902  -2.808  -0.547  0.00  0.00    +0.030 A 
ATOM      4  C   UNL     1       4.874  -4.206  -0.654  0.00  0.00    +0.076 A 
ATOM      5  C   UNL     1       3.646  -4.893  -0.494  0.00  0.00    +0.042 A 
ATOM      6  C   UNL     1       2.477  -4.173  -0.225  0.00  0.00    +0.036 A 
ATOM      7  C   UNL     1       3.649  -6.305  -0.607  0.00  0.00    +0.134 A 
ATOM      8  N   UNL     1       4.802  -6.911  -0.858  0.00  0.00    -0.220 NA
ATOM      9  C   UNL     1       5.925  -6.226  -1.000  0.00  0.00    +0.223 A 
ATOM     10  N   UNL     1       5.982  -4.919  -0.906  0.00  0.00    -0.235 NA
ENDROOT
BRANCH   1  13
ATOM     11  C   UNL     1       1.186  -0.865  -0.441  0.00  0.00    +0.245 C 
ATOM     12  O   UNL     1       2.067  -0.371  -1.118  0.00  0.00    -0.270 OA
ATOM     13  N   UNL     1       1.371  -2.070   0.133  0.00  0.00    -0.282 N 
ATOM     14  H   UNL     1       0.697  -2.433   0.729  0.00  0.00    +0.155 HD
BRANCH  11  16
ATOM     15  C   UNL     1      -0.266   1.044  -0.813  0.00  0.00    +0.019 C 
ATOM     16  C   UNL     1      -0.083  -0.146  -0.247  0.00  0.00    +0.022 C 
BRANCH  16  17
ATOM     17  C   UNL     1      -1.175  -0.757   0.593  0.00  0.00    +0.124 C 
BRANCH  17  18
ATOM     18  N   UNL     1      -1.979  -1.666  -0.236  0.00  0.00    -0.294 NA
ATOM     19  C   UNL     1      -2.715  -0.924  -1.269  0.00  0.00    +0.113 C 
ATOM     20  C   UNL     1      -3.490  -1.913  -2.144  0.00  0.00    +0.175 C 
ATOM     21  O   UNL     1      -4.357  -2.695  -1.318  0.00  0.00    -0.377 OA
ATOM     22  C   UNL     1      -3.673  -3.432  -0.301  0.00  0.00    +0.175 C 
ATOM     23  C   UNL     1      -2.899  -2.458   0.593  0.00  0.00    +0.113 C 
ENDBRANCH  17  18
ENDBRANCH  16  17
ENDBRANCH  11  16
ENDBRANCH   1  13
BRANCH   7  24
ATOM     24  N   UNL     1       2.484  -7.031  -0.461  0.00  0.00    -0.299 N 
ATOM     25  H   UNL     1       1.637  -6.571  -0.354  0.00  0.00    +0.154 HD
BRANCH  24  26
ATOM     26  C   UNL     1       2.526  -8.428  -0.467  0.00  0.00    +0.033 A 
ATOM     27  C   UNL     1       1.463  -9.154  -0.990  0.00  0.00    +0.023 A 
ATOM     28  C   UNL     1       1.506 -10.534  -0.994  0.00  0.00    +0.003 A 
ATOM     29  C   UNL     1       2.607 -11.194  -0.479  0.00  0.00    +0.015 A 
ATOM     30  C   UNL     1       3.667 -10.475   0.043  0.00  0.00    +0.020 A 
ATOM     31  C   UNL     1       3.632  -9.093   0.045  0.00  0.00    +0.038 A 
ATOM     32 BR   UNL     1       5.170 -11.383   0.747  0.00  0.00    -0.050 Br
ENDBRANCH  24  26
ENDBRANCH   7  24
TORSDOF 6
