REMARK  Name = CHEMBL246493
REMARK  8 active torsions:
REMARK  status: ('A' for Active; 'I' for Inactive)
REMARK    1  A    between atoms: C_3  and  C_8
REMARK    2  A    between atoms: C_8  and  O_9
REMARK    3  A    between atoms: O_9  and  C_10
REMARK    4  A    between atoms: C_13  and  N_17
REMARK    5  A    between atoms: C_20  and  C_27
REMARK    6  A    between atoms: C_27  and  O_28
REMARK    7  A    between atoms: O_28  and  C_29
REMARK    8  A    between atoms: C_29  and  C_30
REMARK                            x       y       z     vdW  Elec       q    Type
REMARK                         _______ _______ _______ _____ _____    ______ ____
ROOT
ATOM      1  N   UNL     1       8.805   5.233   2.017  0.00  0.00    -0.298 N 
ATOM      2  C   UNL     1       9.220   5.582   3.287  0.00  0.00    +0.151 A 
ATOM      3  C   UNL     1      10.363   6.395   3.467  0.00  0.00    +0.111 A 
ATOM      4  C   UNL     1      11.261   6.988   2.602  0.00  0.00    +0.008 A 
ATOM      5  C   UNL     1      12.187   7.676   3.389  0.00  0.00    +0.028 A 
ATOM      6  C   UNL     1      11.845   7.493   4.692  0.00  0.00    +0.113 A 
ATOM      7  N   UNL     1      10.745   6.721   4.755  0.00  0.00    -0.235 N 
ATOM      8  N   UNL     1       9.978   6.229   5.820  0.00  0.00    -0.155 NA
ATOM      9  C   UNL     1       8.934   5.483   5.584  0.00  0.00    +0.245 A 
ATOM     10  N   UNL     1       8.551   5.165   4.349  0.00  0.00    -0.217 NA
ATOM     11  H   UNL     1       9.344   5.473   1.247  0.00  0.00    +0.154 HD
ENDROOT
BRANCH   1  15
ATOM     12  C   UNL     1       5.235   3.144   1.494  0.00  0.00    +0.139 A 
ATOM     13  C   UNL     1       5.356   4.061   2.527  0.00  0.00    +0.049 A 
ATOM     14  C   UNL     1       6.539   4.753   2.701  0.00  0.00    +0.027 A 
ATOM     15  C   UNL     1       7.607   4.531   1.841  0.00  0.00    +0.034 A 
ATOM     16  C   UNL     1       7.485   3.612   0.807  0.00  0.00    +0.047 A 
ATOM     17  C   UNL     1       6.303   2.916   0.637  0.00  0.00    +0.084 A 
ATOM     18 CL   UNL     1       6.152   1.762  -0.651  0.00  0.00    -0.080 Cl
BRANCH  12  19
ATOM     19  O   UNL     1       4.070   2.462   1.324  0.00  0.00    -0.486 OA
BRANCH  19  20
ATOM     20  C   UNL     1       3.012   2.746   2.242  0.00  0.00    +0.264 C 
BRANCH  20  23
ATOM     21  C   UNL     1       0.557  -0.122   2.157  0.00  0.00    +0.003 A 
ATOM     22  C   UNL     1       1.659   0.653   2.470  0.00  0.00    +0.007 A 
ATOM     23  C   UNL     1       1.811   1.903   1.900  0.00  0.00    -0.008 A 
ATOM     24  C   UNL     1       0.861   2.380   1.016  0.00  0.00    +0.045 A 
ATOM     25  C   UNL     1      -0.243   1.605   0.703  0.00  0.00    +0.124 A 
ATOM     26  C   UNL     1      -0.394   0.353   1.274  0.00  0.00    +0.038 A 
ATOM     27  F   UNL     1      -1.172   2.071  -0.160  0.00  0.00    -0.205 F 
ENDBRANCH  20  23
ENDBRANCH  19  20
ENDBRANCH  12  19
ENDBRANCH   1  15
BRANCH   4  28
ATOM     28  C   UNL     1      11.245   6.909   1.097  0.00  0.00    +0.197 C 
BRANCH  28  29
ATOM     29  O   UNL     1      12.342   7.658   0.569  0.00  0.00    -0.373 OA
BRANCH  29  30
ATOM     30  C   UNL     1      12.419   7.647  -0.858  0.00  0.00    +0.189 C 
BRANCH  30  31
ATOM     31  C   UNL     1      13.623   8.476  -1.310  0.00  0.00    +0.127 C 
ATOM     32  C   UNL     1      13.636   8.567  -2.838  0.00  0.00    -0.048 C 
ATOM     33  N   UNL     1      14.826   9.314  -3.271  0.00  0.00    +0.382 N 
ATOM     34  C   UNL     1      16.035   8.617  -2.810  0.00  0.00    -0.054 C 
ATOM     35  C   UNL     1      16.017   8.526  -1.282  0.00  0.00    +0.141 C 
ATOM     36  O   UNL     1      14.829   7.848  -0.864  0.00  0.00    -0.378 OA
ATOM     37  H   UNL     1      14.836   9.375  -4.278  0.00  0.00    -0.086 HD
ATOM     38  H   UNL     1      14.802  10.242  -2.877  0.00  0.00    -0.086 HD
ENDBRANCH  30  31
ENDBRANCH  29  30
ENDBRANCH  28  29
ENDBRANCH   4  28
TORSDOF 8
