REMARK  Name = CHEMBL473437
REMARK  10 active torsions:
REMARK  status: ('A' for Active; 'I' for Inactive)
REMARK    1  A    between atoms: C_1  and  N_2
REMARK    2  A    between atoms: N_2  and  C_3
REMARK    3  A    between atoms: N_2  and  C_4
REMARK    4  A    between atoms: C_4  and  C_5
REMARK    5  A    between atoms: C_8  and  C_11
REMARK    6  A    between atoms: C_16  and  N_20
REMARK    7  A    between atoms: N_20  and  C_21
REMARK    8  A    between atoms: C_24  and  O_28
REMARK    9  A    between atoms: O_28  and  C_29
REMARK   10  A    between atoms: C_29  and  C_30
REMARK                            x       y       z     vdW  Elec       q    Type
REMARK                         _______ _______ _______ _____ _____    ______ ____
ROOT
ATOM      1  C   UNL     1      -3.112  -0.241   4.638  0.00  0.00    +0.038 A 
ATOM      2  C   UNL     1      -3.452   0.277   5.853  0.00  0.00    +0.046 A 
ATOM      3  C   UNL     1      -4.346  -0.414   6.680  0.00  0.00    +0.084 A 
ATOM      4  C   UNL     1      -4.835  -1.635   6.162  0.00  0.00    +0.078 A 
ATOM      5  S   UNL     1      -4.050  -1.759   4.578  0.00  0.00    -0.082 S 
ATOM      6  C   UNL     1      -5.725  -2.412   6.883  0.00  0.00    +0.141 A 
ATOM      7  N   UNL     1      -6.113  -1.979   8.085  0.00  0.00    -0.219 NA
ATOM      8  C   UNL     1      -5.649  -0.836   8.558  0.00  0.00    +0.224 A 
ATOM      9  N   UNL     1      -4.808  -0.073   7.910  0.00  0.00    -0.235 NA
ENDROOT
BRANCH   1  13
ATOM     10  C   UNL     1      -1.022   0.564   1.759  0.00  0.00    -0.000 A 
ATOM     11  C   UNL     1      -0.765   1.635   2.542  0.00  0.00    +0.021 A 
ATOM     12  C   UNL     1      -1.506   1.487   3.724  0.00  0.00    +0.028 A 
ATOM     13  C   UNL     1      -2.201   0.316   3.625  0.00  0.00    +0.053 A 
ATOM     14  N   UNL     1      -1.903  -0.247   2.408  0.00  0.00    -0.359 N 
ATOM     15  H   UNL     1      -2.259  -1.083   2.069  0.00  0.00    +0.166 HD
BRANCH  10  16
ATOM     16  C   UNL     1      -0.436   0.312   0.393  0.00  0.00    -0.025 C 
BRANCH  16  18
ATOM     17  C   UNL     1      -1.476   2.270  -0.525  0.00  0.00    -0.096 C 
ATOM     18  N   UNL     1      -1.360   0.809  -0.635  0.00  0.00    +0.380 N 
ATOM     19  C   UNL     1      -0.847   0.458  -1.966  0.00  0.00    -0.096 C 
ATOM     20  H   UNL     1      -2.268   0.389  -0.503  0.00  0.00    -0.082 HD
ENDBRANCH  16  18
ENDBRANCH  10  16
ENDBRANCH   1  13
BRANCH   6  21
ATOM     21  N   UNL     1      -6.202  -3.608   6.370  0.00  0.00    -0.298 N 
ATOM     22  H   UNL     1      -5.849  -3.952   5.535  0.00  0.00    +0.154 HD
BRANCH  21  23
ATOM     23  C   UNL     1      -7.192  -4.320   7.058  0.00  0.00    +0.034 A 
ATOM     24  C   UNL     1      -7.184  -5.708   7.047  0.00  0.00    +0.027 A 
ATOM     25  C   UNL     1      -8.160  -6.410   7.726  0.00  0.00    +0.049 A 
ATOM     26  C   UNL     1      -9.149  -5.729   8.419  0.00  0.00    +0.139 A 
ATOM     27  C   UNL     1      -9.158  -4.341   8.432  0.00  0.00    +0.084 A 
ATOM     28  C   UNL     1      -8.179  -3.637   7.757  0.00  0.00    +0.047 A 
ATOM     29 CL   UNL     1     -10.397  -3.488   9.300  0.00  0.00    -0.080 Cl
BRANCH  26  30
ATOM     30  O   UNL     1     -10.111  -6.420   9.087  0.00  0.00    -0.486 OA
BRANCH  30  31
ATOM     31  C   UNL     1     -10.041  -7.847   9.032  0.00  0.00    +0.264 C 
BRANCH  31  32
ATOM     32  C   UNL     1     -11.180  -8.437   9.823  0.00  0.00    -0.008 A 
ATOM     33  C   UNL     1     -11.018  -8.707  11.170  0.00  0.00    +0.007 A 
ATOM     34  C   UNL     1     -12.062  -9.248  11.897  0.00  0.00    +0.003 A 
ATOM     35  C   UNL     1     -13.268  -9.520  11.279  0.00  0.00    +0.038 A 
ATOM     36  C   UNL     1     -13.430  -9.250   9.931  0.00  0.00    +0.124 A 
ATOM     37  C   UNL     1     -12.386  -8.703   9.205  0.00  0.00    +0.045 A 
ATOM     38  F   UNL     1     -14.608  -9.517   9.326  0.00  0.00    -0.205 F 
ENDBRANCH  31  32
ENDBRANCH  30  31
ENDBRANCH  26  30
ENDBRANCH  21  23
ENDBRANCH   6  21
TORSDOF 8
