REMARK  Name = CHEMBL204420
REMARK  7 active torsions:
REMARK  status: ('A' for Active; 'I' for Inactive)
REMARK    1  A    between atoms: C_1  and  N_2
REMARK    2  A    between atoms: N_5  and  C_11
REMARK    3  A    between atoms: C_6  and  C_8
REMARK    4  A    between atoms: C_11  and  C_12
REMARK    5  A    between atoms: C_17  and  O_18
REMARK    6  A    between atoms: O_18  and  C_19
REMARK    7  A    between atoms: N_24  and  C_25
REMARK                            x       y       z     vdW  Elec       q    Type
REMARK                         _______ _______ _______ _____ _____    ______ ____
ROOT
ATOM      1  C   UNL     1      -0.513  -4.477   0.474  0.00  0.00    +0.009 A 
ATOM      2  C   UNL     1      -0.893  -5.079   1.636  0.00  0.00    +0.022 A 
ATOM      3  C   UNL     1      -2.058  -5.854   1.667  0.00  0.00    +0.041 A 
ATOM      4  C   UNL     1      -2.834  -6.010   0.491  0.00  0.00    +0.079 A 
ATOM      5  C   UNL     1      -2.423  -5.383  -0.690  0.00  0.00    +0.074 A 
ATOM      6  C   UNL     1      -1.274  -4.620  -0.689  0.00  0.00    +0.127 A 
ATOM      7  N   UNL     1      -3.947  -6.758   0.548  0.00  0.00    -0.235 NA
ATOM      8  C   UNL     1      -4.305  -7.333   1.671  0.00  0.00    +0.223 A 
ATOM      9  N   UNL     1      -3.612  -7.216   2.792  0.00  0.00    -0.220 NA
ATOM     10  C   UNL     1      -2.497  -6.500   2.847  0.00  0.00    +0.134 A 
ATOM     11  N   UNL     1      -1.785  -6.387   4.023  0.00  0.00    -0.297 N 
ATOM     12  H   UNL     1      -1.019  -5.793   4.072  0.00  0.00    +0.154 HD
ENDROOT
BRANCH  11  13
ATOM     13  C   UNL     1      -2.167  -7.128   5.147  0.00  0.00    +0.070 A 
ATOM     14  C   UNL     1      -2.969  -8.252   4.998  0.00  0.00    +0.026 A 
ATOM     15  C   UNL     1      -3.345  -8.983   6.109  0.00  0.00    +0.003 A 
ATOM     16  C   UNL     1      -2.923  -8.598   7.368  0.00  0.00    +0.023 A 
ATOM     17  C   UNL     1      -2.124  -7.479   7.522  0.00  0.00    +0.078 A 
ATOM     18  C   UNL     1      -1.739  -6.745   6.413  0.00  0.00    +0.163 A 
ATOM     19  F   UNL     1      -0.954  -5.656   6.561  0.00  0.00    -0.202 F 
ATOM     20 CL   UNL     1      -1.597  -7.000   9.105  0.00  0.00    -0.081 Cl
ENDBRANCH  11  13
BRANCH   6  21
ATOM     21  O   UNL     1      -0.876  -4.005  -1.832  0.00  0.00    -0.495 OA
ATOM     22  C   UNL     1      -1.696  -4.189  -2.988  0.00  0.00    +0.277 C 
ENDBRANCH   6  21
BRANCH   1  23
ATOM     23  C   UNL     1       0.742  -3.643   0.444  0.00  0.00    +0.124 C 
BRANCH  23  28
ATOM     24  C   UNL     1       0.157   1.949  -0.094  0.00  0.00    +0.105 C 
ATOM     25  N   UNL     1       0.513   0.527  -0.192  0.00  0.00    -0.302 NA
ATOM     26  C   UNL     1      -0.662  -0.287  -0.533  0.00  0.00    +0.099 C 
ATOM     27  C   UNL     1      -0.236  -1.747  -0.703  0.00  0.00    +0.101 C 
ATOM     28  N   UNL     1       0.387  -2.221   0.541  0.00  0.00    -0.285 NA
ATOM     29  C   UNL     1       1.562  -1.407   0.882  0.00  0.00    +0.157 C 
ATOM     30  C   UNL     1       1.135   0.053   1.052  0.00  0.00    +0.112 C 
BRANCH  29  31
ATOM     31  C   UNL     1       2.164  -1.908   2.169  0.00  0.00    +0.229 C 
ATOM     32  O   UNL     1       1.464  -2.457   2.994  0.00  0.00    -0.274 OA
ATOM     33  N   UNL     1       3.481  -1.746   2.405  0.00  0.00    -0.328 N 
ATOM     34  H   UNL     1       4.042  -1.307   1.745  0.00  0.00    +0.145 HD
ATOM     35  H   UNL     1       3.869  -2.069   3.233  0.00  0.00    +0.145 HD
ENDBRANCH  29  31
ENDBRANCH  23  28
ENDBRANCH   1  23
TORSDOF 5
