REMARK  Name = CHEMBL474343
REMARK  5 active torsions:
REMARK  status: ('A' for Active; 'I' for Inactive)
REMARK    1  A    between atoms: C_2  and  C_3
REMARK    2  A    between atoms: N_5  and  C_6
REMARK    3  A    between atoms: N_15  and  C_16
REMARK    4  A    between atoms: C_19  and  O_22
REMARK    5  A    between atoms: O_22  and  C_23
REMARK                            x       y       z     vdW  Elec       q    Type
REMARK                         _______ _______ _______ _____ _____    ______ ____
ROOT
ATOM      1  C   UNL     1       3.046  -2.140   1.006  0.00  0.00    +0.027 C 
ATOM      2  C   UNL     1       4.368  -1.988   0.791  0.00  0.00    +0.022 C 
ATOM      3  C   UNL     1       4.922  -3.133   0.171  0.00  0.00    +0.026 C 
ATOM      4  C   UNL     1       4.030  -4.121   0.117  0.00  0.00    +0.059 C 
ATOM      5  C   UNL     1       2.679  -3.484   0.446  0.00  0.00    +0.145 C 
ATOM      6  C   UNL     1       2.035  -4.407   1.446  0.00  0.00    +0.116 C 
ATOM      7  N   UNL     1       2.344  -5.685   1.375  0.00  0.00    -0.224 NA
ATOM      8  C   UNL     1       3.222  -6.191   0.503  0.00  0.00    +0.223 C 
ATOM      9  N   UNL     1       4.094  -5.438  -0.147  0.00  0.00    -0.239 NA
ATOM     10  N   UNL     1       1.169  -3.939   2.387  0.00  0.00    -0.302 N 
ATOM     11  H   UNL     1       1.051  -2.984   2.505  0.00  0.00    +0.153 HD
ENDROOT
BRANCH  10  12
ATOM     12  C   UNL     1       0.449  -4.837   3.184  0.00  0.00    +0.032 A 
ATOM     13  C   UNL     1      -0.805  -4.485   3.668  0.00  0.00    +0.027 A 
ATOM     14  C   UNL     1      -1.514  -5.371   4.453  0.00  0.00    +0.048 A 
ATOM     15  C   UNL     1      -0.975  -6.613   4.760  0.00  0.00    +0.129 A 
ATOM     16  C   UNL     1       0.277  -6.964   4.277  0.00  0.00    +0.048 A 
ATOM     17  C   UNL     1       0.985  -6.082   3.486  0.00  0.00    +0.027 A 
BRANCH  15  18
ATOM     18  O   UNL     1      -1.675  -7.484   5.534  0.00  0.00    -0.456 OA
BRANCH  18  19
ATOM     19  C   UNL     1      -2.965  -7.180   5.832  0.00  0.00    +0.128 A 
ATOM     20  C   UNL     1      -3.962  -7.377   4.888  0.00  0.00    +0.046 A 
ATOM     21  C   UNL     1      -5.273  -7.067   5.194  0.00  0.00    +0.004 A 
ATOM     22  C   UNL     1      -5.592  -6.560   6.440  0.00  0.00    +0.000 A 
ATOM     23  C   UNL     1      -4.600  -6.362   7.383  0.00  0.00    +0.004 A 
ATOM     24  C   UNL     1      -3.288  -6.676   7.084  0.00  0.00    +0.046 A 
ENDBRANCH  18  19
ENDBRANCH  15  18
ENDBRANCH  10  12
BRANCH   1  27
ATOM     25  C   UNL     1       2.675  -0.063   2.080  0.00  0.00    +0.240 C 
ATOM     26  O   UNL     1       3.854   0.205   1.946  0.00  0.00    -0.271 OA
ATOM     27  N   UNL     1       2.196  -1.238   1.625  0.00  0.00    -0.285 N 
ATOM     28  H   UNL     1       1.256  -1.453   1.732  0.00  0.00    +0.155 HD
BRANCH  25  30
ATOM     29  C   UNL     1       2.245   2.053   3.186  0.00  0.00    +0.013 C 
ATOM     30  C   UNL     1       1.772   0.893   2.737  0.00  0.00    +0.060 C 
ENDBRANCH  25  30
ENDBRANCH   1  27
TORSDOF 5
