REMARK  Name = CHEMBL299622
REMARK  3 active torsions:
REMARK  status: ('A' for Active; 'I' for Inactive)
REMARK    1  A    between atoms: C_1  and  N_2
REMARK    2  A    between atoms: C_9  and  N_13
REMARK    3  A    between atoms: N_13  and  C_14
REMARK                            x       y       z     vdW  Elec       q    Type
REMARK                         _______ _______ _______ _____ _____    ______ ____
ROOT
ATOM      1  C   UNL     1       0.967   1.379   0.514  0.00  0.00    +0.128 C 
ATOM      2  N   UNL     1       0.780  -0.069   0.400  0.00  0.00    -0.317 N 
ATOM      3  C   UNL     1       1.190  -0.732  -0.745  0.00  0.00    +0.216 A 
ATOM      4  N   UNL     1       1.756  -0.028  -1.723  0.00  0.00    -0.221 NA
ATOM      5  C   UNL     1       2.166  -0.601  -2.835  0.00  0.00    +0.144 A 
ATOM      6  C   UNL     1       1.994  -1.990  -2.975  0.00  0.00    +0.112 A 
ATOM      7  C   UNL     1       1.388  -2.701  -1.912  0.00  0.00    +0.134 A 
ATOM      8  N   UNL     1       1.009  -2.037  -0.821  0.00  0.00    -0.209 NA
ATOM      9  C   UNL     1       1.217  -4.101  -2.058  0.00  0.00    +0.152 A 
ATOM     10  N   UNL     1       1.634  -4.667  -3.182  0.00  0.00    -0.218 NA
ATOM     11  C   UNL     1       2.195  -3.958  -4.148  0.00  0.00    +0.224 A 
ATOM     12  N   UNL     1       2.379  -2.661  -4.067  0.00  0.00    -0.232 NA
ATOM     13  H   UNL     1       0.368  -0.564   1.126  0.00  0.00    +0.149 HD
ENDROOT
BRANCH   9  14
ATOM     14  N   UNL     1       0.633  -4.853  -1.058  0.00  0.00    -0.298 N 
ATOM     15  H   UNL     1       0.257  -4.415  -0.278  0.00  0.00    +0.154 HD
BRANCH  14  16
ATOM     16  C   UNL     1       0.583  -6.245  -1.169  0.00  0.00    +0.033 A 
ATOM     17  C   UNL     1       1.622  -6.932  -1.785  0.00  0.00    +0.023 A 
ATOM     18  C   UNL     1       1.570  -8.308  -1.894  0.00  0.00    +0.003 A 
ATOM     19  C   UNL     1       0.485  -9.002  -1.391  0.00  0.00    +0.015 A 
ATOM     20  C   UNL     1      -0.552  -8.322  -0.777  0.00  0.00    +0.020 A 
ATOM     21  C   UNL     1      -0.503  -6.946  -0.660  0.00  0.00    +0.038 A 
ATOM     22 BR   UNL     1      -2.033  -9.276  -0.091  0.00  0.00    -0.050 Br
ENDBRANCH  14  16
ENDBRANCH   9  14
TORSDOF 2
