REMARK  Name = CHEMBL225721
REMARK  13 active torsions:
REMARK  status: ('A' for Active; 'I' for Inactive)
REMARK    1  A    between atoms: C_1  and  C_2
REMARK    2  A    between atoms: C_2  and  C_3
REMARK    3  A    between atoms: C_3  and  N_4
REMARK    4  A    between atoms: N_4  and  C_5
REMARK    5  A    between atoms: N_4  and  C_28
REMARK    6  A    between atoms: C_5  and  C_6
REMARK    7  A    between atoms: C_6  and  N_7
REMARK    8  A    between atoms: N_7  and  N_8
REMARK    9  A    between atoms: N_9  and  C_10
REMARK   10  A    between atoms: C_16  and  N_20
REMARK   11  A    between atoms: N_20  and  C_21
REMARK   12  A    between atoms: C_31  and  O_34
REMARK   13  A    between atoms: O_34  and  C_35
REMARK                            x       y       z     vdW  Elec       q    Type
REMARK                         _______ _______ _______ _____ _____    ______ ____
ROOT
ATOM      1  N   UNL     1       4.860  -5.000   1.973  0.00  0.00    -0.081 NA
ATOM      2  N   UNL     1       5.898  -5.446   1.350  0.00  0.00    -0.134 NA
ENDROOT
BRANCH   2   3
ATOM      3  C   UNL     1       7.095  -5.564   2.009  0.00  0.00    +0.088 A 
ATOM      4  C   UNL     1       7.184  -5.204   3.364  0.00  0.00    +0.032 A 
ATOM      5  C   UNL     1       8.360  -5.312   4.039  0.00  0.00    +0.030 A 
ATOM      6  C   UNL     1       9.503  -5.789   3.381  0.00  0.00    +0.076 A 
ATOM      7  C   UNL     1       9.424  -6.156   2.015  0.00  0.00    +0.042 A 
ATOM      8  C   UNL     1       8.208  -6.044   1.335  0.00  0.00    +0.043 A 
ATOM      9  C   UNL     1      10.597  -6.634   1.380  0.00  0.00    +0.134 A 
ATOM     10  N   UNL     1      11.709  -6.715   2.099  0.00  0.00    -0.220 NA
ATOM     11  C   UNL     1      11.735  -6.361   3.373  0.00  0.00    +0.223 A 
ATOM     12  N   UNL     1      10.681  -5.911   4.012  0.00  0.00    -0.235 NA
BRANCH   9  13
ATOM     13  N   UNL     1      10.583  -7.007   0.052  0.00  0.00    -0.299 N 
ATOM     14  H   UNL     1       9.786  -6.865  -0.483  0.00  0.00    +0.154 HD
BRANCH  13  15
ATOM     15  C   UNL     1      11.716  -7.589  -0.523  0.00  0.00    +0.034 A 
ATOM     16  C   UNL     1      12.045  -7.315  -1.845  0.00  0.00    +0.023 A 
ATOM     17  C   UNL     1      13.165  -7.891  -2.410  0.00  0.00    +0.003 A 
ATOM     18  C   UNL     1      13.960  -8.740  -1.663  0.00  0.00    +0.020 A 
ATOM     19  C   UNL     1      13.637  -9.015  -0.345  0.00  0.00    +0.043 A 
ATOM     20  C   UNL     1      12.520  -8.437   0.228  0.00  0.00    +0.043 A 
ATOM     21 CL   UNL     1      14.638 -10.081   0.589  0.00  0.00    -0.083 Cl
ENDBRANCH  13  15
ENDBRANCH   9  13
ENDBRANCH   2   3
BRANCH   1  22
ATOM     22  N   UNL     1       3.637  -4.880   1.300  0.00  0.00    -0.249 N 
ATOM     23  H   UNL     1       3.571  -5.131   0.365  0.00  0.00    +0.170 HD
BRANCH  22  24
ATOM     24  C   UNL     1       2.458  -4.374   2.007  0.00  0.00    +0.143 C 
BRANCH  24  25
ATOM     25  C   UNL     1       1.264  -4.342   1.051  0.00  0.00    +0.125 C 
BRANCH  25  26
ATOM     26  N   UNL     1       0.086  -3.836   1.759  0.00  0.00    -0.327 N 
BRANCH  26  27
ATOM     27  C   UNL     1      -0.768  -4.725   2.422  0.00  0.00    +0.030 A 
ATOM     28  C   UNL     1      -1.888  -4.246   3.087  0.00  0.00    +0.027 A 
ATOM     29  C   UNL     1      -2.730  -5.124   3.741  0.00  0.00    +0.047 A 
ATOM     30  C   UNL     1      -2.457  -6.484   3.732  0.00  0.00    +0.120 A 
ATOM     31  C   UNL     1      -1.338  -6.963   3.068  0.00  0.00    +0.047 A 
ATOM     32  C   UNL     1      -0.498  -6.087   2.409  0.00  0.00    +0.027 A 
BRANCH  30  33
ATOM     33  O   UNL     1      -3.287  -7.348   4.376  0.00  0.00    -0.495 OA
ATOM     34  C   UNL     1      -2.945  -8.735   4.327  0.00  0.00    +0.277 C 
ENDBRANCH  30  33
ENDBRANCH  26  27
BRANCH  26  35
ATOM     35  C   UNL     1      -0.200  -2.399   1.772  0.00  0.00    +0.124 C 
BRANCH  35  37
ATOM     36  C   UNL     1      -1.380  -0.542   0.589  0.00  0.00    +0.026 C 
ATOM     37  C   UNL     1      -1.083  -2.043   0.575  0.00  0.00    +0.095 C 
ATOM     38 CL   UNL     1      -0.225  -2.471  -0.953  0.00  0.00    -0.120 Cl
ENDBRANCH  35  37
ENDBRANCH  26  35
ENDBRANCH  25  26
ENDBRANCH  24  25
ENDBRANCH  22  24
ENDBRANCH   1  22
TORSDOF 11
