REMARK  Name = CHEMBL180227
REMARK  13 active torsions:
REMARK  status: ('A' for Active; 'I' for Inactive)
REMARK    1  A    between atoms: C_1  and  N_2
REMARK    2  A    between atoms: N_2  and  C_3
REMARK    3  A    between atoms: N_2  and  C_4
REMARK    4  A    between atoms: C_4  and  C_5
REMARK    5  A    between atoms: C_6  and  C_7
REMARK    6  A    between atoms: N_9  and  C_10
REMARK    7  A    between atoms: C_15  and  O_16
REMARK    8  A    between atoms: O_16  and  C_17
REMARK    9  A    between atoms: C_20  and  C_39
REMARK   10  A    between atoms: C_21  and  N_22
REMARK   11  A    between atoms: N_22  and  C_23
REMARK   12  A    between atoms: N_31  and  C_32
REMARK   13  A    between atoms: C_32  and  C_33
REMARK                            x       y       z     vdW  Elec       q    Type
REMARK                         _______ _______ _______ _____ _____    ______ ____
ROOT
ATOM      1  C   UNL     1      -3.861  -9.208  -0.429  0.00  0.00    +0.077 A 
ATOM      2  C   UNL     1      -2.756  -8.783  -1.131  0.00  0.00    +0.039 A 
ATOM      3  C   UNL     1      -1.490  -9.294  -0.810  0.00  0.00    +0.025 A 
ATOM      4  C   UNL     1      -1.353 -10.242   0.233  0.00  0.00    +0.076 A 
ATOM      5  C   UNL     1      -2.495 -10.660   0.934  0.00  0.00    +0.076 A 
ATOM      6  C   UNL     1      -3.728 -10.143   0.609  0.00  0.00    +0.143 A 
ATOM      7  N   UNL     1      -0.145 -10.733   0.545  0.00  0.00    -0.253 NA
ATOM      8  C   UNL     1       0.939 -10.364  -0.089  0.00  0.00    +0.132 A 
ATOM      9  C   UNL     1       0.897  -9.429  -1.135  0.00  0.00    +0.091 A 
ATOM     10  C   UNL     1      -0.336  -8.876  -1.513  0.00  0.00    +0.060 A 
ENDROOT
BRANCH   1  13
ATOM     11  C   UNL     1      -5.237  -7.494  -1.340  0.00  0.00    +0.241 C 
ATOM     12  O   UNL     1      -4.250  -6.801  -1.500  0.00  0.00    -0.271 OA
ATOM     13  N   UNL     1      -5.126  -8.699  -0.748  0.00  0.00    -0.279 N 
ATOM     14  H   UNL     1      -5.922  -9.214  -0.543  0.00  0.00    +0.155 HD
BRANCH  11  16
ATOM     15  C   UNL     1      -6.662  -5.826  -2.377  0.00  0.00    -0.007 C 
ATOM     16  C   UNL     1      -6.552  -7.015  -1.793  0.00  0.00    +0.064 C 
BRANCH  15  17
ATOM     17  C   UNL     1      -8.010  -5.336  -2.841  0.00  0.00    +0.111 C 
BRANCH  17  19
ATOM     18  C   UNL     1      -9.474  -3.407  -2.848  0.00  0.00    +0.104 C 
ATOM     19  N   UNL     1      -8.287  -4.024  -2.241  0.00  0.00    -0.305 NA
ATOM     20  C   UNL     1      -8.437  -4.132  -0.783  0.00  0.00    +0.104 C 
ENDBRANCH  17  19
ENDBRANCH  15  17
ENDBRANCH  11  16
ENDBRANCH   1  13
BRANCH   6  21
ATOM     21  O   UNL     1      -4.828 -10.547   1.295  0.00  0.00    -0.493 OA
ATOM     22  C   UNL     1      -4.627 -11.501   2.340  0.00  0.00    +0.277 C 
ENDBRANCH   6  21
BRANCH  10  23
ATOM     23  N   UNL     1      -0.420  -7.954  -2.537  0.00  0.00    -0.313 N 
ATOM     24  H   UNL     1      -0.678  -7.039  -2.345  0.00  0.00    +0.152 HD
BRANCH  23  25
ATOM     25  C   UNL     1      -0.134  -8.340  -3.852  0.00  0.00    +0.032 A 
ATOM     26  C   UNL     1      -0.445  -9.631  -4.280  0.00  0.00    +0.025 A 
ATOM     27  C   UNL     1      -0.174 -10.027  -5.557  0.00  0.00    +0.030 A 
ATOM     28  C   UNL     1       0.420  -9.140  -6.452  0.00  0.00    +0.069 A 
ATOM     29  C   UNL     1       0.738  -7.835  -6.031  0.00  0.00    +0.021 A 
ATOM     30  C   UNL     1       0.450  -7.439  -4.720  0.00  0.00    +0.034 A 
ATOM     31  C   UNL     1       1.339  -7.167  -7.181  0.00  0.00    +0.143 A 
ATOM     32  N   UNL     1       1.360  -8.017  -8.169  0.00  0.00    -0.178 NA
ATOM     33  N   UNL     1       0.807  -9.236  -7.765  0.00  0.00    -0.259 N 
BRANCH  33  34
ATOM     34  C   UNL     1       0.665 -10.426  -8.608  0.00  0.00    +0.179 C 
BRANCH  34  35
ATOM     35  C   UNL     1      -0.668 -10.388  -9.309  0.00  0.00    -0.026 A 
ATOM     36  C   UNL     1      -1.779 -10.956  -8.713  0.00  0.00    +0.005 A 
ATOM     37  C   UNL     1      -3.002 -10.921  -9.356  0.00  0.00    +0.000 A 
ATOM     38  C   UNL     1      -3.115 -10.319 -10.595  0.00  0.00    +0.000 A 
ATOM     39  C   UNL     1      -2.004  -9.751 -11.191  0.00  0.00    +0.000 A 
ATOM     40  C   UNL     1      -0.782  -9.782 -10.546  0.00  0.00    +0.005 A 
ENDBRANCH  34  35
ENDBRANCH  33  34
ENDBRANCH  23  25
ENDBRANCH  10  23
BRANCH   9  41
ATOM     41  C   UNL     1       2.100  -9.044  -1.810  0.00  0.00    +0.103 C 
ATOM     42  N   UNL     1       3.054  -8.738  -2.345  0.00  0.00    -0.191 NA
ENDBRANCH   9  41
TORSDOF 10
