REMARK  Name = CHEMBL193681
REMARK  10 active torsions:
REMARK  status: ('A' for Active; 'I' for Inactive)
REMARK    1  A    between atoms: C_1  and  C_2
REMARK    2  A    between atoms: C_2  and  C_3
REMARK    3  A    between atoms: C_4  and  C_29
REMARK    4  A    between atoms: N_12  and  C_13
REMARK    5  A    between atoms: N_21  and  C_22
REMARK    6  A    between atoms: C_22  and  C_23
REMARK    7  A    between atoms: N_31  and  C_32
REMARK    8  A    between atoms: C_32  and  C_33
REMARK    9  A    between atoms: C_33  and  C_34
REMARK   10  A    between atoms: C_34  and  N_35
REMARK                            x       y       z     vdW  Elec       q    Type
REMARK                         _______ _______ _______ _____ _____    ______ ____
ROOT
ATOM      1  C   UNL     1       0.765  -0.615  -1.268  0.00  0.00    -0.005 A 
ATOM      2  C   UNL     1       0.144  -1.259  -2.358  0.00  0.00    +0.060 A 
ATOM      3  C   UNL     1       1.046  -2.186  -2.854  0.00  0.00    +0.126 A 
ATOM      4  N   UNL     1       2.168  -2.131  -2.123  0.00  0.00    -0.234 N 
ATOM      5  C   UNL     1       2.020  -1.166  -1.143  0.00  0.00    +0.109 A 
ATOM      6  C   UNL     1       3.099  -0.937  -0.253  0.00  0.00    +0.151 A 
ATOM      7  N   UNL     1       4.208  -1.645  -0.387  0.00  0.00    -0.217 NA
ATOM      8  C   UNL     1       4.335  -2.569  -1.338  0.00  0.00    +0.245 A 
ATOM      9  N   UNL     1       3.379  -2.836  -2.184  0.00  0.00    -0.155 NA
ATOM     10  N   UNL     1       2.994   0.014   0.741  0.00  0.00    -0.298 N 
ATOM     11  H   UNL     1       2.152   0.474   0.886  0.00  0.00    +0.154 HD
ENDROOT
BRANCH  10  12
ATOM     12  C   UNL     1       4.103   0.316   1.541  0.00  0.00    +0.033 A 
ATOM     13  C   UNL     1       5.387   0.255   0.999  0.00  0.00    +0.025 A 
ATOM     14  C   UNL     1       6.481   0.546   1.762  0.00  0.00    +0.030 A 
ATOM     15  C   UNL     1       6.325   0.908   3.098  0.00  0.00    +0.069 A 
ATOM     16  C   UNL     1       5.034   0.973   3.655  0.00  0.00    +0.021 A 
ATOM     17  C   UNL     1       3.920   0.677   2.861  0.00  0.00    +0.034 A 
ATOM     18  C   UNL     1       5.207   1.374   5.047  0.00  0.00    +0.143 A 
ATOM     19  N   UNL     1       6.483   1.524   5.263  0.00  0.00    -0.178 NA
ATOM     20  N   UNL     1       7.203   1.249   4.096  0.00  0.00    -0.259 N 
BRANCH  20  21
ATOM     21  C   UNL     1       8.660   1.313   3.961  0.00  0.00    +0.179 C 
BRANCH  21  22
ATOM     22  C   UNL     1       9.064   2.701   3.533  0.00  0.00    -0.026 A 
ATOM     23  C   UNL     1       9.152   3.011   2.189  0.00  0.00    +0.005 A 
ATOM     24  C   UNL     1       9.522   4.284   1.796  0.00  0.00    +0.000 A 
ATOM     25  C   UNL     1       9.804   5.246   2.747  0.00  0.00    +0.000 A 
ATOM     26  C   UNL     1       9.716   4.936   4.092  0.00  0.00    +0.000 A 
ATOM     27  C   UNL     1       9.341   3.664   4.484  0.00  0.00    +0.005 A 
ENDBRANCH  21  22
ENDBRANCH  20  21
ENDBRANCH  10  12
BRANCH   2  28
ATOM     28  C   UNL     1      -1.212  -0.994  -2.873  0.00  0.00    +0.246 C 
ATOM     29  O   UNL     1      -1.909  -0.149  -2.345  0.00  0.00    -0.270 OA
ATOM     30  N   UNL     1      -1.680  -1.690  -3.928  0.00  0.00    -0.311 N 
ATOM     31  H   UNL     1      -1.124  -2.365  -4.349  0.00  0.00    +0.149 HD
BRANCH  30  32
ATOM     32  C   UNL     1      -3.027  -1.427  -4.440  0.00  0.00    +0.106 C 
BRANCH  32  33
ATOM     33  C   UNL     1      -3.308  -2.345  -5.632  0.00  0.00    +0.040 C 
BRANCH  33  34
ATOM     34  C   UNL     1      -4.715  -2.071  -6.166  0.00  0.00    +0.124 C 
BRANCH  34  35
ATOM     35  N   UNL     1      -4.984  -2.950  -7.307  0.00  0.00    -0.338 N 
ATOM     36  C   UNL     1      -4.720  -2.677  -8.622  0.00  0.00    +0.104 A 
ATOM     37  C   UNL     1      -5.121  -3.749  -9.331  0.00  0.00    +0.101 A 
ATOM     38  N   UNL     1      -5.617  -4.652  -8.472  0.00  0.00    -0.352 N 
ATOM     39  C   UNL     1      -5.534  -4.182  -7.257  0.00  0.00    +0.173 A 
ATOM     40  H   UNL     1      -5.978  -5.519  -8.714  0.00  0.00    +0.166 HD
ENDBRANCH  34  35
ENDBRANCH  33  34
ENDBRANCH  32  33
ENDBRANCH  30  32
ENDBRANCH   2  28
BRANCH   1  42
ATOM     41  C   UNL     1       0.616   1.839  -0.938  0.00  0.00    +0.009 C 
ATOM     42  C   UNL     1       0.172   0.473  -0.410  0.00  0.00    +0.035 C 
ENDBRANCH   1  42
TORSDOF 9
