REMARK  Name = CHEMBL475761
REMARK  9 active torsions:
REMARK  status: ('A' for Active; 'I' for Inactive)
REMARK    1  A    between atoms: C_1  and  N_2
REMARK    2  A    between atoms: N_5  and  C_8
REMARK    3  A    between atoms: C_8  and  C_9
REMARK    4  A    between atoms: C_12  and  C_14
REMARK    5  A    between atoms: C_19  and  N_23
REMARK    6  A    between atoms: N_23  and  C_24
REMARK    7  A    between atoms: C_27  and  O_31
REMARK    8  A    between atoms: O_31  and  C_32
REMARK    9  A    between atoms: C_32  and  C_33
REMARK                            x       y       z     vdW  Elec       q    Type
REMARK                         _______ _______ _______ _____ _____    ______ ____
ROOT
ATOM      1  C   UNL     1       2.898  -5.032   4.630  0.00  0.00    +0.057 A 
ATOM      2  C   UNL     1       4.115  -5.154   4.027  0.00  0.00    +0.047 A 
ATOM      3  C   UNL     1       5.172  -5.769   4.710  0.00  0.00    +0.084 A 
ATOM      4  C   UNL     1       4.872  -6.227   6.013  0.00  0.00    +0.078 A 
ATOM      5  S   UNL     1       3.169  -5.783   6.226  0.00  0.00    -0.080 S 
ATOM      6  C   UNL     1       5.831  -6.851   6.790  0.00  0.00    +0.141 A 
ATOM      7  N   UNL     1       7.053  -7.013   6.279  0.00  0.00    -0.219 NA
ATOM      8  C   UNL     1       7.322  -6.581   5.060  0.00  0.00    +0.224 A 
ATOM      9  N   UNL     1       6.446  -5.986   4.293  0.00  0.00    -0.235 NA
ENDROOT
BRANCH   1  13
ATOM     10  C   UNL     1       0.264  -3.421   2.740  0.00  0.00    +0.089 A 
ATOM     11  C   UNL     1      -0.416  -3.683   3.875  0.00  0.00    +0.043 A 
ATOM     12  C   UNL     1       0.476  -4.328   4.752  0.00  0.00    +0.050 A 
ATOM     13  C   UNL     1       1.667  -4.426   4.098  0.00  0.00    +0.142 A 
ATOM     14  O   UNL     1       1.520  -3.876   2.876  0.00  0.00    -0.461 OA
BRANCH  10  15
ATOM     15  C   UNL     1      -0.295  -2.737   1.519  0.00  0.00    -0.003 C 
BRANCH  15  20
ATOM     16  C   UNL     1       1.135   2.652   0.708  0.00  0.00    +0.104 C 
ATOM     17  N   UNL     1       0.901   1.203   0.643  0.00  0.00    -0.309 NA
ATOM     18  C   UNL     1      -0.537   0.901   0.630  0.00  0.00    +0.065 C 
ATOM     19  C   UNL     1      -0.737  -0.610   0.502  0.00  0.00    -0.063 C 
ATOM     20  N   UNL     1      -0.087  -1.287   1.633  0.00  0.00    +0.386 N 
ATOM     21  C   UNL     1       1.352  -0.996   1.619  0.00  0.00    -0.063 C 
ATOM     22  C   UNL     1       1.569   0.512   1.755  0.00  0.00    +0.065 C 
ATOM     23  H   UNL     1      -0.489  -0.957   2.498  0.00  0.00    -0.081 HD
ENDBRANCH  15  20
ENDBRANCH  10  15
ENDBRANCH   1  13
BRANCH   6  24
ATOM     24  N   UNL     1       5.530  -7.298   8.068  0.00  0.00    -0.298 N 
ATOM     25  H   UNL     1       4.619  -7.250   8.397  0.00  0.00    +0.154 HD
BRANCH  24  26
ATOM     26  C   UNL     1       6.542  -7.817   8.884  0.00  0.00    +0.034 A 
ATOM     27  C   UNL     1       6.264  -8.863   9.755  0.00  0.00    +0.027 A 
ATOM     28  C   UNL     1       7.263  -9.375  10.560  0.00  0.00    +0.049 A 
ATOM     29  C   UNL     1       8.543  -8.846  10.500  0.00  0.00    +0.139 A 
ATOM     30  C   UNL     1       8.822  -7.800   9.630  0.00  0.00    +0.084 A 
ATOM     31  C   UNL     1       7.825  -7.291   8.819  0.00  0.00    +0.047 A 
ATOM     32 CL   UNL     1      10.425  -7.137   9.556  0.00  0.00    -0.080 Cl
BRANCH  29  33
ATOM     33  O   UNL     1       9.525  -9.351  11.293  0.00  0.00    -0.486 OA
BRANCH  33  34
ATOM     34  C   UNL     1       9.168 -10.425  12.164  0.00  0.00    +0.264 C 
BRANCH  34  35
ATOM     35  C   UNL     1      10.375 -10.851  12.959  0.00  0.00    -0.008 A 
ATOM     36  C   UNL     1      11.218 -11.830  12.466  0.00  0.00    +0.007 A 
ATOM     37  C   UNL     1      12.325 -12.221  13.194  0.00  0.00    +0.003 A 
ATOM     38  C   UNL     1      12.592 -11.634  14.417  0.00  0.00    +0.038 A 
ATOM     39  C   UNL     1      11.749 -10.653  14.912  0.00  0.00    +0.124 A 
ATOM     40  C   UNL     1      10.643 -10.258  14.178  0.00  0.00    +0.045 A 
ATOM     41  F   UNL     1      12.008 -10.079  16.107  0.00  0.00    -0.205 F 
ENDBRANCH  34  35
ENDBRANCH  33  34
ENDBRANCH  29  33
ENDBRANCH  24  26
ENDBRANCH   6  24
TORSDOF 8
