REMARK  Name = CHEMBL179458
REMARK  12 active torsions:
REMARK  status: ('A' for Active; 'I' for Inactive)
REMARK    1  A    between atoms: C_1  and  N_2
REMARK    2  A    between atoms: N_2  and  C_3
REMARK    3  A    between atoms: N_2  and  C_4
REMARK    4  A    between atoms: C_4  and  C_5
REMARK    5  A    between atoms: C_6  and  C_7
REMARK    6  A    between atoms: N_9  and  C_10
REMARK    7  A    between atoms: C_15  and  O_16
REMARK    8  A    between atoms: O_16  and  C_17
REMARK    9  A    between atoms: C_20  and  C_35
REMARK   10  A    between atoms: C_21  and  N_22
REMARK   11  A    between atoms: N_22  and  C_23
REMARK   12  A    between atoms: C_26  and  N_30
REMARK                            x       y       z     vdW  Elec       q    Type
REMARK                         _______ _______ _______ _____ _____    ______ ____
ROOT
ATOM      1  C   UNL     1      -2.082  -0.299   9.769  0.00  0.00    +0.077 A 
ATOM      2  C   UNL     1      -2.417   0.734   8.922  0.00  0.00    +0.039 A 
ATOM      3  C   UNL     1      -3.763   0.968   8.609  0.00  0.00    +0.025 A 
ATOM      4  C   UNL     1      -4.772   0.142   9.163  0.00  0.00    +0.076 A 
ATOM      5  C   UNL     1      -4.407  -0.904  10.024  0.00  0.00    +0.076 A 
ATOM      6  C   UNL     1      -3.080  -1.122  10.314  0.00  0.00    +0.143 A 
ATOM      7  N   UNL     1      -6.061   0.361   8.866  0.00  0.00    -0.253 NA
ATOM      8  C   UNL     1      -6.435   1.327   8.067  0.00  0.00    +0.132 A 
ATOM      9  C   UNL     1      -5.503   2.194   7.473  0.00  0.00    +0.091 A 
ATOM     10  C   UNL     1      -4.137   2.021   7.742  0.00  0.00    +0.060 A 
ENDROOT
BRANCH   1  13
ATOM     11  C   UNL     1       0.231  -0.136   9.235  0.00  0.00    +0.241 C 
ATOM     12  O   UNL     1      -0.063   0.331   8.150  0.00  0.00    -0.271 OA
ATOM     13  N   UNL     1      -0.738  -0.534  10.082  0.00  0.00    -0.279 N 
ATOM     14  H   UNL     1      -0.505  -0.983  10.910  0.00  0.00    +0.155 HD
BRANCH  11  16
ATOM     15  C   UNL     1       2.601   0.128   8.785  0.00  0.00    -0.040 C 
ATOM     16  C   UNL     1       1.644  -0.265   9.621  0.00  0.00    +0.061 C 
BRANCH  15  17
ATOM     17  C   UNL     1       4.049  -0.004   9.181  0.00  0.00    -0.052 C 
BRANCH  17  19
ATOM     18  C   UNL     1       4.777  -0.024   6.895  0.00  0.00    -0.096 C 
ATOM     19  N   UNL     1       4.768  -0.775   8.158  0.00  0.00    +0.378 N 
ATOM     20  C   UNL     1       6.150  -1.006   8.600  0.00  0.00    -0.096 C 
ATOM     21  H   UNL     1       4.306  -1.661   8.018  0.00  0.00    -0.082 HD
ENDBRANCH  17  19
ENDBRANCH  15  17
ENDBRANCH  11  16
ENDBRANCH   1  13
BRANCH   6  22
ATOM     22  O   UNL     1      -2.732  -2.140  11.143  0.00  0.00    -0.493 OA
ATOM     23  C   UNL     1      -3.792  -2.942  11.667  0.00  0.00    +0.277 C 
ENDBRANCH   6  22
BRANCH  10  24
ATOM     24  N   UNL     1      -3.189   2.851   7.178  0.00  0.00    -0.313 N 
ATOM     25  H   UNL     1      -2.558   2.497   6.532  0.00  0.00    +0.152 HD
BRANCH  24  26
ATOM     26  C   UNL     1      -3.139   4.201   7.538  0.00  0.00    +0.033 A 
ATOM     27  C   UNL     1      -3.468   4.588   8.831  0.00  0.00    +0.025 A 
ATOM     28  C   UNL     1      -3.419   5.921   9.187  0.00  0.00    +0.029 A 
ATOM     29  C   UNL     1      -3.040   6.875   8.252  0.00  0.00    +0.066 A 
ATOM     30  C   UNL     1      -2.711   6.489   6.959  0.00  0.00    +0.067 A 
ATOM     31  C   UNL     1      -2.755   5.155   6.604  0.00  0.00    +0.045 A 
ATOM     32 CL   UNL     1      -2.238   7.683   5.790  0.00  0.00    -0.081 Cl
BRANCH  29  33
ATOM     33  N   UNL     1      -2.989   8.231   8.615  0.00  0.00    -0.304 N 
ATOM     34  C   UNL     1      -1.947   9.094   8.397  0.00  0.00    +0.112 A 
ATOM     35  C   UNL     1      -2.318  10.287   8.900  0.00  0.00    +0.130 A 
ATOM     36  N   UNL     1      -3.551  10.161   9.412  0.00  0.00    -0.244 NA
ATOM     37  C   UNL     1      -3.966   8.935   9.242  0.00  0.00    +0.204 A 
ENDBRANCH  29  33
ENDBRANCH  24  26
ENDBRANCH  10  24
BRANCH   9  38
ATOM     38  C   UNL     1      -5.943   3.243   6.602  0.00  0.00    +0.103 C 
ATOM     39  N   UNL     1      -6.291   4.074   5.912  0.00  0.00    -0.191 NA
ENDBRANCH   9  38
TORSDOF 9
