REMARK  Name = CHEMBL179572
REMARK  13 active torsions:
REMARK  status: ('A' for Active; 'I' for Inactive)
REMARK    1  A    between atoms: C_1  and  N_2
REMARK    2  A    between atoms: N_2  and  C_3
REMARK    3  A    between atoms: N_2  and  C_4
REMARK    4  A    between atoms: C_4  and  C_5
REMARK    5  A    between atoms: C_6  and  C_7
REMARK    6  A    between atoms: N_9  and  C_10
REMARK    7  A    between atoms: C_15  and  O_16
REMARK    8  A    between atoms: O_16  and  C_17
REMARK    9  A    between atoms: C_20  and  C_36
REMARK   10  A    between atoms: C_21  and  N_22
REMARK   11  A    between atoms: N_22  and  C_23
REMARK   12  A    between atoms: C_26  and  S_30
REMARK   13  A    between atoms: S_30  and  C_31
REMARK                            x       y       z     vdW  Elec       q    Type
REMARK                         _______ _______ _______ _____ _____    ______ ____
ROOT
ATOM      1  C   UNL     1      -4.522  -8.778  -1.936  0.00  0.00    +0.077 A 
ATOM      2  C   UNL     1      -3.193  -8.491  -2.151  0.00  0.00    +0.039 A 
ATOM      3  C   UNL     1      -2.209  -9.170  -1.418  0.00  0.00    +0.025 A 
ATOM      4  C   UNL     1      -2.585 -10.145  -0.462  0.00  0.00    +0.076 A 
ATOM      5  C   UNL     1      -3.946 -10.420  -0.261  0.00  0.00    +0.076 A 
ATOM      6  C   UNL     1      -4.898  -9.739  -0.986  0.00  0.00    +0.143 A 
ATOM      7  N   UNL     1      -1.648 -10.797   0.242  0.00  0.00    -0.253 NA
ATOM      8  C   UNL     1      -0.370 -10.564   0.080  0.00  0.00    +0.132 A 
ATOM      9  C   UNL     1       0.093  -9.615  -0.845  0.00  0.00    +0.091 A 
ATOM     10  C   UNL     1      -0.835  -8.898  -1.616  0.00  0.00    +0.060 A 
ENDROOT
BRANCH   1  13
ATOM     11  C   UNL     1      -5.218  -6.921  -3.252  0.00  0.00    +0.241 C 
ATOM     12  O   UNL     1      -4.135  -6.400  -3.070  0.00  0.00    -0.271 OA
ATOM     13  N   UNL     1      -5.506  -8.101  -2.666  0.00  0.00    -0.279 N 
ATOM     14  H   UNL     1      -6.395  -8.480  -2.751  0.00  0.00    +0.155 HD
BRANCH  11  16
ATOM     15  C   UNL     1      -5.931  -5.101  -4.691  0.00  0.00    -0.007 C 
ATOM     16  C   UNL     1      -6.215  -6.265  -4.112  0.00  0.00    +0.064 C 
BRANCH  15  17
ATOM     17  C   UNL     1      -6.952  -4.429  -5.572  0.00  0.00    +0.111 C 
BRANCH  17  19
ATOM     18  C   UNL     1      -7.997  -2.298  -6.049  0.00  0.00    +0.104 C 
ATOM     19  N   UNL     1      -7.193  -3.063  -5.087  0.00  0.00    -0.305 NA
ATOM     20  C   UNL     1      -7.830  -3.079  -3.764  0.00  0.00    +0.104 C 
ENDBRANCH  17  19
ENDBRANCH  15  17
ENDBRANCH  11  16
ENDBRANCH   1  13
BRANCH   6  21
ATOM     21  O   UNL     1      -6.214 -10.006  -0.783  0.00  0.00    -0.493 OA
ATOM     22  C   UNL     1      -6.533 -10.995   0.198  0.00  0.00    +0.277 C 
ENDBRANCH   6  21
BRANCH  10  23
ATOM     23  N   UNL     1      -0.421  -7.956  -2.537  0.00  0.00    -0.313 N 
ATOM     24  H   UNL     1      -0.328  -7.028  -2.272  0.00  0.00    +0.152 HD
BRANCH  23  25
ATOM     25  C   UNL     1      -0.135  -8.342  -3.851  0.00  0.00    +0.033 A 
ATOM     26  C   UNL     1      -0.418  -9.635  -4.273  0.00  0.00    +0.024 A 
ATOM     27  C   UNL     1      -0.136 -10.016  -5.569  0.00  0.00    +0.018 A 
ATOM     28  C   UNL     1       0.431  -9.106  -6.453  0.00  0.00    +0.033 A 
ATOM     29  C   UNL     1       0.714  -7.812  -6.032  0.00  0.00    +0.056 A 
ATOM     30  C   UNL     1       0.427  -7.430  -4.735  0.00  0.00    +0.044 A 
ATOM     31 CL   UNL     1       1.422  -6.675  -7.135  0.00  0.00    -0.082 Cl
BRANCH  28  32
ATOM     32  S   UNL     1       0.791  -9.592  -8.108  0.00  0.00    -0.061 S 
BRANCH  32  33
ATOM     33  C   UNL     1       2.512  -9.967  -8.077  0.00  0.00    +0.139 A 
ATOM     34  N   UNL     1       3.325  -9.994  -7.042  0.00  0.00    -0.241 NA
ATOM     35  C   UNL     1       4.603 -10.297  -7.186  0.00  0.00    +0.120 A 
ATOM     36  C   UNL     1       5.032 -10.576  -8.441  0.00  0.00    +0.067 A 
ATOM     37  S   UNL     1       3.515 -10.385  -9.363  0.00  0.00    -0.069 S 
ENDBRANCH  32  33
ENDBRANCH  28  32
ENDBRANCH  23  25
ENDBRANCH  10  23
BRANCH   9  38
ATOM     38  C   UNL     1       1.497  -9.381  -1.001  0.00  0.00    +0.103 C 
ATOM     39  N   UNL     1       2.611  -9.196  -1.124  0.00  0.00    -0.191 NA
ENDBRANCH   9  38
TORSDOF 10
