REMARK  Name = CHEMBL105053
REMARK  4 active torsions:
REMARK  status: ('A' for Active; 'I' for Inactive)
REMARK    1  A    between atoms: C_1  and  C_2
REMARK    2  A    between atoms: C_2  and  C_4
REMARK    3  A    between atoms: C_2  and  N_10
REMARK    4  A    between atoms: C_14  and  C_20
REMARK                            x       y       z     vdW  Elec       q    Type
REMARK                         _______ _______ _______ _____ _____    ______ ____
ROOT
ATOM      1  N   UNL     1       0.711  -0.489   1.189  0.00  0.00    -0.322 N 
ATOM      2  C   UNL     1       2.089  -0.603   1.173  0.00  0.00    +0.132 A 
ATOM      3  C   UNL     1       2.786  -1.072   2.300  0.00  0.00    +0.059 A 
ATOM      4  C   UNL     1       2.404  -1.522   3.633  0.00  0.00    +0.041 A 
ATOM      5  C   UNL     1       3.551  -1.855   4.277  0.00  0.00    +0.049 A 
ATOM      6  N   UNL     1       4.625  -1.644   3.439  0.00  0.00    -0.339 N 
ATOM      7  C   UNL     1       4.189  -1.168   2.233  0.00  0.00    +0.144 A 
ATOM      8  N   UNL     1       4.798  -0.811   1.103  0.00  0.00    -0.218 NA
ATOM      9  C   UNL     1       4.104  -0.377   0.073  0.00  0.00    +0.225 A 
ATOM     10  N   UNL     1       2.787  -0.276   0.090  0.00  0.00    -0.220 NA
ATOM     11  H   UNL     1       0.213  -0.731   1.986  0.00  0.00    +0.148 HD
ATOM     12  H   UNL     1       5.553  -1.808   3.671  0.00  0.00    +0.167 HD
ENDROOT
BRANCH   5  13
ATOM     13  C   UNL     1       3.636  -2.365   5.662  0.00  0.00    -0.002 A 
ATOM     14  C   UNL     1       2.475  -2.543   6.416  0.00  0.00    +0.010 A 
ATOM     15  C   UNL     1       2.561  -3.019   7.708  0.00  0.00    +0.001 A 
ATOM     16  C   UNL     1       3.795  -3.319   8.257  0.00  0.00    +0.000 A 
ATOM     17  C   UNL     1       4.949  -3.144   7.516  0.00  0.00    +0.001 A 
ATOM     18  C   UNL     1       4.877  -2.674   6.221  0.00  0.00    +0.010 A 
ENDBRANCH   5  13
BRANCH   1  20
ATOM     19  C   UNL     1      -0.019   1.526   0.010  0.00  0.00    +0.033 C 
ATOM     20  C   UNL     1       0.002  -0.004   0.002  0.00  0.00    +0.099 C 
BRANCH  20  21
ATOM     21  C   UNL     1      -1.412  -0.526   0.013  0.00  0.00    -0.028 A 
ATOM     22  C   UNL     1      -2.123  -0.571   1.197  0.00  0.00    +0.005 A 
ATOM     23  C   UNL     1      -3.420  -1.049   1.207  0.00  0.00    +0.000 A 
ATOM     24  C   UNL     1      -4.006  -1.482   0.032  0.00  0.00    +0.000 A 
ATOM     25  C   UNL     1      -3.295  -1.436  -1.153  0.00  0.00    +0.000 A 
ATOM     26  C   UNL     1      -2.000  -0.954  -1.163  0.00  0.00    +0.005 A 
ENDBRANCH  20  21
ENDBRANCH   1  20
TORSDOF 3
