REMARK  Name = CHEMBL52882
REMARK  4 active torsions:
REMARK  status: ('A' for Active; 'I' for Inactive)
REMARK    1  A    between atoms: C_1  and  N_2
REMARK    2  A    between atoms: N_2  and  C_3
REMARK    3  A    between atoms: N_10  and  C_11
REMARK    4  A    between atoms: N_18  and  C_21
REMARK                            x       y       z     vdW  Elec       q    Type
REMARK                         _______ _______ _______ _____ _____    ______ ____
ROOT
ATOM      1  C   UNL     1      -1.017  -0.884   0.475  0.00  0.00    +0.094 C 
ATOM      2  C   UNL     1      -1.099  -2.228   0.234  0.00  0.00    +0.040 C 
ATOM      3  C   UNL     1      -2.487  -2.807   0.059  0.00  0.00    +0.126 C 
ATOM      4  C   UNL     1      -3.629  -1.855   0.379  0.00  0.00    +0.102 C 
ATOM      5  C   UNL     1      -3.334  -0.520   0.564  0.00  0.00    +0.074 C 
ATOM      6  N   UNL     1      -2.085  -0.104   0.578  0.00  0.00    -0.353 N 
ATOM      7  C   UNL     1      -4.917  -2.416   0.535  0.00  0.00    +0.118 C 
ATOM      8  N   UNL     1      -6.011  -1.690   0.664  0.00  0.00    -0.236 NA
ATOM      9  N   UNL     1      -4.922  -3.826   0.541  0.00  0.00    -0.284 N 
ATOM     10  C   UNL     1      -3.842  -4.425   1.168  0.00  0.00    +0.159 C 
ATOM     11  N   UNL     1      -2.647  -3.949   0.960  0.00  0.00    -0.371 N 
ATOM     12  C   UNL     1      -5.998  -4.606  -0.074  0.00  0.00    +0.137 C 
ATOM     13  H   UNL     1      -1.934   0.850   0.667  0.00  0.00    +0.166 HD
ATOM     14  H   UNL     1      -1.876  -4.345   1.396  0.00  0.00    +0.161 HD
ENDROOT
BRANCH   8  15
ATOM     15  C   UNL     1      -7.187  -2.287   0.948  0.00  0.00    +0.067 A 
ATOM     16  C   UNL     1      -7.308  -3.110   2.080  0.00  0.00    +0.028 A 
ATOM     17  C   UNL     1      -8.512  -3.714   2.361  0.00  0.00    +0.003 A 
ATOM     18  C   UNL     1      -9.605  -3.512   1.532  0.00  0.00    +0.015 A 
ATOM     19  C   UNL     1      -9.497  -2.702   0.413  0.00  0.00    +0.020 A 
ATOM     20  C   UNL     1      -8.301  -2.084   0.117  0.00  0.00    +0.043 A 
ATOM     21 BR   UNL     1     -10.997  -2.438  -0.708  0.00  0.00    -0.050 Br
ENDBRANCH   8  15
BRANCH   1  23
ATOM     22  C   UNL     1       0.367   1.125   0.890  0.00  0.00    +0.126 C 
ATOM     23  N   UNL     1       0.242  -0.311   0.625  0.00  0.00    -0.334 N 
ATOM     24  H   UNL     1       1.037  -0.862   0.554  0.00  0.00    +0.147 HD
ENDBRANCH   1  23
TORSDOF 2
