REMARK  Name = CHEMBL424093
REMARK  6 active torsions:
REMARK  status: ('A' for Active; 'I' for Inactive)
REMARK    1  A    between atoms: C_4  and  C_7
REMARK    2  A    between atoms: C_7  and  N_8
REMARK    3  A    between atoms: N_9  and  N_10
REMARK    4  A    between atoms: N_10  and  C_11
REMARK    5  A    between atoms: C_17  and  N_21
REMARK    6  A    between atoms: N_21  and  C_22
REMARK                            x       y       z     vdW  Elec       q    Type
REMARK                         _______ _______ _______ _____ _____    ______ ____
ROOT
ATOM      1  C   UNL     1       5.599  -3.675   3.345  0.00  0.00    +0.051 A 
ATOM      2  C   UNL     1       5.360  -4.746   2.478  0.00  0.00    +0.027 A 
ATOM      3  C   UNL     1       5.318  -6.026   2.940  0.00  0.00    +0.030 A 
ATOM      4  C   UNL     1       5.518  -6.282   4.304  0.00  0.00    +0.076 A 
ATOM      5  C   UNL     1       5.761  -5.202   5.188  0.00  0.00    +0.042 A 
ATOM      6  C   UNL     1       5.804  -3.895   4.692  0.00  0.00    +0.038 A 
ATOM      7  C   UNL     1       5.960  -5.492   6.560  0.00  0.00    +0.134 A 
ATOM      8  N   UNL     1       5.908  -6.759   6.947  0.00  0.00    -0.220 NA
ATOM      9  C   UNL     1       5.677  -7.736   6.084  0.00  0.00    +0.223 A 
ATOM     10  N   UNL     1       5.486  -7.527   4.803  0.00  0.00    -0.235 NA
ENDROOT
BRANCH   1  11
ATOM     11  N   UNL     1       5.636  -2.371   2.842  0.00  0.00    -0.222 N 
ATOM     12  H   UNL     1       5.805  -1.626   3.439  0.00  0.00    +0.176 HD
BRANCH  11  14
ATOM     13  N   UNL     1       5.460  -0.985   1.029  0.00  0.00    -0.290 N 
ATOM     14  N   UNL     1       5.428  -2.142   1.475  0.00  0.00    -0.106 NA
ATOM     15  H   UNL     1       5.630  -0.240   1.626  0.00  0.00    +0.184 HD
BRANCH  13  16
ATOM     16  C   UNL     1       5.243  -0.745  -0.400  0.00  0.00    +0.170 C 
BRANCH  16  20
ATOM     17  C   UNL     1       1.840   1.785  -0.919  0.00  0.00    +0.000 A 
ATOM     18  C   UNL     1       3.099   2.339  -0.779  0.00  0.00    +0.000 A 
ATOM     19  C   UNL     1       4.200   1.521  -0.611  0.00  0.00    +0.005 A 
ATOM     20  C   UNL     1       4.043   0.148  -0.582  0.00  0.00    -0.027 A 
ATOM     21  C   UNL     1       2.784  -0.407  -0.720  0.00  0.00    +0.005 A 
ATOM     22  C   UNL     1       1.683   0.412  -0.890  0.00  0.00    +0.000 A 
ENDBRANCH  16  20
ENDBRANCH  13  16
ENDBRANCH  11  14
ENDBRANCH   1  11
BRANCH   7  23
ATOM     23  N   UNL     1       6.201  -4.482   7.470  0.00  0.00    -0.299 N 
ATOM     24  H   UNL     1       6.154  -3.555   7.189  0.00  0.00    +0.154 HD
BRANCH  23  25
ATOM     25  C   UNL     1       6.514  -4.796   8.796  0.00  0.00    +0.033 A 
ATOM     26  C   UNL     1       6.063  -3.983   9.828  0.00  0.00    +0.023 A 
ATOM     27  C   UNL     1       6.373  -4.296  11.137  0.00  0.00    +0.003 A 
ATOM     28  C   UNL     1       7.131  -5.418  11.421  0.00  0.00    +0.015 A 
ATOM     29  C   UNL     1       7.582  -6.230  10.395  0.00  0.00    +0.020 A 
ATOM     30  C   UNL     1       7.270  -5.925   9.084  0.00  0.00    +0.038 A 
ATOM     31 BR   UNL     1       8.618  -7.761  10.789  0.00  0.00    -0.050 Br
ENDBRANCH  23  25
ENDBRANCH   7  23
TORSDOF 6
