REMARK  Name = CHEMBL503418
REMARK  9 active torsions:
REMARK  status: ('A' for Active; 'I' for Inactive)
REMARK    1  A    between atoms: C_1  and  N_2
REMARK    2  A    between atoms: N_5  and  C_8
REMARK    3  A    between atoms: C_8  and  C_9
REMARK    4  A    between atoms: C_12  and  N_15
REMARK    5  A    between atoms: C_21  and  N_25
REMARK    6  A    between atoms: N_25  and  C_26
REMARK    7  A    between atoms: C_29  and  O_33
REMARK    8  A    between atoms: O_33  and  C_34
REMARK    9  A    between atoms: C_34  and  C_35
REMARK                            x       y       z     vdW  Elec       q    Type
REMARK                         _______ _______ _______ _____ _____    ______ ____
ROOT
ATOM      1  N   UNL     1       1.613  -5.956   5.831  0.00  0.00    -0.294 N 
ATOM      2  C   UNL     1       0.821  -6.128   6.948  0.00  0.00    +0.165 A 
ATOM      3  N   UNL     1      -0.463  -5.872   7.100  0.00  0.00    -0.205 NA
ATOM      4  C   UNL     1      -1.109  -6.090   8.250  0.00  0.00    +0.174 A 
ATOM      5  C   UNL     1      -0.330  -6.616   9.306  0.00  0.00    +0.099 A 
ATOM      6  S   UNL     1       1.272  -6.762   8.558  0.00  0.00    -0.047 S 
ATOM      7  C   UNL     1      -0.880  -6.885  10.540  0.00  0.00    +0.142 A 
ATOM      8  N   UNL     1      -2.179  -6.636  10.722  0.00  0.00    -0.219 NA
ATOM      9  C   UNL     1      -2.900  -6.144   9.730  0.00  0.00    +0.225 A 
ATOM     10  N   UNL     1      -2.414  -5.875   8.545  0.00  0.00    -0.215 NA
ATOM     11  H   UNL     1       2.531  -6.268   5.835  0.00  0.00    +0.154 HD
ENDROOT
BRANCH   1  15
ATOM     12  C   UNL     1       0.060  -4.098   2.443  0.00  0.00    -0.064 A 
ATOM     13  C   UNL     1      -0.483  -3.830   3.686  0.00  0.00    +0.003 A 
ATOM     14  C   UNL     1       0.030  -4.444   4.812  0.00  0.00    +0.023 A 
ATOM     15  C   UNL     1       1.091  -5.332   4.694  0.00  0.00    +0.033 A 
ATOM     16  C   UNL     1       1.634  -5.599   3.443  0.00  0.00    +0.023 A 
ATOM     17  C   UNL     1       1.114  -4.985   2.321  0.00  0.00    +0.003 A 
BRANCH  12  18
ATOM     18  C   UNL     1      -0.502  -3.426   1.216  0.00  0.00    -0.043 C 
BRANCH  18  23
ATOM     19  C   UNL     1      -5.383  -5.398  -0.791  0.00  0.00    +0.104 C 
ATOM     20  N   UNL     1      -4.270  -4.617  -0.235  0.00  0.00    -0.309 NA
ATOM     21  C   UNL     1      -3.160  -4.526  -1.194  0.00  0.00    +0.065 C 
ATOM     22  C   UNL     1      -2.048  -3.657  -0.602  0.00  0.00    -0.063 C 
ATOM     23  N   UNL     1      -1.582  -4.250   0.658  0.00  0.00    +0.384 N 
ATOM     24  C   UNL     1      -2.695  -4.312   1.614  0.00  0.00    -0.063 C 
ATOM     25  C   UNL     1      -3.812  -5.186   1.040  0.00  0.00    +0.065 C 
ATOM     26  H   UNL     1      -1.237  -5.182   0.483  0.00  0.00    -0.081 HD
ENDBRANCH  18  23
ENDBRANCH  12  18
ENDBRANCH   1  15
BRANCH   7  27
ATOM     27  N   UNL     1      -0.104  -7.402  11.567  0.00  0.00    -0.298 N 
ATOM     28  H   UNL     1       0.853  -7.507  11.447  0.00  0.00    +0.154 HD
BRANCH  27  29
ATOM     29  C   UNL     1      -0.702  -7.771  12.778  0.00  0.00    +0.034 A 
ATOM     30  C   UNL     1      -1.998  -8.270  12.789  0.00  0.00    +0.027 A 
ATOM     31  C   UNL     1      -2.587  -8.635  13.983  0.00  0.00    +0.049 A 
ATOM     32  C   UNL     1      -1.885  -8.503  15.172  0.00  0.00    +0.139 A 
ATOM     33  C   UNL     1      -0.590  -8.005  15.163  0.00  0.00    +0.084 A 
ATOM     34  C   UNL     1       0.003  -7.645  13.967  0.00  0.00    +0.047 A 
ATOM     35 CL   UNL     1       0.288  -7.841  16.651  0.00  0.00    -0.080 Cl
BRANCH  32  36
ATOM     36  O   UNL     1      -2.467  -8.862  16.348  0.00  0.00    -0.486 OA
BRANCH  36  37
ATOM     37  C   UNL     1      -3.802  -9.366  16.284  0.00  0.00    +0.264 C 
BRANCH  37  38
ATOM     38  C   UNL     1      -4.277  -9.709  17.673  0.00  0.00    -0.008 A 
ATOM     39  C   UNL     1      -4.064 -10.976  18.183  0.00  0.00    +0.007 A 
ATOM     40  C   UNL     1      -4.499 -11.292  19.457  0.00  0.00    +0.003 A 
ATOM     41  C   UNL     1      -5.148 -10.341  20.221  0.00  0.00    +0.038 A 
ATOM     42  C   UNL     1      -5.362  -9.072  19.712  0.00  0.00    +0.124 A 
ATOM     43  C   UNL     1      -4.920  -8.755  18.438  0.00  0.00    +0.045 A 
ATOM     44  F   UNL     1      -5.997  -8.141  20.458  0.00  0.00    -0.205 F 
ENDBRANCH  37  38
ENDBRANCH  36  37
ENDBRANCH  32  36
ENDBRANCH  27  29
ENDBRANCH   7  27
TORSDOF 8
