REMARK  Name = CHEMBL250132
REMARK  12 active torsions:
REMARK  status: ('A' for Active; 'I' for Inactive)
REMARK    1  A    between atoms: C_1  and  C_2
REMARK    2  A    between atoms: C_2  and  C_4
REMARK    3  A    between atoms: C_2  and  O_11
REMARK    4  A    between atoms: C_4  and  N_5
REMARK    5  A    between atoms: N_5  and  C_6
REMARK    6  A    between atoms: C_7  and  C_9
REMARK    7  A    between atoms: C_9  and  O_10
REMARK    8  A    between atoms: O_11  and  C_12
REMARK    9  A    between atoms: N_22  and  C_23
REMARK   10  A    between atoms: C_26  and  O_30
REMARK   11  A    between atoms: O_30  and  C_31
REMARK   12  A    between atoms: C_31  and  C_32
REMARK                            x       y       z     vdW  Elec       q    Type
REMARK                         _______ _______ _______ _____ _____    ______ ____
ROOT
ATOM      1  C   UNL     1       1.917  -0.517   1.042  0.00  0.00    +0.133 A 
ATOM      2  C   UNL     1       2.519  -0.106  -0.130  0.00  0.00    +0.046 A 
ATOM      3  C   UNL     1       3.897   0.051  -0.202  0.00  0.00    +0.006 A 
ATOM      4  C   UNL     1       4.693  -0.195   0.879  0.00  0.00    +0.029 A 
ATOM      5  C   UNL     1       4.119  -0.614   2.086  0.00  0.00    +0.080 A 
ATOM      6  C   UNL     1       2.713  -0.771   2.170  0.00  0.00    +0.082 A 
ATOM      7  C   UNL     1       2.160  -1.189   3.402  0.00  0.00    +0.137 A 
ATOM      8  N   UNL     1       2.985  -1.408   4.419  0.00  0.00    -0.220 NA
ATOM      9  C   UNL     1       4.292  -1.243   4.295  0.00  0.00    +0.223 A 
ATOM     10  N   UNL     1       4.862  -0.869   3.174  0.00  0.00    -0.235 NA
ATOM     11  N   UNL     1       0.799  -1.365   3.544  0.00  0.00    -0.299 N 
ATOM     12  H   UNL     1       0.224  -1.348   2.764  0.00  0.00    +0.154 HD
ENDROOT
BRANCH  11  13
ATOM     13  C   UNL     1       0.249  -1.567   4.816  0.00  0.00    +0.034 A 
ATOM     14  C   UNL     1       1.021  -2.124   5.827  0.00  0.00    +0.027 A 
ATOM     15  C   UNL     1       0.477  -2.324   7.080  0.00  0.00    +0.049 A 
ATOM     16  C   UNL     1      -0.840  -1.968   7.330  0.00  0.00    +0.139 A 
ATOM     17  C   UNL     1      -1.613  -1.411   6.321  0.00  0.00    +0.084 A 
ATOM     18  C   UNL     1      -1.068  -1.206   5.067  0.00  0.00    +0.047 A 
ATOM     19 CL   UNL     1      -3.261  -0.966   6.635  0.00  0.00    -0.080 Cl
BRANCH  16  20
ATOM     20  O   UNL     1      -1.374  -2.166   8.565  0.00  0.00    -0.484 OA
BRANCH  20  21
ATOM     21  C   UNL     1      -0.522  -2.744   9.556  0.00  0.00    +0.284 C 
BRANCH  21  22
ATOM     22  C   UNL     1      -1.281  -2.886  10.850  0.00  0.00    +0.078 A 
ATOM     23  C   UNL     1      -2.601  -2.480  10.916  0.00  0.00    +0.027 A 
ATOM     24  C   UNL     1      -3.290  -2.615  12.112  0.00  0.00    +0.003 A 
ATOM     25  C   UNL     1      -2.623  -3.156  13.201  0.00  0.00    +0.020 A 
ATOM     26  C   UNL     1      -1.303  -3.540  13.059  0.00  0.00    +0.111 A 
ATOM     27  N   UNL     1      -0.680  -3.401  11.905  0.00  0.00    -0.256 NA
ENDBRANCH  21  22
ENDBRANCH  20  21
ENDBRANCH  16  20
ENDBRANCH  11  13
BRANCH   1  28
ATOM     28  O   UNL     1       0.570  -0.668   1.106  0.00  0.00    -0.487 OA
BRANCH  28  30
ATOM     29  C   UNL     1      -0.544   0.952  -0.300  0.00  0.00    +0.053 C 
ATOM     30  C   UNL     1      -0.158  -0.517  -0.115  0.00  0.00    +0.188 C 
BRANCH  30  31
ATOM     31  C   UNL     1      -1.425  -1.374  -0.063  0.00  0.00    +0.151 C 
BRANCH  31  32
ATOM     32  N   UNL     1      -1.056  -2.781   0.114  0.00  0.00    -0.299 N 
ATOM     33  C   UNL     1      -0.918  -3.338   1.462  0.00  0.00    +0.132 C 
ATOM     34  C   UNL     1      -0.842  -3.562  -0.963  0.00  0.00    +0.241 C 
ATOM     35  O   UNL     1      -0.956  -3.101  -2.079  0.00  0.00    -0.273 OA
BRANCH  34  36
ATOM     36  C   UNL     1      -0.462  -5.009  -0.780  0.00  0.00    +0.251 C 
BRANCH  36  37
ATOM     37  O   UNL     1      -0.292  -5.622  -2.060  0.00  0.00    -0.386 OA
ATOM     38  H   UNL     1      -0.046  -6.556  -2.019  0.00  0.00    +0.210 HD
ENDBRANCH  36  37
ENDBRANCH  34  36
ENDBRANCH  31  32
ENDBRANCH  30  31
ENDBRANCH  28  30
ENDBRANCH   1  28
TORSDOF 10
