REMARK  Name = CHEMBL225929
REMARK  11 active torsions:
REMARK  status: ('A' for Active; 'I' for Inactive)
REMARK    1  A    between atoms: C_4  and  C_7
REMARK    2  A    between atoms: C_7  and  N_8
REMARK    3  A    between atoms: N_8  and  C_9
REMARK    4  A    between atoms: N_8  and  C_32
REMARK    5  A    between atoms: C_9  and  C_10
REMARK    6  A    between atoms: C_10  and  N_11
REMARK    7  A    between atoms: N_11  and  N_12
REMARK    8  A    between atoms: N_13  and  C_14
REMARK    9  A    between atoms: C_20  and  N_24
REMARK   10  A    between atoms: N_24  and  C_25
REMARK   11  A    between atoms: C_32  and  C_33
REMARK                            x       y       z     vdW  Elec       q    Type
REMARK                         _______ _______ _______ _____ _____    ______ ____
ROOT
ATOM      1  C   UNL     1       9.573  -6.302   5.829  0.00  0.00    +0.088 A 
ATOM      2  C   UNL     1       8.853  -6.132   7.023  0.00  0.00    +0.032 A 
ATOM      3  C   UNL     1       9.392  -6.485   8.220  0.00  0.00    +0.030 A 
ATOM      4  C   UNL     1      10.684  -7.028   8.273  0.00  0.00    +0.076 A 
ATOM      5  C   UNL     1      11.419  -7.205   7.074  0.00  0.00    +0.042 A 
ATOM      6  C   UNL     1      10.851  -6.842   5.851  0.00  0.00    +0.043 A 
ATOM      7  C   UNL     1      12.722  -7.756   7.163  0.00  0.00    +0.134 A 
ATOM      8  N   UNL     1      13.186  -8.079   8.363  0.00  0.00    -0.220 NA
ATOM      9  C   UNL     1      12.462  -7.896   9.455  0.00  0.00    +0.223 A 
ATOM     10  N   UNL     1      11.251  -7.389   9.434  0.00  0.00    -0.235 NA
ENDROOT
BRANCH   1  12
ATOM     11  N   UNL     1       7.819  -5.436   4.609  0.00  0.00    -0.081 NA
ATOM     12  N   UNL     1       9.007  -5.938   4.634  0.00  0.00    -0.134 NA
BRANCH  11  13
ATOM     13  N   UNL     1       7.241  -5.064   3.389  0.00  0.00    -0.252 N 
ATOM     14  H   UNL     1       7.735  -5.184   2.562  0.00  0.00    +0.169 HD
BRANCH  13  15
ATOM     15  C   UNL     1       5.892  -4.494   3.360  0.00  0.00    +0.105 C 
BRANCH  15  16
ATOM     16  C   UNL     1       5.502  -4.178   1.915  0.00  0.00    -0.058 C 
BRANCH  16  17
ATOM     17  N   UNL     1       4.124  -3.670   1.879  0.00  0.00    +0.384 N 
ATOM     18  H   UNL     1       3.513  -4.324   2.345  0.00  0.00    -0.081 HD
BRANCH  17  19
ATOM     19  C   UNL     1       4.063  -2.371   2.563  0.00  0.00    -0.043 C 
BRANCH  19  23
ATOM     20  C   UNL     1       0.003  -1.058   2.767  0.00  0.00    +0.000 A 
ATOM     21  C   UNL     1       0.532  -1.830   3.784  0.00  0.00    +0.000 A 
ATOM     22  C   UNL     1       1.845  -2.255   3.718  0.00  0.00    +0.002 A 
ATOM     23  C   UNL     1       2.631  -1.909   2.635  0.00  0.00    -0.064 A 
ATOM     24  C   UNL     1       2.102  -1.137   1.617  0.00  0.00    +0.002 A 
ATOM     25  C   UNL     1       0.789  -0.711   1.684  0.00  0.00    +0.000 A 
ENDBRANCH  19  23
ENDBRANCH  17  19
BRANCH  17  26
ATOM     26  C   UNL     1       3.697  -3.509   0.483  0.00  0.00    -0.062 C 
BRANCH  26  27
ATOM     27  C   UNL     1       3.631  -4.881  -0.191  0.00  0.00    +0.090 C 
ATOM     28 CL   UNL     1       3.042  -4.691  -1.885  0.00  0.00    -0.127 Cl
ENDBRANCH  26  27
ENDBRANCH  17  26
ENDBRANCH  16  17
ENDBRANCH  15  16
ENDBRANCH  13  15
ENDBRANCH  11  13
ENDBRANCH   1  12
BRANCH   7  29
ATOM     29  N   UNL     1      13.486  -7.952   6.031  0.00  0.00    -0.299 N 
ATOM     30  H   UNL     1      13.172  -7.631   5.171  0.00  0.00    +0.154 HD
BRANCH  29  31
ATOM     31  C   UNL     1      14.714  -8.614   6.123  0.00  0.00    +0.034 A 
ATOM     32  C   UNL     1      15.753  -8.275   5.265  0.00  0.00    +0.023 A 
ATOM     33  C   UNL     1      16.965  -8.930   5.359  0.00  0.00    +0.003 A 
ATOM     34  C   UNL     1      17.146  -9.922   6.305  0.00  0.00    +0.020 A 
ATOM     35  C   UNL     1      16.114 -10.262   7.161  0.00  0.00    +0.043 A 
ATOM     36  C   UNL     1      14.900  -9.606   7.077  0.00  0.00    +0.043 A 
ATOM     37 CL   UNL     1      16.346 -11.508   8.347  0.00  0.00    -0.083 Cl
ENDBRANCH  29  31
ENDBRANCH   7  29
TORSDOF 11
