REMARK  Name = CHEMBL121190
REMARK  1 active torsions:
REMARK  status: ('A' for Active; 'I' for Inactive)
REMARK    1  A    between atoms: C_3  and  N_8
REMARK                            x       y       z     vdW  Elec       q    Type
REMARK                         _______ _______ _______ _____ _____    ______ ____
ROOT
ATOM      1  N   UNL     1       3.582   2.124  -0.021  0.00  0.00    -0.297 N 
ATOM      2  C   UNL     1       4.799   1.445   0.069  0.00  0.00    +0.157 A 
ATOM      3  C   UNL     1       6.122   2.053   0.181  0.00  0.00    +0.100 A 
ATOM      4  C   UNL     1       6.609   3.370   0.234  0.00  0.00    +0.132 A 
ATOM      5  N   UNL     1       7.921   3.553   0.341  0.00  0.00    -0.220 NA
ATOM      6  C   UNL     1       8.752   2.527   0.397  0.00  0.00    +0.225 A 
ATOM      7  N   UNL     1       8.342   1.278   0.351  0.00  0.00    -0.216 NA
ATOM      8  C   UNL     1       7.045   0.991   0.244  0.00  0.00    +0.163 A 
ATOM      9  N   UNL     1       6.324  -0.162   0.174  0.00  0.00    -0.258 N 
ATOM     10  N   UNL     1       4.963   0.147   0.074  0.00  0.00    -0.156 NA
ATOM     11  N   UNL     1       5.746   4.447   0.176  0.00  0.00    -0.342 N 
ATOM     12  H   UNL     1       3.558   3.089   0.069  0.00  0.00    +0.154 HD
ATOM     13  H   UNL     1       4.791   4.299   0.098  0.00  0.00    +0.144 HD
ATOM     14  H   UNL     1       6.096   5.351   0.214  0.00  0.00    +0.144 HD
ATOM     15  H   UNL     1       6.696  -1.058   0.194  0.00  0.00    +0.191 HD
ENDROOT
BRANCH   1  18
ATOM     16  C   UNL     1       0.028   1.191   0.033  0.00  0.00    +0.003 A 
ATOM     17  C   UNL     1       1.195   1.896   0.252  0.00  0.00    +0.023 A 
ATOM     18  C   UNL     1       2.400   1.413  -0.241  0.00  0.00    +0.034 A 
ATOM     19  C   UNL     1       2.428   0.220  -0.953  0.00  0.00    +0.043 A 
ATOM     20  C   UNL     1       1.256  -0.481  -1.169  0.00  0.00    +0.043 A 
ATOM     21  C   UNL     1       0.057   0.005  -0.676  0.00  0.00    +0.020 A 
ATOM     22 CL   UNL     1       1.288  -1.971  -2.059  0.00  0.00    -0.083 Cl
ENDBRANCH   1  18
TORSDOF 1
