REMARK  Name = CHEMBL53299
REMARK  5 active torsions:
REMARK  status: ('A' for Active; 'I' for Inactive)
REMARK    1  A    between atoms: C_1  and  O_2
REMARK    2  A    between atoms: O_2  and  C_3
REMARK    3  A    between atoms: C_6  and  C_9
REMARK    4  A    between atoms: C_9  and  N_10
REMARK    5  A    between atoms: N_21  and  C_22
REMARK                            x       y       z     vdW  Elec       q    Type
REMARK                         _______ _______ _______ _____ _____    ______ ____
ROOT
ATOM      1  N   UNL     1      -5.075  -3.660  -1.309  0.00  0.00    -0.325 N 
ATOM      2  C   UNL     1      -6.364  -4.124  -1.563  0.00  0.00    +0.120 A 
ATOM      3  C   UNL     1      -7.229  -4.336  -0.503  0.00  0.00    +0.057 A 
ATOM      4  C   UNL     1      -8.515  -4.801  -0.781  0.00  0.00    +0.045 A 
ATOM      5  C   UNL     1      -8.881  -5.035  -2.131  0.00  0.00    +0.094 A 
ATOM      6  C   UNL     1      -7.934  -4.791  -3.135  0.00  0.00    +0.141 A 
ATOM      7  N   UNL     1      -6.739  -4.348  -2.817  0.00  0.00    -0.238 NA
ATOM      8  N   UNL     1     -10.117  -5.481  -2.391  0.00  0.00    -0.234 NA
ATOM      9  C   UNL     1     -10.973  -5.696  -1.423  0.00  0.00    +0.224 A 
ATOM     10  N   UNL     1     -10.702  -5.500  -0.142  0.00  0.00    -0.220 NA
ATOM     11  C   UNL     1      -9.513  -5.060   0.254  0.00  0.00    +0.134 A 
ATOM     12  N   UNL     1      -9.231  -4.855   1.589  0.00  0.00    -0.299 N 
ATOM     13  H   UNL     1      -4.462  -3.504  -2.044  0.00  0.00    +0.148 HD
ATOM     14  H   UNL     1      -8.387  -4.455   1.851  0.00  0.00    +0.154 HD
ENDROOT
BRANCH  12  15
ATOM     15  C   UNL     1     -10.162  -5.225   2.564  0.00  0.00    +0.033 A 
ATOM     16  C   UNL     1     -10.981  -6.328   2.361  0.00  0.00    +0.023 A 
ATOM     17  C   UNL     1     -11.900  -6.691   3.326  0.00  0.00    +0.003 A 
ATOM     18  C   UNL     1     -12.005  -5.957   4.494  0.00  0.00    +0.015 A 
ATOM     19  C   UNL     1     -11.191  -4.858   4.699  0.00  0.00    +0.020 A 
ATOM     20  C   UNL     1     -10.266  -4.492   3.739  0.00  0.00    +0.038 A 
ATOM     21 BR   UNL     1     -11.339  -3.857   6.297  0.00  0.00    -0.050 Br
ENDBRANCH  12  15
BRANCH   1  22
ATOM     22  C   UNL     1      -4.646  -3.407   0.069  0.00  0.00    +0.138 C 
BRANCH  22  26
ATOM     23  C   UNL     1      -0.606  -2.013   0.069  0.00  0.00    +0.120 A 
ATOM     24  C   UNL     1      -1.654  -1.107  -0.017  0.00  0.00    +0.046 A 
ATOM     25  C   UNL     1      -2.959  -1.560  -0.017  0.00  0.00    +0.009 A 
ATOM     26  C   UNL     1      -3.221  -2.915   0.069  0.00  0.00    -0.030 A 
ATOM     27  C   UNL     1      -2.179  -3.820   0.155  0.00  0.00    +0.009 A 
ATOM     28  C   UNL     1      -0.872  -3.372   0.149  0.00  0.00    +0.046 A 
BRANCH  23  30
ATOM     29  C   UNL     1       0.877  -0.157  -0.016  0.00  0.00    +0.277 C 
ATOM     30  O   UNL     1       0.678  -1.569   0.069  0.00  0.00    -0.495 OA
ENDBRANCH  23  30
ENDBRANCH  22  26
ENDBRANCH   1  22
TORSDOF 4
