REMARK  Name = CHEMBL401054
REMARK  10 active torsions:
REMARK  status: ('A' for Active; 'I' for Inactive)
REMARK    1  A    between atoms: C_1  and  O_2
REMARK    2  A    between atoms: O_2  and  C_3
REMARK    3  A    between atoms: C_8  and  O_9
REMARK    4  A    between atoms: O_9  and  C_10
REMARK    5  A    between atoms: C_10  and  C_11
REMARK    6  A    between atoms: C_11  and  N_12
REMARK    7  A    between atoms: C_18  and  N_24
REMARK    8  A    between atoms: C_19  and  C_22
REMARK    9  A    between atoms: N_24  and  C_25
REMARK   10  A    between atoms: C_28  and  C_30
REMARK                            x       y       z     vdW  Elec       q    Type
REMARK                         _______ _______ _______ _____ _____    ______ ____
ROOT
ATOM      1  C   UNL     1      -3.497  -0.708  -3.379  0.00  0.00    +0.164 A 
ATOM      2  C   UNL     1      -3.953   0.067  -2.338  0.00  0.00    +0.077 A 
ATOM      3  C   UNL     1      -4.428  -0.546  -1.169  0.00  0.00    +0.076 A 
ATOM      4  C   UNL     1      -4.430  -1.960  -1.083  0.00  0.00    +0.026 A 
ATOM      5  C   UNL     1      -3.960  -2.727  -2.159  0.00  0.00    +0.061 A 
ATOM      6  C   UNL     1      -3.507  -2.107  -3.288  0.00  0.00    +0.163 A 
ATOM      7  C   UNL     1      -4.910  -2.575   0.096  0.00  0.00    +0.056 A 
ATOM      8  C   UNL     1      -5.364  -1.743   1.131  0.00  0.00    +0.091 A 
ATOM      9  C   UNL     1      -5.326  -0.350   0.959  0.00  0.00    +0.132 A 
ATOM     10  N   UNL     1      -4.877   0.193  -0.143  0.00  0.00    -0.253 NA
ENDROOT
BRANCH   1  12
ATOM     11  C   UNL     1      -3.053   1.317  -4.542  0.00  0.00    +0.277 C 
ATOM     12  O   UNL     1      -3.038  -0.112  -4.510  0.00  0.00    -0.491 OA
ENDBRANCH   1  12
BRANCH   8  13
ATOM     13  C   UNL     1      -5.862  -2.309   2.348  0.00  0.00    +0.103 C 
ATOM     14  N   UNL     1      -6.256  -2.758   3.314  0.00  0.00    -0.191 NA
ENDBRANCH   8  13
BRANCH   7  15
ATOM     15  N   UNL     1      -4.931  -3.949   0.225  0.00  0.00    -0.339 N 
ATOM     16  H   UNL     1      -4.125  -4.425   0.481  0.00  0.00    +0.146 HD
BRANCH  15  17
ATOM     17  C   UNL     1      -6.170  -4.689  -0.025  0.00  0.00    +0.078 C 
ATOM     18  C   UNL     1      -6.529  -5.815   0.948  0.00  0.00    +0.032 C 
ATOM     19  C   UNL     1      -6.045  -6.149  -0.466  0.00  0.00    +0.041 C 
BRANCH  19  20
ATOM     20  C   UNL     1      -7.064  -6.670  -1.446  0.00  0.00    -0.042 A 
ATOM     21  C   UNL     1      -8.407  -6.658  -1.117  0.00  0.00    +0.004 A 
ATOM     22  C   UNL     1      -9.342  -7.136  -2.016  0.00  0.00    +0.000 A 
ATOM     23  C   UNL     1      -8.935  -7.625  -3.243  0.00  0.00    +0.000 A 
ATOM     24  C   UNL     1      -7.593  -7.636  -3.572  0.00  0.00    +0.000 A 
ATOM     25  C   UNL     1      -6.657  -7.154  -2.675  0.00  0.00    +0.004 A 
ENDBRANCH  19  20
ENDBRANCH  15  17
ENDBRANCH   7  15
BRANCH   6  26
ATOM     26  O   UNL     1      -3.057  -2.853  -4.332  0.00  0.00    -0.487 OA
BRANCH  26  27
ATOM     27  C   UNL     1      -3.093  -4.273  -4.177  0.00  0.00    +0.244 C 
BRANCH  27  28
ATOM     28  C   UNL     1      -2.551  -4.938  -5.444  0.00  0.00    +0.125 C 
BRANCH  28  29
ATOM     29  N   UNL     1      -1.127  -4.615  -5.596  0.00  0.00    -0.295 NA
ATOM     30  C   UNL     1      -0.683  -4.826  -6.982  0.00  0.00    +0.112 C 
ATOM     31  C   UNL     1       0.788  -4.421  -7.109  0.00  0.00    +0.175 C 
ATOM     32  O   UNL     1       1.566  -5.170  -6.172  0.00  0.00    -0.377 OA
ATOM     33  C   UNL     1       1.162  -4.988  -4.812  0.00  0.00    +0.175 C 
ATOM     34  C   UNL     1      -0.306  -5.399  -4.662  0.00  0.00    +0.112 C 
ENDBRANCH  28  29
ENDBRANCH  27  28
ENDBRANCH  26  27
ENDBRANCH   6  26
TORSDOF 9
