REMARK  Name = CHEMBL370934
REMARK  7 active torsions:
REMARK  status: ('A' for Active; 'I' for Inactive)
REMARK    1  A    between atoms: C_1  and  C_2
REMARK    2  A    between atoms: C_2  and  C_3
REMARK    3  A    between atoms: C_4  and  C_20
REMARK    4  A    between atoms: N_12  and  C_13
REMARK    5  A    between atoms: C_20  and  O_22
REMARK    6  A    between atoms: O_22  and  C_23
REMARK    7  A    between atoms: C_23  and  C_24
REMARK                            x       y       z     vdW  Elec       q    Type
REMARK                         _______ _______ _______ _____ _____    ______ ____
ROOT
ATOM      1  C   UNL     1      -1.357  -0.955  -0.084  0.00  0.00    -0.003 A 
ATOM      2  C   UNL     1      -2.113  -1.291   1.059  0.00  0.00    +0.082 A 
ATOM      3  C   UNL     1      -3.449  -1.111   0.734  0.00  0.00    +0.128 A 
ATOM      4  N   UNL     1      -3.530  -0.688  -0.535  0.00  0.00    -0.234 N 
ATOM      5  C   UNL     1      -2.254  -0.579  -1.057  0.00  0.00    +0.109 A 
ATOM      6  C   UNL     1      -2.108  -0.137  -2.396  0.00  0.00    +0.151 A 
ATOM      7  N   UNL     1      -3.188   0.158  -3.100  0.00  0.00    -0.217 NA
ATOM      8  C   UNL     1      -4.410   0.051  -2.581  0.00  0.00    +0.245 A 
ATOM      9  N   UNL     1      -4.616  -0.358  -1.360  0.00  0.00    -0.155 NA
ATOM     10  N   UNL     1      -0.853  -0.016  -2.958  0.00  0.00    -0.298 N 
ATOM     11  H   UNL     1      -0.062  -0.140  -2.411  0.00  0.00    +0.154 HD
ENDROOT
BRANCH  10  12
ATOM     12  C   UNL     1      -0.723   0.284  -4.317  0.00  0.00    +0.033 A 
ATOM     13  C   UNL     1      -1.824   0.195  -5.159  0.00  0.00    +0.023 A 
ATOM     14  C   UNL     1      -1.692   0.493  -6.501  0.00  0.00    +0.003 A 
ATOM     15  C   UNL     1      -0.465   0.880  -7.008  0.00  0.00    +0.015 A 
ATOM     16  C   UNL     1       0.634   0.970  -6.173  0.00  0.00    +0.020 A 
ATOM     17  C   UNL     1       0.507   0.679  -4.827  0.00  0.00    +0.038 A 
ATOM     18 BR   UNL     1       2.310   1.499  -6.870  0.00  0.00    -0.050 Br
ENDBRANCH  10  12
BRANCH   1  20
ATOM     19  C   UNL     1       0.717   0.395   0.081  0.00  0.00    +0.009 C 
ATOM     20  C   UNL     1       0.144  -0.994  -0.211  0.00  0.00    +0.035 C 
ENDBRANCH   1  20
BRANCH   2  21
ATOM     21  C   UNL     1      -1.583  -1.748   2.355  0.00  0.00    +0.341 C 
ATOM     22  O   UNL     1      -0.384  -1.865   2.513  0.00  0.00    -0.245 OA
BRANCH  21  23
ATOM     23  O   UNL     1      -2.427  -2.035   3.365  0.00  0.00    -0.461 OA
BRANCH  23  24
ATOM     24  C   UNL     1      -1.843  -2.473   4.594  0.00  0.00    +0.229 C 
ATOM     25  C   UNL     1      -2.949  -2.749   5.614  0.00  0.00    +0.048 C 
ENDBRANCH  23  24
ENDBRANCH  21  23
ENDBRANCH   2  21
TORSDOF 5
