REMARK  Name = CHEMBL166307
REMARK  7 active torsions:
REMARK  status: ('A' for Active; 'I' for Inactive)
REMARK    1  A    between atoms: C_1  and  N_2
REMARK    2  A    between atoms: N_5  and  N_8
REMARK    3  A    between atoms: N_8  and  C_9
REMARK    4  A    between atoms: C_9  and  C_10
REMARK    5  A    between atoms: C_10  and  C_11
REMARK    6  A    between atoms: C_11  and  N_12
REMARK    7  A    between atoms: N_23  and  C_24
REMARK                            x       y       z     vdW  Elec       q    Type
REMARK                         _______ _______ _______ _____ _____    ______ ____
ROOT
ATOM      1  N   UNL     1      -1.175  -7.969   4.188  0.00  0.00    -0.329 N 
ATOM      2  C   UNL     1      -1.889  -8.670   5.156  0.00  0.00    +0.119 A 
ATOM      3  C   UNL     1      -2.633  -7.969   6.090  0.00  0.00    +0.057 A 
ATOM      4  C   UNL     1      -3.341  -8.692   7.051  0.00  0.00    +0.045 A 
ATOM      5  C   UNL     1      -3.269 -10.109   7.031  0.00  0.00    +0.094 A 
ATOM      6  C   UNL     1      -2.489 -10.727   6.046  0.00  0.00    +0.141 A 
ATOM      7  N   UNL     1      -1.846  -9.998   5.162  0.00  0.00    -0.238 NA
ATOM      8  N   UNL     1      -3.951 -10.797   7.956  0.00  0.00    -0.234 NA
ATOM      9  C   UNL     1      -4.670 -10.179   8.861  0.00  0.00    +0.224 A 
ATOM     10  N   UNL     1      -4.784  -8.863   8.939  0.00  0.00    -0.220 NA
ATOM     11  C   UNL     1      -4.159  -8.063   8.084  0.00  0.00    +0.134 A 
ATOM     12  N   UNL     1      -4.278  -6.691   8.167  0.00  0.00    -0.299 N 
ATOM     13  H   UNL     1      -0.654  -8.450   3.526  0.00  0.00    +0.147 HD
ATOM     14  H   UNL     1      -3.882  -6.127   7.484  0.00  0.00    +0.154 HD
ENDROOT
BRANCH  12  15
ATOM     15  C   UNL     1      -4.969  -6.112   9.235  0.00  0.00    +0.033 A 
ATOM     16  C   UNL     1      -4.947  -6.716  10.487  0.00  0.00    +0.023 A 
ATOM     17  C   UNL     1      -5.630  -6.142  11.541  0.00  0.00    +0.003 A 
ATOM     18  C   UNL     1      -6.336  -4.968  11.353  0.00  0.00    +0.015 A 
ATOM     19  C   UNL     1      -6.361  -4.364  10.108  0.00  0.00    +0.020 A 
ATOM     20  C   UNL     1      -5.675  -4.931   9.050  0.00  0.00    +0.038 A 
ATOM     21 BR   UNL     1      -7.328  -2.760   9.855  0.00  0.00    -0.050 Br
ENDBRANCH  12  15
BRANCH   1  22
ATOM     22  C   UNL     1      -1.212  -6.505   4.168  0.00  0.00    +0.104 C 
BRANCH  22  23
ATOM     23  C   UNL     1      -0.350  -5.989   3.013  0.00  0.00    +0.035 C 
BRANCH  23  24
ATOM     24  C   UNL     1      -0.388  -4.459   2.992  0.00  0.00    +0.100 C 
BRANCH  24  25
ATOM     25  N   UNL     1       0.440  -3.964   1.884  0.00  0.00    -0.254 NA
ATOM     26  H   UNL     1       0.141  -4.359   1.005  0.00  0.00    +0.141 HD
BRANCH  25  31
ATOM     27  C   UNL     1       1.145   1.499   0.770  0.00  0.00    -0.096 C 
ATOM     28  N   UNL     1       1.193   0.030   0.778  0.00  0.00    +0.380 N 
ATOM     29  C   UNL     1      -0.158  -0.504   0.560  0.00  0.00    -0.062 C 
ATOM     30  C   UNL     1      -0.106  -2.034   0.550  0.00  0.00    +0.083 C 
ATOM     31  N   UNL     1       0.427  -2.511   1.834  0.00  0.00    -0.246 NA
ATOM     32  C   UNL     1       1.769  -1.964   2.078  0.00  0.00    +0.083 C 
ATOM     33  C   UNL     1       1.702  -0.435   2.075  0.00  0.00    -0.062 C 
ATOM     34  H   UNL     1       1.804  -0.290   0.043  0.00  0.00    -0.082 HD
ENDBRANCH  25  31
ENDBRANCH  24  25
ENDBRANCH  23  24
ENDBRANCH  22  23
ENDBRANCH   1  22
TORSDOF 6
