REMARK  Name = CHEMBL542891
REMARK  11 active torsions:
REMARK  status: ('A' for Active; 'I' for Inactive)
REMARK    1  A    between atoms: C_1  and  C_2
REMARK    2  A    between atoms: C_2  and  O_3
REMARK    3  A    between atoms: O_3  and  C_4
REMARK    4  A    between atoms: C_4  and  C_6
REMARK    5  A    between atoms: N_9  and  C_12
REMARK    6  A    between atoms: C_12  and  C_13
REMARK    7  A    between atoms: C_13  and  C_14
REMARK    8  A    between atoms: C_14  and  C_16
REMARK    9  A    between atoms: C_19  and  O_22
REMARK   10  A    between atoms: O_22  and  C_23
REMARK   11  A    between atoms: C_23  and  C_24
REMARK                            x       y       z     vdW  Elec       q    Type
REMARK                         _______ _______ _______ _____ _____    ______ ____
ROOT
ATOM      1  C   UNL     1      -7.269  -6.935   1.888  0.00  0.00    +0.164 C 
ATOM      2  O   UNL     1      -8.293  -6.287   1.832  0.00  0.00    -0.292 OA
ENDROOT
BRANCH   1   3
ATOM      3  C   UNL     1      -7.328  -8.382   2.128  0.00  0.00    +0.018 A 
ATOM      4  C   UNL     1      -6.147  -9.132   2.199  0.00  0.00    +0.015 A 
ATOM      5  C   UNL     1      -6.209 -10.483   2.424  0.00  0.00    +0.046 A 
ATOM      6  C   UNL     1      -7.440 -11.110   2.581  0.00  0.00    +0.121 A 
ATOM      7  C   UNL     1      -8.616 -10.370   2.511  0.00  0.00    +0.046 A 
ATOM      8  C   UNL     1      -8.566  -9.017   2.293  0.00  0.00    +0.015 A 
BRANCH   6   9
ATOM      9  O   UNL     1      -7.495 -12.447   2.803  0.00  0.00    -0.487 OA
BRANCH   9  10
ATOM     10  C   UNL     1      -8.793 -13.026   2.955  0.00  0.00    +0.264 C 
BRANCH  10  11
ATOM     11  C   UNL     1      -8.656 -14.508   3.192  0.00  0.00    -0.010 A 
ATOM     12  C   UNL     1      -8.640 -15.381   2.120  0.00  0.00    +0.007 A 
ATOM     13  C   UNL     1      -8.514 -16.740   2.338  0.00  0.00    +0.000 A 
ATOM     14  C   UNL     1      -8.405 -17.227   3.627  0.00  0.00    +0.000 A 
ATOM     15  C   UNL     1      -8.421 -16.354   4.699  0.00  0.00    +0.000 A 
ATOM     16  C   UNL     1      -8.542 -14.994   4.481  0.00  0.00    +0.007 A 
ENDBRANCH  10  11
ENDBRANCH   9  10
ENDBRANCH   6   9
ENDBRANCH   1   3
BRANCH   1  17
ATOM     17  C   UNL     1      -5.936  -6.254   1.712  0.00  0.00    +0.095 C 
BRANCH  17  18
ATOM     18  C   UNL     1      -6.154  -4.758   1.477  0.00  0.00    +0.092 C 
BRANCH  18  22
ATOM     19  C   UNL     1      -2.881  -2.427   0.017  0.00  0.00    +0.100 C 
ATOM     20  C   UNL     1      -3.621  -1.979   1.280  0.00  0.00    +0.030 C 
ATOM     21  C   UNL     1      -5.003  -2.634   1.315  0.00  0.00    +0.085 C 
ATOM     22  N   UNL     1      -4.854  -4.095   1.305  0.00  0.00    -0.302 NA
ATOM     23  C   UNL     1      -4.188  -4.553   0.079  0.00  0.00    +0.085 C 
ATOM     24  C   UNL     1      -2.781  -3.954   0.007  0.00  0.00    +0.030 C 
BRANCH  19  25
ATOM     25  C   UNL     1      -1.496  -1.832   0.006  0.00  0.00    +0.310 C 
ATOM     26  O   UNL     1      -0.528  -2.555  -0.007  0.00  0.00    -0.251 OA
BRANCH  25  27
ATOM     27  O   UNL     1      -1.339  -0.499   0.012  0.00  0.00    -0.465 OA
BRANCH  27  29
ATOM     28  C   UNL     1      -0.019   1.526   0.010  0.00  0.00    +0.048 C 
ATOM     29  C   UNL     1       0.002  -0.004   0.002  0.00  0.00    +0.229 C 
ENDBRANCH  27  29
ENDBRANCH  25  27
ENDBRANCH  19  25
ENDBRANCH  18  22
ENDBRANCH  17  18
ENDBRANCH   1  17
TORSDOF 10
