REMARK  Name = CHEMBL194349
REMARK  9 active torsions:
REMARK  status: ('A' for Active; 'I' for Inactive)
REMARK    1  A    between atoms: C_1  and  C_2
REMARK    2  A    between atoms: C_2  and  C_3
REMARK    3  A    between atoms: C_4  and  C_26
REMARK    4  A    between atoms: N_12  and  C_13
REMARK    5  A    between atoms: C_16  and  O_19
REMARK    6  A    between atoms: O_19  and  C_20
REMARK    7  A    between atoms: C_26  and  O_28
REMARK    8  A    between atoms: O_28  and  C_29
REMARK    9  A    between atoms: C_29  and  C_30
REMARK                            x       y       z     vdW  Elec       q    Type
REMARK                         _______ _______ _______ _____ _____    ______ ____
ROOT
ATOM      1  C   UNL     1      -1.420  -0.775  -0.047  0.00  0.00    -0.003 A 
ATOM      2  C   UNL     1      -2.186  -1.072   1.100  0.00  0.00    +0.082 A 
ATOM      3  C   UNL     1      -3.516  -0.867   0.768  0.00  0.00    +0.128 A 
ATOM      4  N   UNL     1      -3.586  -0.466  -0.509  0.00  0.00    -0.234 N 
ATOM      5  C   UNL     1      -2.306  -0.397  -1.030  0.00  0.00    +0.109 A 
ATOM      6  C   UNL     1      -2.147   0.015  -2.377  0.00  0.00    +0.151 A 
ATOM      7  N   UNL     1      -3.218   0.322  -3.088  0.00  0.00    -0.217 NA
ATOM      8  C   UNL     1      -4.444   0.254  -2.570  0.00  0.00    +0.245 A 
ATOM      9  N   UNL     1      -4.662  -0.125  -1.342  0.00  0.00    -0.155 NA
ATOM     10  N   UNL     1      -0.889   0.096  -2.938  0.00  0.00    -0.298 N 
ATOM     11  H   UNL     1      -0.102  -0.036  -2.387  0.00  0.00    +0.154 HD
ENDROOT
BRANCH  10  12
ATOM     12  C   UNL     1      -0.749   0.367  -4.304  0.00  0.00    +0.033 A 
ATOM     13  C   UNL     1      -1.851   0.286  -5.146  0.00  0.00    +0.027 A 
ATOM     14  C   UNL     1      -1.712   0.554  -6.493  0.00  0.00    +0.048 A 
ATOM     15  C   UNL     1      -0.471   0.904  -7.006  0.00  0.00    +0.129 A 
ATOM     16  C   UNL     1       0.630   0.985  -6.167  0.00  0.00    +0.048 A 
ATOM     17  C   UNL     1       0.491   0.723  -4.818  0.00  0.00    +0.027 A 
BRANCH  15  18
ATOM     18  O   UNL     1      -0.334   1.166  -8.334  0.00  0.00    -0.456 OA
BRANCH  18  19
ATOM     19  C   UNL     1      -1.411   0.965  -9.138  0.00  0.00    +0.128 A 
ATOM     20  C   UNL     1      -2.479   1.851  -9.105  0.00  0.00    +0.046 A 
ATOM     21  C   UNL     1      -3.572   1.644  -9.923  0.00  0.00    +0.004 A 
ATOM     22  C   UNL     1      -3.603   0.555 -10.775  0.00  0.00    +0.000 A 
ATOM     23  C   UNL     1      -2.540  -0.329 -10.810  0.00  0.00    +0.004 A 
ATOM     24  C   UNL     1      -1.442  -0.123  -9.998  0.00  0.00    +0.046 A 
ENDBRANCH  18  19
ENDBRANCH  15  18
ENDBRANCH  10  12
BRANCH   1  26
ATOM     25  C   UNL     1       0.687   0.519   0.134  0.00  0.00    +0.009 C 
ATOM     26  C   UNL     1       0.080  -0.852  -0.171  0.00  0.00    +0.035 C 
ENDBRANCH   1  26
BRANCH   2  27
ATOM     27  C   UNL     1      -1.668  -1.517   2.405  0.00  0.00    +0.341 C 
ATOM     28  O   UNL     1      -0.473  -1.660   2.568  0.00  0.00    -0.245 OA
BRANCH  27  29
ATOM     29  O   UNL     1      -2.521  -1.765   3.419  0.00  0.00    -0.461 OA
BRANCH  29  30
ATOM     30  C   UNL     1      -1.950  -2.193   4.657  0.00  0.00    +0.229 C 
ATOM     31  C   UNL     1      -3.064  -2.424   5.679  0.00  0.00    +0.048 C 
ENDBRANCH  29  30
ENDBRANCH  27  29
ENDBRANCH   2  27
TORSDOF 7
