REMARK  Name = CHEMBL592466
REMARK  9 active torsions:
REMARK  status: ('A' for Active; 'I' for Inactive)
REMARK    1  A    between atoms: C_4  and  N_7
REMARK    2  A    between atoms: N_7  and  C_8
REMARK    3  A    between atoms: C_8  and  N_10
REMARK    4  A    between atoms: N_10  and  C_11
REMARK    5  A    between atoms: N_10  and  C_19
REMARK    6  A    between atoms: C_11  and  C_12
REMARK    7  A    between atoms: C_15  and  O_18
REMARK    8  A    between atoms: C_19  and  C_20
REMARK    9  A    between atoms: C_25  and  O_26
REMARK                            x       y       z     vdW  Elec       q    Type
REMARK                         _______ _______ _______ _____ _____    ______ ____
ROOT
ATOM      1  N   UNL     1       4.822  -2.644   0.144  0.00  0.00    -0.304 N 
ENDROOT
BRANCH   1   2
ATOM      2  C   UNL     1       3.644  -1.995   0.058  0.00  0.00    +0.138 C 
ATOM      3  S   UNL     1       2.178  -2.877   0.068  0.00  0.00    -0.018 S 
BRANCH   2   4
ATOM      4  N   UNL     1       3.621  -0.650  -0.036  0.00  0.00    -0.297 N 
ATOM      5  H   UNL     1       4.451  -0.156  -0.123  0.00  0.00    +0.154 HD
BRANCH   4   9
ATOM      6  C   UNL     1      -0.014   1.382   0.045  0.00  0.00    +0.000 A 
ATOM      7  C   UNL     1       0.205   0.325   0.910  0.00  0.00    +0.002 A 
ATOM      8  C   UNL     1       1.409  -0.350   0.886  0.00  0.00    +0.023 A 
ATOM      9  C   UNL     1       2.400   0.032  -0.009  0.00  0.00    +0.033 A 
ATOM     10  C   UNL     1       2.177   1.093  -0.877  0.00  0.00    +0.023 A 
ATOM     11  C   UNL     1       0.970   1.765  -0.847  0.00  0.00    +0.002 A 
ENDBRANCH   4   9
ENDBRANCH   2   4
ENDBRANCH   1   2
BRANCH   1  12
ATOM     12  C   UNL     1       4.848  -4.105   0.247  0.00  0.00    +0.142 C 
BRANCH  12  13
ATOM     13  C   UNL     1       4.906  -4.705  -1.134  0.00  0.00    -0.030 A 
ATOM     14  C   UNL     1       3.735  -4.997  -1.810  0.00  0.00    +0.009 A 
ATOM     15  C   UNL     1       3.786  -5.548  -3.076  0.00  0.00    +0.046 A 
ATOM     16  C   UNL     1       5.013  -5.806  -3.670  0.00  0.00    +0.117 A 
ATOM     17  C   UNL     1       6.186  -5.511  -2.991  0.00  0.00    +0.046 A 
ATOM     18  C   UNL     1       6.130  -4.956  -1.727  0.00  0.00    +0.009 A 
BRANCH  16  19
ATOM     19  O   UNL     1       5.065  -6.347  -4.915  0.00  0.00    -0.507 OA
ATOM     20  H   UNL     1       5.080  -5.694  -5.628  0.00  0.00    +0.292 HD
ENDBRANCH  16  19
ENDBRANCH  12  13
ENDBRANCH   1  12
BRANCH   1  21
ATOM     21  C   UNL     1       6.077  -1.889   0.136  0.00  0.00    +0.146 C 
BRANCH  21  22
ATOM     22  C   UNL     1       6.458  -1.531   1.549  0.00  0.00    +0.013 A 
ATOM     23  C   UNL     1       6.192  -0.266   2.038  0.00  0.00    +0.009 A 
ATOM     24  C   UNL     1       6.540   0.063   3.335  0.00  0.00    +0.002 A 
ATOM     25  C   UNL     1       7.157  -0.872   4.146  0.00  0.00    +0.024 A 
ATOM     26  C   UNL     1       7.426  -2.138   3.662  0.00  0.00    +0.083 A 
ATOM     27  C   UNL     1       7.071  -2.473   2.362  0.00  0.00    +0.140 A 
ATOM     28 CL   UNL     1       8.199  -3.312   4.681  0.00  0.00    -0.080 Cl
BRANCH  27  29
ATOM     29  O   UNL     1       7.329  -3.719   1.885  0.00  0.00    -0.505 OA
ATOM     30  H   UNL     1       8.196  -3.808   1.465  0.00  0.00    +0.292 HD
ENDBRANCH  27  29
ENDBRANCH  21  22
ENDBRANCH   1  21
TORSDOF 9
