REMARK  Name = CHEMBL52882
REMARK  4 active torsions:
REMARK  status: ('A' for Active; 'I' for Inactive)
REMARK    1  A    between atoms: C_1  and  N_2
REMARK    2  A    between atoms: N_2  and  C_3
REMARK    3  A    between atoms: N_10  and  C_11
REMARK    4  A    between atoms: N_18  and  C_21
REMARK                            x       y       z     vdW  Elec       q    Type
REMARK                         _______ _______ _______ _____ _____    ______ ____
ROOT
ATOM      1  C   UNL     1      -1.731  -0.418   0.327  0.00  0.00    +0.094 C 
ATOM      2  C   UNL     1      -1.652  -1.704   0.785  0.00  0.00    +0.040 C 
ATOM      3  C   UNL     1      -2.936  -2.508   0.790  0.00  0.00    +0.126 C 
ATOM      4  C   UNL     1      -4.112  -1.847   0.090  0.00  0.00    +0.102 C 
ATOM      5  C   UNL     1      -3.998  -0.520  -0.272  0.00  0.00    +0.074 C 
ATOM      6  N   UNL     1      -2.860   0.124  -0.110  0.00  0.00    -0.353 N 
ATOM      7  C   UNL     1      -5.229  -2.662  -0.209  0.00  0.00    +0.118 C 
ATOM      8  N   UNL     1      -6.367  -2.184  -0.676  0.00  0.00    -0.236 NA
ATOM      9  N   UNL     1      -5.011  -4.032   0.038  0.00  0.00    -0.284 N 
ATOM     10  C   UNL     1      -3.738  -4.496  -0.250  0.00  0.00    +0.159 C 
ATOM     11  N   UNL     1      -2.710  -3.775   0.095  0.00  0.00    -0.371 N 
ATOM     12  C   UNL     1      -6.060  -4.908   0.565  0.00  0.00    +0.137 C 
ATOM     13  H   UNL     1      -2.846   1.068  -0.331  0.00  0.00    +0.166 HD
ATOM     14  H   UNL     1      -1.809  -4.074  -0.106  0.00  0.00    +0.161 HD
ENDROOT
BRANCH   8  15
ATOM     15  C   UNL     1      -7.342  -3.029  -1.070  0.00  0.00    +0.067 A 
ATOM     16  C   UNL     1      -8.621  -2.951  -0.493  0.00  0.00    +0.028 A 
ATOM     17  C   UNL     1      -9.610  -3.817  -0.902  0.00  0.00    +0.003 A 
ATOM     18  C   UNL     1      -9.348  -4.765  -1.879  0.00  0.00    +0.015 A 
ATOM     19  C   UNL     1      -8.089  -4.851  -2.454  0.00  0.00    +0.020 A 
ATOM     20  C   UNL     1      -7.087  -3.990  -2.062  0.00  0.00    +0.043 A 
ATOM     21 BR   UNL     1      -7.747  -6.151  -3.784  0.00  0.00    -0.050 Br
ENDBRANCH   8  15
BRANCH   1  23
ATOM     22  C   UNL     1      -0.625   1.743  -0.156  0.00  0.00    +0.126 C 
ATOM     23  N   UNL     1      -0.576   0.359   0.323  0.00  0.00    -0.334 N 
ATOM     24  H   UNL     1       0.262  -0.016   0.638  0.00  0.00    +0.147 HD
ENDBRANCH   1  23
TORSDOF 2
