REMARK  Name = CHEMBL371863
REMARK  8 active torsions:
REMARK  status: ('A' for Active; 'I' for Inactive)
REMARK    1  A    between atoms: C_1  and  C_2
REMARK    2  A    between atoms: C_2  and  C_3
REMARK    3  A    between atoms: C_4  and  C_20
REMARK    4  A    between atoms: N_12  and  C_13
REMARK    5  A    between atoms: C_13  and  C_14
REMARK    6  A    between atoms: C_20  and  O_22
REMARK    7  A    between atoms: O_22  and  C_23
REMARK    8  A    between atoms: C_23  and  C_24
REMARK                            x       y       z     vdW  Elec       q    Type
REMARK                         _______ _______ _______ _____ _____    ______ ____
ROOT
ATOM      1  C   UNL     1      -1.414  -0.519   0.013  0.00  0.00    -0.003 A 
ATOM      2  C   UNL     1      -2.161  -0.901   1.147  0.00  0.00    +0.082 A 
ATOM      3  C   UNL     1      -3.405  -1.317   0.698  0.00  0.00    +0.128 A 
ATOM      4  N   UNL     1      -3.440  -1.205  -0.637  0.00  0.00    -0.234 N 
ATOM      5  C   UNL     1      -2.227  -0.710  -1.081  0.00  0.00    +0.109 A 
ATOM      6  C   UNL     1      -2.048  -0.507  -2.472  0.00  0.00    +0.147 A 
ATOM      7  N   UNL     1      -3.040  -0.792  -3.298  0.00  0.00    -0.217 NA
ATOM      8  C   UNL     1      -4.204  -1.265  -2.855  0.00  0.00    +0.245 A 
ATOM      9  N   UNL     1      -4.433  -1.482  -1.590  0.00  0.00    -0.155 NA
ATOM     10  N   UNL     1      -0.854  -0.018  -2.958  0.00  0.00    -0.323 N 
ATOM     11  H   UNL     1      -0.105   0.118  -2.357  0.00  0.00    +0.148 HD
ENDROOT
BRANCH   1  13
ATOM     12  C   UNL     1       0.967  -1.149  -0.271  0.00  0.00    +0.009 C 
ATOM     13  C   UNL     1      -0.001   0.004   0.003  0.00  0.00    +0.035 C 
ENDBRANCH   1  13
BRANCH   2  14
ATOM     14  C   UNL     1      -1.705  -0.865   2.548  0.00  0.00    +0.341 C 
ATOM     15  O   UNL     1      -0.584  -0.477   2.812  0.00  0.00    -0.245 OA
BRANCH  14  16
ATOM     16  O   UNL     1      -2.531  -1.262   3.536  0.00  0.00    -0.461 OA
BRANCH  16  17
ATOM     17  C   UNL     1      -2.023  -1.201   4.870  0.00  0.00    +0.229 C 
ATOM     18  C   UNL     1      -3.095  -1.688   5.847  0.00  0.00    +0.048 C 
ENDBRANCH  16  17
ENDBRANCH  14  16
ENDBRANCH   2  14
BRANCH  10  19
ATOM     19  C   UNL     1      -0.716   0.295  -4.383  0.00  0.00    +0.138 C 
BRANCH  19  20
ATOM     20  C   UNL     1       0.675   0.808  -4.652  0.00  0.00    -0.030 A 
ATOM     21  C   UNL     1       0.942   2.162  -4.560  0.00  0.00    +0.005 A 
ATOM     22  C   UNL     1       2.218   2.633  -4.807  0.00  0.00    +0.000 A 
ATOM     23  C   UNL     1       3.227   1.751  -5.145  0.00  0.00    +0.000 A 
ATOM     24  C   UNL     1       2.961   0.398  -5.236  0.00  0.00    +0.000 A 
ATOM     25  C   UNL     1       1.686  -0.074  -4.985  0.00  0.00    +0.005 A 
ENDBRANCH  19  20
ENDBRANCH  10  19
TORSDOF 6
