REMARK  Name = CHEMBL345294
REMARK  1 active torsions:
REMARK  status: ('A' for Active; 'I' for Inactive)
REMARK    1  A    between atoms: C_3  and  N_8
REMARK                            x       y       z     vdW  Elec       q    Type
REMARK                         _______ _______ _______ _____ _____    ______ ____
ROOT
ATOM      1  N   UNL     1       3.583   2.124  -0.021  0.00  0.00    -0.298 N 
ATOM      2  C   UNL     1       4.791   1.450   0.068  0.00  0.00    +0.141 A 
ATOM      3  C   UNL     1       5.984   2.143   0.171  0.00  0.00    +0.078 A 
ATOM      4  C   UNL     1       7.218   1.462   0.263  0.00  0.00    +0.083 A 
ATOM      5  C   UNL     1       8.354   2.285   0.362  0.00  0.00    +0.036 A 
ATOM      6  C   UNL     1       8.220   3.625   0.365  0.00  0.00    +0.048 A 
ATOM      7  S   UNL     1       6.455   3.851   0.226  0.00  0.00    -0.092 S 
ATOM      8  N   UNL     1       7.142   0.108   0.242  0.00  0.00    -0.235 NA
ATOM      9  C   UNL     1       5.993  -0.509   0.144  0.00  0.00    +0.224 A 
ATOM     10  N   UNL     1       4.832   0.117   0.063  0.00  0.00    -0.219 NA
ATOM     11  H   UNL     1       3.571   3.091  -0.094  0.00  0.00    +0.154 HD
ENDROOT
BRANCH   1  14
ATOM     12  C   UNL     1       1.089  -0.467   0.742  0.00  0.00    +0.003 A 
ATOM     13  C   UNL     1       2.278   0.237   0.729  0.00  0.00    +0.023 A 
ATOM     14  C   UNL     1       2.381   1.410  -0.007  0.00  0.00    +0.033 A 
ATOM     15  C   UNL     1       1.288   1.872  -0.729  0.00  0.00    +0.038 A 
ATOM     16  C   UNL     1       0.102   1.164  -0.712  0.00  0.00    +0.020 A 
ATOM     17  C   UNL     1       0.002  -0.004   0.023  0.00  0.00    +0.015 A 
ATOM     18 BR   UNL     1      -1.387   1.792  -1.694  0.00  0.00    -0.050 Br
ENDBRANCH   1  14
TORSDOF 1
