REMARK  Name = CHEMBL300791
REMARK  8 active torsions:
REMARK  status: ('A' for Active; 'I' for Inactive)
REMARK    1  A    between atoms: C_1  and  N_2
REMARK    2  A    between atoms: N_5  and  C_8
REMARK    3  A    between atoms: C_8  and  C_9
REMARK    4  A    between atoms: C_9  and  O_10
REMARK    5  A    between atoms: O_10  and  C_11
REMARK    6  A    between atoms: C_16  and  O_17
REMARK    7  A    between atoms: O_17  and  C_18
REMARK    8  A    between atoms: N_23  and  C_24
REMARK                            x       y       z     vdW  Elec       q    Type
REMARK                         _______ _______ _______ _____ _____    ______ ____
ROOT
ATOM      1  C   UNL     1      -0.931  -5.024   4.837  0.00  0.00    +0.163 A 
ATOM      2  C   UNL     1       0.314  -5.536   5.066  0.00  0.00    +0.062 A 
ATOM      3  C   UNL     1       0.774  -5.680   6.381  0.00  0.00    +0.044 A 
ATOM      4  C   UNL     1      -0.053  -5.294   7.465  0.00  0.00    +0.080 A 
ATOM      5  C   UNL     1      -1.327  -4.771   7.207  0.00  0.00    +0.078 A 
ATOM      6  C   UNL     1      -1.753  -4.635   5.904  0.00  0.00    +0.164 A 
ATOM      7  N   UNL     1       0.411  -5.442   8.715  0.00  0.00    -0.235 NA
ATOM      8  C   UNL     1       1.609  -5.934   8.926  0.00  0.00    +0.223 A 
ATOM      9  N   UNL     1       2.416  -6.308   7.946  0.00  0.00    -0.220 NA
ATOM     10  C   UNL     1       2.055  -6.205   6.673  0.00  0.00    +0.134 A 
ATOM     11  N   UNL     1       2.907  -6.598   5.661  0.00  0.00    -0.299 N 
ATOM     12  H   UNL     1       2.666  -6.441   4.735  0.00  0.00    +0.154 HD
ENDROOT
BRANCH  11  13
ATOM     13  C   UNL     1       4.119  -7.225   5.971  0.00  0.00    +0.034 A 
ATOM     14  C   UNL     1       5.245  -6.984   5.194  0.00  0.00    +0.026 A 
ATOM     15  C   UNL     1       6.441  -7.604   5.502  0.00  0.00    +0.041 A 
ATOM     16  C   UNL     1       6.518  -8.465   6.583  0.00  0.00    +0.142 A 
ATOM     17  C   UNL     1       5.396  -8.707   7.360  0.00  0.00    +0.078 A 
ATOM     18  C   UNL     1       4.199  -8.084   7.059  0.00  0.00    +0.046 A 
ATOM     19 CL   UNL     1       5.495  -9.788   8.714  0.00  0.00    -0.081 Cl
ATOM     20  F   UNL     1       7.688  -9.070   6.882  0.00  0.00    -0.204 F 
ENDBRANCH  11  13
BRANCH   6  21
ATOM     21  O   UNL     1      -2.986  -4.123   5.651  0.00  0.00    -0.491 OA
ATOM     22  C   UNL     1      -3.776  -3.745   6.780  0.00  0.00    +0.277 C 
ENDBRANCH   6  21
BRANCH   1  23
ATOM     23  O   UNL     1      -1.376  -4.884   3.560  0.00  0.00    -0.487 OA
BRANCH  23  24
ATOM     24  C   UNL     1      -0.492  -5.298   2.516  0.00  0.00    +0.244 C 
BRANCH  24  25
ATOM     25  C   UNL     1      -1.162  -5.067   1.160  0.00  0.00    +0.125 C 
BRANCH  25  30
ATOM     26  C   UNL     1      -1.373   0.254  -0.681  0.00  0.00    -0.096 C 
ATOM     27  N   UNL     1      -1.149  -1.189  -0.523  0.00  0.00    +0.379 N 
ATOM     28  C   UNL     1      -2.441  -1.871  -0.369  0.00  0.00    -0.064 C 
ATOM     29  C   UNL     1      -2.209  -3.376  -0.223  0.00  0.00    +0.066 C 
ATOM     30  N   UNL     1      -1.361  -3.626   0.952  0.00  0.00    -0.303 NA
ATOM     31  C   UNL     1      -0.073  -2.929   0.824  0.00  0.00    +0.066 C 
ATOM     32  C   UNL     1      -0.323  -1.428   0.668  0.00  0.00    -0.064 C 
ATOM     33  H   UNL     1      -0.674  -1.547  -1.338  0.00  0.00    -0.082 HD
ENDBRANCH  25  30
ENDBRANCH  24  25
ENDBRANCH  23  24
ENDBRANCH   1  23
TORSDOF 6
