REMARK  Name = CHEMBL257859
REMARK  9 active torsions:
REMARK  status: ('A' for Active; 'I' for Inactive)
REMARK    1  A    between atoms: C_5  and  C_7
REMARK    2  A    between atoms: C_7  and  O_8
REMARK    3  A    between atoms: O_8  and  C_9
REMARK    4  A    between atoms: C_12  and  N_16
REMARK    5  A    between atoms: C_23  and  O_24
REMARK    6  A    between atoms: O_24  and  C_25
REMARK    7  A    between atoms: C_25  and  C_26
REMARK    8  A    between atoms: C_26  and  C_27
REMARK    9  A    between atoms: C_27  and  N_28
REMARK                            x       y       z     vdW  Elec       q    Type
REMARK                         _______ _______ _______ _____ _____    ______ ____
ROOT
ATOM      1  N   UNL     1      -0.691  -8.169  -0.040  0.00  0.00    -0.299 N 
ATOM      2  C   UNL     1      -1.951  -8.727   0.068  0.00  0.00    +0.141 A 
ATOM      3  C   UNL     1      -2.117 -10.119   0.174  0.00  0.00    +0.121 A 
ATOM      4  C   UNL     1      -3.423 -10.634   0.281  0.00  0.00    +0.164 A 
ATOM      5  N   UNL     1      -3.306 -11.988   0.368  0.00  0.00    -0.257 N 
ATOM      6  H   UNL     1      -4.045 -12.611   0.451  0.00  0.00    +0.191 HD
ATOM      7  N   UNL     1      -1.953 -12.340   0.317  0.00  0.00    -0.134 NA
ATOM      8  C   UNL     1      -1.217 -11.266   0.202  0.00  0.00    +0.246 A 
ATOM      9  N   UNL     1      -4.449  -9.782   0.279  0.00  0.00    -0.216 NA
ATOM     10  C   UNL     1      -4.245  -8.487   0.179  0.00  0.00    +0.225 A 
ATOM     11  N   UNL     1      -3.037  -7.960   0.081  0.00  0.00    -0.220 NA
ATOM     12  H   UNL     1       0.087  -8.742  -0.125  0.00  0.00    +0.154 HD
ENDROOT
BRANCH   1  16
ATOM     13  C   UNL     1      -0.235  -4.025   0.003  0.00  0.00    +0.139 A 
ATOM     14  C   UNL     1      -1.249  -4.619   0.740  0.00  0.00    +0.049 A 
ATOM     15  C   UNL     1      -1.401  -5.991   0.726  0.00  0.00    +0.027 A 
ATOM     16  C   UNL     1      -0.538  -6.778  -0.026  0.00  0.00    +0.034 A 
ATOM     17  C   UNL     1       0.477  -6.184  -0.765  0.00  0.00    +0.047 A 
ATOM     18  C   UNL     1       0.624  -4.810  -0.754  0.00  0.00    +0.084 A 
ATOM     19 CL   UNL     1       1.889  -4.065  -1.682  0.00  0.00    -0.080 Cl
BRANCH  13  20
ATOM     20  O   UNL     1      -0.087  -2.673   0.017  0.00  0.00    -0.484 OA
BRANCH  20  21
ATOM     21  C   UNL     1      -1.006  -1.928   0.817  0.00  0.00    +0.284 C 
BRANCH  21  26
ATOM     22  C   UNL     1       0.648   1.311  -0.175  0.00  0.00    +0.003 A 
ATOM     23  C   UNL     1      -0.143   2.200   0.537  0.00  0.00    +0.020 A 
ATOM     24  C   UNL     1      -1.180   1.711   1.309  0.00  0.00    +0.111 A 
ATOM     25  N   UNL     1      -1.420   0.416   1.373  0.00  0.00    -0.256 NA
ATOM     26  C   UNL     1      -0.690  -0.458   0.709  0.00  0.00    +0.078 A 
ATOM     27  C   UNL     1       0.364  -0.043  -0.083  0.00  0.00    +0.027 A 
ENDBRANCH  21  26
ENDBRANCH  20  21
ENDBRANCH  13  20
ENDBRANCH   1  16
BRANCH   8  28
ATOM     28  O   UNL     1       0.140 -11.226   0.124  0.00  0.00    -0.475 OA
BRANCH  28  29
ATOM     29  C   UNL     1       0.830 -12.476   0.171  0.00  0.00    +0.229 C 
BRANCH  29  30
ATOM     30  C   UNL     1       2.336 -12.232   0.070  0.00  0.00    +0.022 C 
BRANCH  30  31
ATOM     31  C   UNL     1       3.075 -13.570   0.121  0.00  0.00    -0.075 C 
BRANCH  31  32
ATOM     32  N   UNL     1       4.522 -13.335   0.024  0.00  0.00    +0.383 N 
ATOM     33  C   UNL     1       4.839 -12.768  -1.294  0.00  0.00    -0.050 C 
ATOM     34  C   UNL     1       6.347 -12.524  -1.392  0.00  0.00    +0.141 C 
ATOM     35  O   UNL     1       7.039 -13.755  -1.171  0.00  0.00    -0.383 OA
ATOM     36  C   UNL     1       6.745 -14.360   0.092  0.00  0.00    +0.141 C 
ATOM     37  C   UNL     1       5.237 -14.608   0.193  0.00  0.00    -0.050 C 
ATOM     38  H   UNL     1       4.807 -12.690   0.746  0.00  0.00    -0.082 HD
ENDBRANCH  31  32
ENDBRANCH  30  31
ENDBRANCH  29  30
ENDBRANCH  28  29
ENDBRANCH   8  28
TORSDOF 9
