REMARK  Name = CHEMBL122068
REMARK  2 active torsions:
REMARK  status: ('A' for Active; 'I' for Inactive)
REMARK    1  A    between atoms: C_3  and  N_8
REMARK    2  A    between atoms: N_8  and  C_9
REMARK                            x       y       z     vdW  Elec       q    Type
REMARK                         _______ _______ _______ _____ _____    ______ ____
ROOT
ATOM      1  C   UNL     1       4.788   1.452   0.068  0.00  0.00    +0.131 A 
ATOM      2  C   UNL     1       6.045   2.031   0.175  0.00  0.00    +0.100 A 
ATOM      3  C   UNL     1       6.550   3.349   0.229  0.00  0.00    +0.134 A 
ATOM      4  N   UNL     1       7.861   3.517   0.335  0.00  0.00    -0.199 NA
ATOM      5  C   UNL     1       8.704   2.490   0.393  0.00  0.00    +0.216 A 
ATOM      6  N   UNL     1       8.320   1.230   0.349  0.00  0.00    -0.193 NA
ATOM      7  C   UNL     1       7.011   0.922   0.241  0.00  0.00    +0.189 A 
ATOM      8  N   UNL     1       6.316  -0.192   0.174  0.00  0.00    -0.152 NA
ATOM      9  N   UNL     1       4.955   0.117   0.073  0.00  0.00    -0.261 N 
ATOM     10  H   UNL     1       4.239  -0.534   0.014  0.00  0.00    +0.190 HD
ATOM     11  N   UNL     1      10.056   2.758   0.503  0.00  0.00    -0.327 N 
ATOM     12  N   UNL     1       5.702   4.434   0.171  0.00  0.00    -0.342 N 
ATOM     13  H   UNL     1      10.367   3.676   0.537  0.00  0.00    +0.145 HD
ATOM     14  H   UNL     1      10.693   2.028   0.547  0.00  0.00    +0.145 HD
ATOM     15  H   UNL     1       4.745   4.297   0.092  0.00  0.00    +0.144 HD
ATOM     16  H   UNL     1       6.062   5.333   0.209  0.00  0.00    +0.144 HD
ENDROOT
BRANCH   1  17
ATOM     17  N   UNL     1       3.582   2.124  -0.021  0.00  0.00    -0.299 N 
ATOM     18  H   UNL     1       3.558   3.090   0.068  0.00  0.00    +0.154 HD
BRANCH  17  21
ATOM     19  C   UNL     1       0.046   1.132   0.128  0.00  0.00    +0.003 A 
ATOM     20  C   UNL     1       1.214   1.837   0.346  0.00  0.00    +0.023 A 
ATOM     21  C   UNL     1       2.400   1.412  -0.239  0.00  0.00    +0.034 A 
ATOM     22  C   UNL     1       2.408   0.279  -1.043  0.00  0.00    +0.043 A 
ATOM     23  C   UNL     1       1.236  -0.422  -1.257  0.00  0.00    +0.043 A 
ATOM     24  C   UNL     1       0.057   0.004  -0.671  0.00  0.00    +0.020 A 
ATOM     25 CL   UNL     1       1.244  -1.839  -2.261  0.00  0.00    -0.083 Cl
ENDBRANCH  17  21
ENDBRANCH   1  17
TORSDOF 2
