REMARK  Name = CHEMBL489897
REMARK  8 active torsions:
REMARK  status: ('A' for Active; 'I' for Inactive)
REMARK    1  A    between atoms: C_2  and  C_3
REMARK    2  A    between atoms: C_7  and  O_25
REMARK    3  A    between atoms: C_12  and  C_16
REMARK    4  A    between atoms: C_16  and  C_17
REMARK    5  A    between atoms: O_25  and  C_26
REMARK    6  A    between atoms: C_26  and  C_27
REMARK    7  A    between atoms: C_27  and  C_28
REMARK    8  A    between atoms: C_28  and  N_29
REMARK                            x       y       z     vdW  Elec       q    Type
REMARK                         _______ _______ _______ _____ _____    ______ ____
ROOT
ATOM      1  C   UNL     1       1.285  -0.722  -0.014  0.00  0.00    +0.242 C 
ATOM      2  O   UNL     1       2.330  -0.100  -0.021  0.00  0.00    -0.270 OA
ATOM      3  N   UNL     1       1.304  -2.070  -0.021  0.00  0.00    -0.264 N 
ATOM      4  C   UNL     1       2.517  -2.748  -0.037  0.00  0.00    +0.168 A 
ATOM      5  C   UNL     1       2.519  -4.157  -0.050  0.00  0.00    +0.162 A 
ATOM      6  C   UNL     1       3.705  -4.837  -0.066  0.00  0.00    +0.079 A 
ATOM      7  C   UNL     1       4.898  -4.090  -0.068  0.00  0.00    +0.096 A 
ATOM      8  C   UNL     1       4.825  -2.674  -0.054  0.00  0.00    +0.113 A 
ATOM      9  N   UNL     1       3.639  -2.061  -0.044  0.00  0.00    -0.225 NA
ATOM     10  C   UNL     1       6.032  -1.952  -0.056  0.00  0.00    +0.075 A 
ATOM     11  N   UNL     1       7.166  -2.623  -0.072  0.00  0.00    -0.238 NA
ATOM     12  C   UNL     1       7.191  -3.947  -0.085  0.00  0.00    +0.222 A 
ATOM     13  N   UNL     1       6.099  -4.676  -0.083  0.00  0.00    -0.234 NA
ATOM     14  H   UNL     1       0.470  -2.566  -0.016  0.00  0.00    +0.157 HD
ENDROOT
BRANCH   1  16
ATOM     15  C   UNL     1      -0.016   1.326   0.009  0.00  0.00    +0.013 C 
ATOM     16  C   UNL     1       0.002  -0.004   0.002  0.00  0.00    +0.060 C 
ENDBRANCH   1  16
BRANCH  10  17
ATOM     17  C   UNL     1       6.029  -0.445  -0.043  0.00  0.00    +0.093 C 
BRANCH  17  18
ATOM     18  C   UNL     1       6.039   0.044   1.383  0.00  0.00    -0.040 A 
ATOM     19  C   UNL     1       4.846   0.260   2.047  0.00  0.00    +0.007 A 
ATOM     20  C   UNL     1       4.853   0.709   3.354  0.00  0.00    +0.040 A 
ATOM     21  C   UNL     1       6.056   0.942   3.999  0.00  0.00    +0.142 A 
ATOM     22  C   UNL     1       7.251   0.725   3.333  0.00  0.00    +0.076 A 
ATOM     23  C   UNL     1       7.241   0.271   2.026  0.00  0.00    +0.027 A 
ATOM     24 CL   UNL     1       8.760   1.016   4.140  0.00  0.00    -0.081 Cl
ATOM     25  F   UNL     1       6.064   1.380   5.277  0.00  0.00    -0.204 F 
ENDBRANCH  17  18
ENDBRANCH  10  17
BRANCH   5  26
ATOM     26  O   UNL     1       1.344  -4.839  -0.047  0.00  0.00    -0.488 OA
BRANCH  26  27
ATOM     27  C   UNL     1       1.422  -6.266  -0.061  0.00  0.00    +0.230 C 
BRANCH  27  28
ATOM     28  C   UNL     1       0.010  -6.854  -0.056  0.00  0.00    +0.056 C 
BRANCH  28  29
ATOM     29  C   UNL     1       0.093  -8.382  -0.071  0.00  0.00    +0.088 C 
BRANCH  29  30
ATOM     30  N   UNL     1      -1.263  -8.947  -0.066  0.00  0.00    -0.298 NA
ATOM     31  C   UNL     1      -1.951  -8.653   1.200  0.00  0.00    +0.112 C 
ATOM     32  C   UNL     1      -3.377  -9.206   1.140  0.00  0.00    +0.175 C 
ATOM     33  O   UNL     1      -3.328 -10.608   0.863  0.00  0.00    -0.377 OA
ATOM     34  C   UNL     1      -2.665 -10.930  -0.363  0.00  0.00    +0.175 C 
ATOM     35  C   UNL     1      -1.232 -10.395  -0.318  0.00  0.00    +0.112 C 
ENDBRANCH  29  30
ENDBRANCH  28  29
ENDBRANCH  27  28
ENDBRANCH  26  27
ENDBRANCH   5  26
TORSDOF 8
