REMARK  Name = CHEMBL120069
REMARK  3 active torsions:
REMARK  status: ('A' for Active; 'I' for Inactive)
REMARK    1  A    between atoms: C_1  and  C_2
REMARK    2  A    between atoms: C_6  and  N_8
REMARK    3  A    between atoms: N_18  and  C_19
REMARK                            x       y       z     vdW  Elec       q    Type
REMARK                         _______ _______ _______ _____ _____    ______ ____
ROOT
ATOM      1  N   UNL     1       0.134  -2.821   2.393  0.00  0.00    -0.299 N 
ATOM      2  C   UNL     1      -0.041  -4.192   2.388  0.00  0.00    +0.139 A 
ATOM      3  C   UNL     1      -0.206  -4.901   3.589  0.00  0.00    +0.100 A 
ATOM      4  C   UNL     1      -0.247  -4.543   5.004  0.00  0.00    +0.157 A 
ATOM      5  N   UNL     1      -0.431  -5.646   5.683  0.00  0.00    -0.156 NA
ATOM      6  N   UNL     1      -0.517  -6.735   4.810  0.00  0.00    -0.258 N 
ATOM      7  C   UNL     1      -0.382  -6.298   3.527  0.00  0.00    +0.163 A 
ATOM      8  N   UNL     1      -0.385  -6.889   2.332  0.00  0.00    -0.216 NA
ATOM      9  C   UNL     1      -0.227  -6.183   1.234  0.00  0.00    +0.225 A 
ATOM     10  N   UNL     1      -0.064  -4.871   1.246  0.00  0.00    -0.220 NA
ATOM     11  N   UNL     1      -0.114  -3.257   5.535  0.00  0.00    -0.297 N 
ATOM     12  H   UNL     1       0.223  -2.346   3.235  0.00  0.00    +0.154 HD
ATOM     13  H   UNL     1      -0.061  -2.491   4.942  0.00  0.00    +0.154 HD
ATOM     14  H   UNL     1      -0.652  -7.658   5.076  0.00  0.00    +0.191 HD
ENDROOT
BRANCH   1  20
ATOM     15  C   UNL     1      -1.313  -2.328  -2.278  0.00  0.00    +0.044 C 
ATOM     16  C   UNL     1      -0.507  -1.856  -1.095  0.00  0.00    -0.049 A 
ATOM     17  C   UNL     1       0.283  -0.726  -1.204  0.00  0.00    +0.003 A 
ATOM     18  C   UNL     1       1.024  -0.291  -0.120  0.00  0.00    +0.002 A 
ATOM     19  C   UNL     1       0.977  -0.983   1.074  0.00  0.00    +0.023 A 
ATOM     20  C   UNL     1       0.184  -2.118   1.186  0.00  0.00    +0.033 A 
ATOM     21  C   UNL     1      -0.564  -2.549   0.098  0.00  0.00    +0.026 A 
ENDBRANCH   1  20
BRANCH  11  22
ATOM     22  C   UNL     1      -0.057  -3.076   6.918  0.00  0.00    +0.034 A 
ATOM     23  C   UNL     1       0.457  -4.079   7.732  0.00  0.00    +0.023 A 
ATOM     24  C   UNL     1       0.513  -3.896   9.099  0.00  0.00    +0.003 A 
ATOM     25  C   UNL     1       0.057  -2.717   9.661  0.00  0.00    +0.020 A 
ATOM     26  C   UNL     1      -0.456  -1.717   8.854  0.00  0.00    +0.043 A 
ATOM     27  C   UNL     1      -0.509  -1.891   7.484  0.00  0.00    +0.043 A 
ATOM     28 CL   UNL     1      -1.028  -0.239   9.564  0.00  0.00    -0.083 Cl
ENDBRANCH  11  22
TORSDOF 2
