REMARK  Name = CHEMBL178265
REMARK  14 active torsions:
REMARK  status: ('A' for Active; 'I' for Inactive)
REMARK    1  A    between atoms: C_1  and  C_2
REMARK    2  A    between atoms: C_2  and  O_3
REMARK    3  A    between atoms: O_3  and  C_4
REMARK    4  A    between atoms: C_9  and  N_10
REMARK    5  A    between atoms: C_11  and  C_13
REMARK    6  A    between atoms: C_14  and  C_15
REMARK    7  A    between atoms: C_15  and  N_16
REMARK    8  A    between atoms: N_16  and  C_17
REMARK    9  A    between atoms: N_16  and  C_18
REMARK   10  A    between atoms: C_19  and  N_25
REMARK   11  A    between atoms: C_20  and  C_23
REMARK   12  A    between atoms: N_25  and  C_26
REMARK   13  A    between atoms: C_29  and  O_33
REMARK   14  A    between atoms: O_33  and  C_34
REMARK                            x       y       z     vdW  Elec       q    Type
REMARK                         _______ _______ _______ _____ _____    ______ ____
ROOT
ATOM      1  C   UNL     1       1.825  -3.944   1.409  0.00  0.00    +0.144 A 
ATOM      2  C   UNL     1       0.522  -4.091   0.991  0.00  0.00    +0.076 A 
ATOM      3  C   UNL     1       0.240  -4.818  -0.175  0.00  0.00    +0.076 A 
ATOM      4  C   UNL     1       1.306  -5.393  -0.909  0.00  0.00    +0.025 A 
ATOM      5  C   UNL     1       2.627  -5.232  -0.467  0.00  0.00    +0.039 A 
ATOM      6  C   UNL     1       2.880  -4.510   0.678  0.00  0.00    +0.077 A 
ATOM      7  C   UNL     1       1.016  -6.125  -2.084  0.00  0.00    +0.060 A 
ATOM      8  C   UNL     1      -0.330  -6.244  -2.465  0.00  0.00    +0.091 A 
ATOM      9  C   UNL     1      -1.323  -5.641  -1.677  0.00  0.00    +0.132 A 
ATOM     10  N   UNL     1      -1.026  -4.969  -0.594  0.00  0.00    -0.253 NA
ENDROOT
BRANCH   6  11
ATOM     11  N   UNL     1       4.199  -4.343   1.117  0.00  0.00    -0.279 N 
ATOM     12  C   UNL     1       5.117  -5.298   0.870  0.00  0.00    +0.241 C 
ATOM     13  O   UNL     1       4.821  -6.267   0.198  0.00  0.00    -0.271 OA
ATOM     14  H   UNL     1       4.451  -3.541   1.600  0.00  0.00    +0.155 HD
BRANCH  12  15
ATOM     15  C   UNL     1       6.478  -5.168   1.413  0.00  0.00    +0.061 C 
ATOM     16  C   UNL     1       7.385  -6.110   1.169  0.00  0.00    -0.040 C 
BRANCH  16  17
ATOM     17  C   UNL     1       8.779  -5.976   1.726  0.00  0.00    -0.052 C 
BRANCH  17  18
ATOM     18  N   UNL     1       9.111  -7.176   2.506  0.00  0.00    +0.378 N 
ATOM     19  C   UNL     1       9.158  -8.343   1.615  0.00  0.00    -0.096 C 
ATOM     20  C   UNL     1      10.421  -6.995   3.147  0.00  0.00    -0.096 C 
ATOM     21  H   UNL     1       8.407  -7.322   3.215  0.00  0.00    -0.082 HD
ENDBRANCH  17  18
ENDBRANCH  16  17
ENDBRANCH  12  15
ENDBRANCH   6  11
BRANCH   8  22
ATOM     22  C   UNL     1      -0.686  -6.973  -3.645  0.00  0.00    +0.103 C 
ATOM     23  N   UNL     1      -0.968  -7.551  -4.581  0.00  0.00    -0.191 NA
ENDBRANCH   8  22
BRANCH   7  24
ATOM     24  N   UNL     1       2.022  -6.703  -2.831  0.00  0.00    -0.313 N 
ATOM     25  H   UNL     1       2.552  -6.158  -3.434  0.00  0.00    +0.152 HD
BRANCH  24  26
ATOM     26  C   UNL     1       2.278  -8.073  -2.719  0.00  0.00    +0.033 A 
ATOM     27  C   UNL     1       1.880  -8.764  -1.581  0.00  0.00    +0.027 A 
ATOM     28  C   UNL     1       2.132 -10.117  -1.470  0.00  0.00    +0.049 A 
ATOM     29  C   UNL     1       2.784 -10.787  -2.495  0.00  0.00    +0.147 A 
ATOM     30  C   UNL     1       3.183 -10.099  -3.633  0.00  0.00    +0.085 A 
ATOM     31  C   UNL     1       2.925  -8.746  -3.747  0.00  0.00    +0.047 A 
ATOM     32 CL   UNL     1       3.999 -10.938  -4.914  0.00  0.00    -0.080 Cl
BRANCH  29  33
ATOM     33  O   UNL     1       3.032 -12.120  -2.385  0.00  0.00    -0.454 OA
BRANCH  33  34
ATOM     34  C   UNL     1       2.604 -12.758  -1.266  0.00  0.00    +0.131 A 
ATOM     35  C   UNL     1       1.263 -13.100  -1.108  0.00  0.00    +0.066 A 
ATOM     36  C   UNL     1       0.868 -13.748   0.044  0.00  0.00    +0.114 A 
ATOM     37  N   UNL     1       1.742 -14.043   0.988  0.00  0.00    -0.263 NA
ATOM     38  C   UNL     1       3.020 -13.736   0.874  0.00  0.00    +0.114 A 
ATOM     39  C   UNL     1       3.495 -13.092  -0.250  0.00  0.00    +0.066 A 
ENDBRANCH  33  34
ENDBRANCH  29  33
ENDBRANCH  24  26
ENDBRANCH   7  24
BRANCH   1  40
ATOM     40  O   UNL     1       2.092  -3.238   2.539  0.00  0.00    -0.490 OA
BRANCH  40  42
ATOM     41  C   UNL     1       1.470  -1.933   4.475  0.00  0.00    +0.048 C 
ATOM     42  C   UNL     1       0.975  -2.687   3.239  0.00  0.00    +0.226 C 
ENDBRANCH  40  42
ENDBRANCH   1  40
TORSDOF 11
