REMARK  Name = CHEMBL24138
REMARK  7 active torsions:
REMARK  status: ('A' for Active; 'I' for Inactive)
REMARK    1  A    between atoms: C_1  and  N_2
REMARK    2  A    between atoms: C_6  and  C_8
REMARK    3  A    between atoms: C_8  and  O_9
REMARK    4  A    between atoms: O_9  and  C_10
REMARK    5  A    between atoms: C_15  and  O_16
REMARK    6  A    between atoms: O_16  and  C_17
REMARK    7  A    between atoms: N_22  and  C_23
REMARK                            x       y       z     vdW  Elec       q    Type
REMARK                         _______ _______ _______ _____ _____    ______ ____
ROOT
ATOM      1  C   UNL     1       1.464  -4.843   3.838  0.00  0.00    +0.164 A 
ATOM      2  C   UNL     1       1.820  -4.113   4.950  0.00  0.00    +0.078 A 
ATOM      3  C   UNL     1       2.693  -4.672   5.891  0.00  0.00    +0.080 A 
ATOM      4  C   UNL     1       3.196  -5.980   5.684  0.00  0.00    +0.044 A 
ATOM      5  C   UNL     1       2.818  -6.701   4.545  0.00  0.00    +0.062 A 
ATOM      6  C   UNL     1       1.961  -6.138   3.642  0.00  0.00    +0.162 A 
ATOM      7  C   UNL     1       4.076  -6.519   6.653  0.00  0.00    +0.134 A 
ATOM      8  N   UNL     1       4.384  -5.771   7.705  0.00  0.00    -0.220 NA
ATOM      9  C   UNL     1       3.889  -4.553   7.857  0.00  0.00    +0.223 A 
ATOM     10  N   UNL     1       3.071  -4.003   6.992  0.00  0.00    -0.235 NA
ATOM     11  N   UNL     1       4.598  -7.787   6.508  0.00  0.00    -0.297 N 
ATOM     12  H   UNL     1       4.441  -8.287   5.691  0.00  0.00    +0.154 HD
ENDROOT
BRANCH  11  13
ATOM     13  C   UNL     1       5.356  -8.354   7.540  0.00  0.00    +0.068 A 
ATOM     14  C   UNL     1       5.268  -7.845   8.828  0.00  0.00    +0.027 A 
ATOM     15  C   UNL     1       6.017  -8.406   9.845  0.00  0.00    +0.022 A 
ATOM     16  C   UNL     1       6.854  -9.476   9.581  0.00  0.00    +0.044 A 
ATOM     17  C   UNL     1       6.944  -9.987   8.298  0.00  0.00    +0.060 A 
ATOM     18  C   UNL     1       6.194  -9.433   7.277  0.00  0.00    +0.146 A 
ATOM     19  F   UNL     1       6.278  -9.936   6.026  0.00  0.00    -0.203 F 
ATOM     20 CL   UNL     1       7.793 -10.177  10.861  0.00  0.00    -0.083 Cl
ENDBRANCH  11  13
BRANCH   6  21
ATOM     21  O   UNL     1       1.590  -6.841   2.539  0.00  0.00    -0.491 OA
ATOM     22  C   UNL     1       2.130  -8.157   2.396  0.00  0.00    +0.277 C 
ENDBRANCH   6  21
BRANCH   1  23
ATOM     23  O   UNL     1       0.616  -4.303   2.923  0.00  0.00    -0.488 OA
BRANCH  23  24
ATOM     24  C   UNL     1       0.144  -2.979   3.179  0.00  0.00    +0.231 C 
BRANCH  24  30
ATOM     25  C   UNL     1      -2.433   0.756   1.340  0.00  0.00    -0.096 C 
ATOM     26  N   UNL     1      -2.103  -0.666   1.177  0.00  0.00    +0.378 N 
ATOM     27  C   UNL     1      -3.336  -1.462   1.218  0.00  0.00    -0.079 C 
ATOM     28  C   UNL     1      -3.006  -2.934   0.968  0.00  0.00    -0.018 C 
ATOM     29  C   UNL     1      -2.042  -3.427   2.051  0.00  0.00    +0.003 C 
ATOM     30  C   UNL     1      -0.791  -2.544   2.048  0.00  0.00    +0.010 C 
ATOM     31  C   UNL     1      -1.203  -1.085   2.259  0.00  0.00    -0.072 C 
ATOM     32  H   UNL     1      -1.645  -0.804   0.288  0.00  0.00    -0.082 HD
ENDBRANCH  24  30
ENDBRANCH  23  24
ENDBRANCH   1  23
TORSDOF 5
