REMARK  Name = CHEMBL483321
REMARK  11 active torsions:
REMARK  status: ('A' for Active; 'I' for Inactive)
REMARK    1  A    between atoms: C_1  and  C_2
REMARK    2  A    between atoms: C_5  and  O_8
REMARK    3  A    between atoms: O_8  and  C_9
REMARK    4  A    between atoms: C_12  and  N_16
REMARK    5  A    between atoms: C_14  and  C_15
REMARK    6  A    between atoms: C_20  and  C_27
REMARK    7  A    between atoms: C_28  and  C_29
REMARK    8  A    between atoms: C_29  and  N_30
REMARK    9  A    between atoms: C_31  and  C_33
REMARK   10  A    between atoms: C_33  and  O_34
REMARK   11  A    between atoms: O_34  and  C_35
REMARK                            x       y       z     vdW  Elec       q    Type
REMARK                         _______ _______ _______ _____ _____    ______ ____
ROOT
ATOM      1  N   UNL     1       0.481  -6.680   4.933  0.00  0.00    -0.299 N 
ATOM      2  C   UNL     1       0.361  -5.968   6.107  0.00  0.00    +0.134 A 
ATOM      3  C   UNL     1       0.367  -6.628   7.362  0.00  0.00    +0.041 A 
ATOM      4  C   UNL     1       0.494  -8.015   7.468  0.00  0.00    +0.021 A 
ATOM      5  C   UNL     1       0.494  -8.602   8.725  0.00  0.00    -0.024 A 
ATOM      6  C   UNL     1       0.368  -7.812   9.880  0.00  0.00    +0.010 A 
ATOM      7  C   UNL     1       0.244  -6.461   9.791  0.00  0.00    +0.029 A 
ATOM      8  C   UNL     1       0.241  -5.840   8.533  0.00  0.00    +0.076 A 
ATOM      9  N   UNL     1       0.121  -4.510   8.403  0.00  0.00    -0.235 NA
ATOM     10  C   UNL     1       0.121  -3.954   7.215  0.00  0.00    +0.223 A 
ATOM     11  N   UNL     1       0.242  -4.647   6.094  0.00  0.00    -0.220 NA
ATOM     12  H   UNL     1       0.618  -7.640   4.959  0.00  0.00    +0.154 HD
ENDROOT
BRANCH   1  16
ATOM     13  C   UNL     1       0.258  -4.708   1.267  0.00  0.00    +0.132 A 
ATOM     14  C   UNL     1       0.848  -4.083   2.356  0.00  0.00    +0.048 A 
ATOM     15  C   UNL     1       0.923  -4.735   3.570  0.00  0.00    +0.027 A 
ATOM     16  C   UNL     1       0.406  -6.018   3.702  0.00  0.00    +0.033 A 
ATOM     17  C   UNL     1      -0.186  -6.643   2.612  0.00  0.00    +0.030 A 
ATOM     18  C   UNL     1      -0.264  -5.987   1.399  0.00  0.00    -0.006 A 
ATOM     19  C   UNL     1      -0.910  -6.662   0.217  0.00  0.00    +0.047 C 
BRANCH  13  20
ATOM     20  O   UNL     1       0.185  -4.064   0.071  0.00  0.00    -0.454 OA
BRANCH  20  25
ATOM     21  C   UNL     1       2.659   0.919  -0.435  0.00  0.00    +0.065 C 
ATOM     22  C   UNL     1       2.014  -0.436  -0.297  0.00  0.00    +0.038 A 
ATOM     23  C   UNL     1       2.808  -1.558  -0.149  0.00  0.00    +0.026 A 
ATOM     24  C   UNL     1       2.208  -2.800  -0.022  0.00  0.00    +0.049 A 
ATOM     25  C   UNL     1       0.818  -2.868  -0.049  0.00  0.00    +0.146 A 
ATOM     26  C   UNL     1       0.089  -1.698  -0.200  0.00  0.00    +0.157 A 
ATOM     27  N   UNL     1       0.699  -0.535  -0.312  0.00  0.00    -0.257 NA
ENDBRANCH  20  25
ENDBRANCH  13  20
ENDBRANCH   1  16
BRANCH   5  28
ATOM     28  C   UNL     1       0.628 -10.069   8.850  0.00  0.00    +0.005 C 
ATOM     29  C   UNL     1       0.629 -10.635  10.049  0.00  0.00    -0.008 C 
BRANCH  29  30
ATOM     30  C   UNL     1       0.765 -12.130  10.176  0.00  0.00    +0.131 C 
BRANCH  30  31
ATOM     31  N   UNL     1       1.893 -12.444  11.056  0.00  0.00    -0.310 N 
ATOM     32  C   UNL     1       2.207 -13.729  11.317  0.00  0.00    +0.239 C 
ATOM     33  O   UNL     1       1.554 -14.625  10.824  0.00  0.00    -0.273 OA
ATOM     34  H   UNL     1       2.415 -11.728  11.450  0.00  0.00    +0.149 HD
BRANCH  32  35
ATOM     35  C   UNL     1       3.368 -14.052  12.222  0.00  0.00    +0.255 C 
BRANCH  35  36
ATOM     36  O   UNL     1       3.497 -15.470  12.343  0.00  0.00    -0.374 OA
ATOM     37  C   UNL     1       4.574 -15.886  13.185  0.00  0.00    +0.194 C 
ENDBRANCH  35  36
ENDBRANCH  32  35
ENDBRANCH  30  31
ENDBRANCH  29  30
ENDBRANCH   5  28
TORSDOF 8
