REMARK  Name = CHEMBL474524
REMARK  8 active torsions:
REMARK  status: ('A' for Active; 'I' for Inactive)
REMARK    1  A    between atoms: C_1  and  O_2
REMARK    2  A    between atoms: O_2  and  C_3
REMARK    3  A    between atoms: C_8  and  O_9
REMARK    4  A    between atoms: O_9  and  C_10
REMARK    5  A    between atoms: C_10  and  C_11
REMARK    6  A    between atoms: C_11  and  C_12
REMARK    7  A    between atoms: C_12  and  N_13
REMARK    8  A    between atoms: C_19  and  C_23
REMARK                            x       y       z     vdW  Elec       q    Type
REMARK                         _______ _______ _______ _____ _____    ______ ____
ROOT
ATOM      1  C   UNL     1       1.069  -0.600  -0.835  0.00  0.00    +0.164 A 
ATOM      2  C   UNL     1       1.471   0.168  -1.905  0.00  0.00    +0.077 A 
ATOM      3  C   UNL     1       1.938  -0.459  -3.067  0.00  0.00    +0.078 A 
ATOM      4  C   UNL     1       1.989  -1.874  -3.123  0.00  0.00    +0.030 A 
ATOM      5  C   UNL     1       1.575  -2.631  -2.022  0.00  0.00    +0.061 A 
ATOM      6  C   UNL     1       1.128  -2.000  -0.896  0.00  0.00    +0.163 A 
ATOM      7  C   UNL     1       2.467  -2.479  -4.313  0.00  0.00    +0.084 A 
ATOM      8  N   UNL     1       2.842  -1.686  -5.314  0.00  0.00    -0.235 NA
ATOM      9  C   UNL     1       2.775  -0.369  -5.213  0.00  0.00    +0.222 A 
ATOM     10  N   UNL     1       2.341   0.244  -4.137  0.00  0.00    -0.235 NA
ENDROOT
BRANCH   7  11
ATOM     11  C   UNL     1       2.547  -3.946  -4.438  0.00  0.00    +0.026 A 
ATOM     12  C   UNL     1       1.570  -4.843  -4.136  0.00  0.00    +0.093 A 
ATOM     13  N   UNL     1       2.013  -6.105  -4.381  0.00  0.00    -0.360 N 
ATOM     14  H   UNL     1       1.492  -6.912  -4.242  0.00  0.00    +0.165 HD
ATOM     15  C   UNL     1       3.307  -6.075  -4.857  0.00  0.00    +0.050 A 
ATOM     16  C   UNL     1       3.700  -4.728  -4.921  0.00  0.00    +0.010 A 
ATOM     17  C   UNL     1       4.973  -4.391  -5.375  0.00  0.00    +0.033 A 
ATOM     18  C   UNL     1       5.844  -5.386  -5.766  0.00  0.00    +0.077 A 
ATOM     19  C   UNL     1       5.455  -6.720  -5.707  0.00  0.00    +0.144 A 
ATOM     20  C   UNL     1       4.200  -7.066  -5.250  0.00  0.00    +0.066 A 
ATOM     21  F   UNL     1       6.317  -7.686  -6.093  0.00  0.00    -0.204 F 
ATOM     22 CL   UNL     1       7.431  -4.973  -6.333  0.00  0.00    -0.081 Cl
ENDBRANCH   7  11
BRANCH   1  24
ATOM     23  C   UNL     1       0.579   1.433   0.295  0.00  0.00    +0.277 C 
ATOM     24  O   UNL     1       0.616   0.005   0.294  0.00  0.00    -0.491 OA
ENDBRANCH   1  24
BRANCH   6  25
ATOM     25  O   UNL     1       0.731  -2.737   0.176  0.00  0.00    -0.488 OA
BRANCH  25  26
ATOM     26  C   UNL     1       0.815  -4.158   0.052  0.00  0.00    +0.227 C 
BRANCH  26  27
ATOM     27  C   UNL     1       0.329  -4.812   1.348  0.00  0.00    +0.022 C 
BRANCH  27  28
ATOM     28  C   UNL     1       0.418  -6.333   1.216  0.00  0.00    -0.075 C 
BRANCH  28  29
ATOM     29  N   UNL     1      -0.048  -6.961   2.459  0.00  0.00    +0.383 N 
ATOM     30  C   UNL     1       0.865  -6.613   3.556  0.00  0.00    -0.050 C 
ATOM     31  C   UNL     1       0.377  -7.268   4.851  0.00  0.00    +0.141 C 
ATOM     32  O   UNL     1       0.298  -8.683   4.662  0.00  0.00    -0.383 OA
ATOM     33  C   UNL     1      -0.562  -9.072   3.588  0.00  0.00    +0.141 C 
ATOM     34  C   UNL     1      -0.075  -8.421   2.291  0.00  0.00    -0.050 C 
ATOM     35  H   UNL     1      -0.976  -6.630   2.676  0.00  0.00    -0.082 HD
ENDBRANCH  28  29
ENDBRANCH  27  28
ENDBRANCH  26  27
ENDBRANCH  25  26
ENDBRANCH   6  25
TORSDOF 7
