REMARK  Name = CHEMBL206955
REMARK  6 active torsions:
REMARK  status: ('A' for Active; 'I' for Inactive)
REMARK    1  A    between atoms: C_1  and  O_2
REMARK    2  A    between atoms: O_2  and  C_3
REMARK    3  A    between atoms: C_8  and  C_9
REMARK    4  A    between atoms: C_9  and  N_10
REMARK    5  A    between atoms: C_14  and  C_16
REMARK    6  A    between atoms: N_23  and  C_24
REMARK                            x       y       z     vdW  Elec       q    Type
REMARK                         _______ _______ _______ _____ _____    ______ ____
ROOT
ATOM      1  C   UNL     1       0.820  -0.300  -0.340  0.00  0.00    +0.123 A 
ATOM      2  C   UNL     1       1.128   0.543  -1.388  0.00  0.00    +0.074 A 
ATOM      3  C   UNL     1       1.534  -0.001  -2.611  0.00  0.00    +0.079 A 
ATOM      4  C   UNL     1       1.620  -1.409  -2.752  0.00  0.00    +0.041 A 
ATOM      5  C   UNL     1       1.301  -2.238  -1.671  0.00  0.00    +0.018 A 
ATOM      6  C   UNL     1       0.913  -1.686  -0.487  0.00  0.00    -0.021 A 
ATOM      7  C   UNL     1       2.034  -1.931  -4.001  0.00  0.00    +0.134 A 
ATOM      8  N   UNL     1       2.319  -1.076  -4.975  0.00  0.00    -0.220 NA
ATOM      9  C   UNL     1       2.223   0.232  -4.797  0.00  0.00    +0.223 A 
ATOM     10  N   UNL     1       1.846   0.772  -3.663  0.00  0.00    -0.235 NA
ATOM     11  N   UNL     1       2.138  -3.292  -4.200  0.00  0.00    -0.299 N 
ATOM     12  H   UNL     1       1.850  -3.907  -3.507  0.00  0.00    +0.154 HD
ENDROOT
BRANCH  11  13
ATOM     13  C   UNL     1       2.660  -3.785  -5.400  0.00  0.00    +0.034 A 
ATOM     14  C   UNL     1       2.190  -4.983  -5.923  0.00  0.00    +0.026 A 
ATOM     15  C   UNL     1       2.705  -5.469  -7.109  0.00  0.00    +0.041 A 
ATOM     16  C   UNL     1       3.692  -4.763  -7.777  0.00  0.00    +0.142 A 
ATOM     17  C   UNL     1       4.163  -3.567  -7.257  0.00  0.00    +0.078 A 
ATOM     18  C   UNL     1       3.645  -3.075  -6.074  0.00  0.00    +0.046 A 
ATOM     19 CL   UNL     1       5.399  -2.684  -8.097  0.00  0.00    -0.081 Cl
ATOM     20  F   UNL     1       4.195  -5.240  -8.936  0.00  0.00    -0.204 F 
ENDBRANCH  11  13
BRANCH   1  22
ATOM     21  C   UNL     1       0.350   1.649   0.937  0.00  0.00    +0.277 C 
ATOM     22  O   UNL     1       0.426   0.225   0.849  0.00  0.00    -0.495 OA
ENDBRANCH   1  22
BRANCH   6  23
ATOM     23  C   UNL     1       0.576  -2.582   0.677  0.00  0.00    -0.038 C 
BRANCH  23  24
ATOM     24  N   UNL     1      -0.872  -2.830   0.701  0.00  0.00    +0.390 N 
ATOM     25  C   UNL     1      -1.585  -1.582   1.047  0.00  0.00    -0.077 C 
ATOM     26  C   UNL     1      -2.784  -2.040   1.915  0.00  0.00    -0.020 C 
ATOM     27  C   UNL     1      -2.156  -3.201   2.730  0.00  0.00    -0.008 C 
ATOM     28  C   UNL     1      -1.184  -3.848   1.720  0.00  0.00    +0.019 C 
ATOM     29  H   UNL     1      -1.176  -3.152  -0.206  0.00  0.00    -0.080 HD
BRANCH  28  30
ATOM     30  C   UNL     1       0.079  -4.273   2.424  0.00  0.00    +0.197 C 
ATOM     31  O   UNL     1       0.793  -3.441   2.944  0.00  0.00    -0.278 OA
ATOM     32  N   UNL     1       0.415  -5.577   2.477  0.00  0.00    -0.331 N 
ATOM     33  H   UNL     1      -0.156  -6.242   2.062  0.00  0.00    +0.145 HD
ATOM     34  H   UNL     1       1.228  -5.850   2.930  0.00  0.00    +0.145 HD
ENDBRANCH  28  30
ENDBRANCH  23  24
ENDBRANCH   6  23
TORSDOF 5
