REMARK  Name = CHEMBL524117
REMARK  3 active torsions:
REMARK  status: ('A' for Active; 'I' for Inactive)
REMARK    1  A    between atoms: C_2  and  C_3
REMARK    2  A    between atoms: C_12  and  C_16
REMARK    3  A    between atoms: C_16  and  C_17
REMARK                            x       y       z     vdW  Elec       q    Type
REMARK                         _______ _______ _______ _____ _____    ______ ____
ROOT
ATOM      1  C   UNL     1      -0.066  -2.761  -0.019  0.00  0.00    +0.242 C 
ATOM      2  O   UNL     1      -0.049  -3.977  -0.033  0.00  0.00    -0.270 OA
ATOM      3  N   UNL     1      -1.243  -2.104   0.003  0.00  0.00    -0.267 N 
ATOM      4  C   UNL     1      -2.436  -2.812  -0.095  0.00  0.00    +0.126 A 
ATOM      5  C   UNL     1      -3.645  -2.106  -0.190  0.00  0.00    +0.046 A 
ATOM      6  C   UNL     1      -4.823  -2.784  -0.286  0.00  0.00    +0.033 A 
ATOM      7  C   UNL     1      -4.782  -4.193  -0.286  0.00  0.00    +0.093 A 
ATOM      8  C   UNL     1      -3.527  -4.844  -0.187  0.00  0.00    +0.113 A 
ATOM      9  N   UNL     1      -2.404  -4.128  -0.101  0.00  0.00    -0.228 NA
ATOM     10  C   UNL     1      -3.512  -6.252  -0.190  0.00  0.00    +0.075 A 
ATOM     11  N   UNL     1      -4.660  -6.891  -0.284  0.00  0.00    -0.238 NA
ATOM     12  C   UNL     1      -5.812  -6.244  -0.374  0.00  0.00    +0.222 A 
ATOM     13  N   UNL     1      -5.890  -4.934  -0.377  0.00  0.00    -0.234 NA
ATOM     14  H   UNL     1      -1.258  -1.138   0.086  0.00  0.00    +0.157 HD
ENDROOT
BRANCH   1  16
ATOM     15  C   UNL     1       2.358  -2.656  -0.047  0.00  0.00    +0.013 C 
ATOM     16  C   UNL     1       1.196  -2.008  -0.026  0.00  0.00    +0.060 C 
ENDBRANCH   1  16
BRANCH  10  17
ATOM     17  C   UNL     1      -2.214  -7.010  -0.088  0.00  0.00    +0.093 C 
BRANCH  17  18
ATOM     18  C   UNL     1      -1.894  -7.266   1.362  0.00  0.00    -0.040 A 
ATOM     19  C   UNL     1      -1.152  -6.346   2.079  0.00  0.00    +0.007 A 
ATOM     20  C   UNL     1      -0.859  -6.579   3.409  0.00  0.00    +0.040 A 
ATOM     21  C   UNL     1      -1.307  -7.735   4.025  0.00  0.00    +0.142 A 
ATOM     22  C   UNL     1      -2.051  -8.657   3.306  0.00  0.00    +0.076 A 
ATOM     23  C   UNL     1      -2.348  -8.419   1.976  0.00  0.00    +0.027 A 
ATOM     24 CL   UNL     1      -2.614 -10.108   4.075  0.00  0.00    -0.081 Cl
ATOM     25  F   UNL     1      -1.020  -7.964   5.325  0.00  0.00    -0.204 F 
ENDBRANCH  17  18
ENDBRANCH  10  17
TORSDOF 3
