REMARK  Name = CHEMBL601625
REMARK  21 active torsions:
REMARK  status: ('A' for Active; 'I' for Inactive)
REMARK    1  A    between atoms: C_1  and  C_2
REMARK    2  A    between atoms: C_2  and  C_3
REMARK    3  A    between atoms: C_3  and  C_4
REMARK    4  A    between atoms: C_4  and  C_5
REMARK    5  A    between atoms: C_5  and  C_6
REMARK    6  A    between atoms: C_6  and  C_7
REMARK    7  A    between atoms: C_7  and  C_8
REMARK    8  A    between atoms: C_8  and  C_9
REMARK    9  A    between atoms: C_9  and  C_10
REMARK   10  A    between atoms: C_10  and  C_11
REMARK   11  A    between atoms: C_11  and  C_12
REMARK   12  A    between atoms: C_12  and  C_13
REMARK   13  A    between atoms: C_13  and  C_14
REMARK   14  A    between atoms: C_14  and  C_15
REMARK   15  A    between atoms: C_15  and  C_16
REMARK   16  A    between atoms: C_16  and  N_17
REMARK   17  A    between atoms: C_18  and  C_20
REMARK   18  A    between atoms: C_20  and  O_21
REMARK   19  A    between atoms: O_21  and  C_22
REMARK   20  A    between atoms: C_24  and  O_39
REMARK   21  A    between atoms: C_29  and  C_33
REMARK                            x       y       z     vdW  Elec       q    Type
REMARK                         _______ _______ _______ _____ _____    ______ ____
ROOT
ATOM      1  C   UNL     1       6.690 -16.447 -11.535  0.00  0.00    +0.324 C 
ENDROOT
BRANCH   1   3
ATOM      2  N   UNL     1       5.846 -14.639 -10.074  0.00  0.00    -0.313 N 
ATOM      3  C   UNL     1       5.985 -15.961 -10.296  0.00  0.00    +0.251 C 
ATOM      4  O   UNL     1       5.543 -16.760  -9.497  0.00  0.00    -0.272 OA
ATOM      5  H   UNL     1       6.200 -14.001 -10.712  0.00  0.00    +0.149 HD
BRANCH   2   6
ATOM      6  C   UNL     1       5.160 -14.167  -8.868  0.00  0.00    +0.104 C 
BRANCH   6   7
ATOM      7  C   UNL     1       5.139 -12.637  -8.860  0.00  0.00    +0.019 C 
BRANCH   7   8
ATOM      8  C   UNL     1       4.423 -12.144  -7.601  0.00  0.00    +0.002 C 
BRANCH   8   9
ATOM      9  C   UNL     1       4.403 -10.614  -7.593  0.00  0.00    +0.000 C 
BRANCH   9  10
ATOM     10  C   UNL     1       3.687 -10.120  -6.334  0.00  0.00    +0.000 C 
BRANCH  10  11
ATOM     11  C   UNL     1       3.666  -8.591  -6.326  0.00  0.00    +0.000 C 
BRANCH  11  12
ATOM     12  C   UNL     1       2.950  -8.097  -5.067  0.00  0.00    -0.000 C 
BRANCH  12  13
ATOM     13  C   UNL     1       2.929  -6.567  -5.058  0.00  0.00    -0.000 C 
BRANCH  13  14
ATOM     14  C   UNL     1       2.213  -6.074  -3.800  0.00  0.00    -0.000 C 
BRANCH  14  15
ATOM     15  C   UNL     1       2.192  -4.544  -3.791  0.00  0.00    -0.000 C 
BRANCH  15  16
ATOM     16  C   UNL     1       1.476  -4.051  -2.532  0.00  0.00    -0.000 C 
BRANCH  16  17
ATOM     17  C   UNL     1       1.455  -2.521  -2.524  0.00  0.00    -0.000 C 
BRANCH  17  18
ATOM     18  C   UNL     1       0.739  -2.027  -1.265  0.00  0.00    -0.000 C 
BRANCH  18  19
ATOM     19  C   UNL     1       0.718  -0.497  -1.257  0.00  0.00    -0.000 C 
BRANCH  19  21
ATOM     20  C   UNL     1      -0.019   1.526   0.010  0.00  0.00    +0.004 C 
ATOM     21  C   UNL     1       0.002  -0.004   0.002  0.00  0.00    -0.003 C 
ENDBRANCH  19  21
ENDBRANCH  18  19
ENDBRANCH  17  18
ENDBRANCH  16  17
ENDBRANCH  15  16
ENDBRANCH  14  15
ENDBRANCH  13  14
ENDBRANCH  12  13
ENDBRANCH  11  12
ENDBRANCH  10  11
ENDBRANCH   9  10
ENDBRANCH   8   9
ENDBRANCH   7   8
ENDBRANCH   6   7
ENDBRANCH   2   6
ENDBRANCH   1   3
BRANCH   1  22
ATOM     22  O   UNL     1       6.710 -17.876 -11.543  0.00  0.00    -0.483 OA
BRANCH  22  23
ATOM     23  C   UNL     1       7.313 -18.479 -12.600  0.00  0.00    +0.128 A 
ATOM     24  C   UNL     1       7.879 -17.701 -13.605  0.00  0.00    +0.092 A 
ATOM     25  C   UNL     1       8.496 -18.304 -14.685  0.00  0.00    +0.135 A 
ATOM     26  C   UNL     1       8.546 -19.702 -14.759  0.00  0.00    +0.105 A 
ATOM     27  C   UNL     1       9.193 -20.386 -15.891  0.00  0.00    +0.197 A 
ATOM     28  O   UNL     1       9.707 -19.757 -16.802  0.00  0.00    -0.287 OA
ATOM     29  C   UNL     1       9.196 -21.802 -15.881  0.00  0.00    +0.098 A 
ATOM     30  C   UNL     1       8.614 -22.466 -14.849  0.00  0.00    +0.139 A 
ATOM     31  O   UNL     1       8.027 -21.832 -13.822  0.00  0.00    -0.454 OA
ATOM     32  C   UNL     1       7.973 -20.485 -13.742  0.00  0.00    +0.146 A 
ATOM     33  C   UNL     1       7.364 -19.862 -12.664  0.00  0.00    +0.092 A 
BRANCH  30  34
ATOM     34  C   UNL     1       8.627 -23.943 -14.857  0.00  0.00    +0.017 A 
ATOM     35  C   UNL     1       9.235 -24.633 -15.908  0.00  0.00    +0.011 A 
ATOM     36  C   UNL     1       9.244 -26.013 -15.909  0.00  0.00    +0.001 A 
ATOM     37  C   UNL     1       8.652 -26.712 -14.872  0.00  0.00    +0.000 A 
ATOM     38  C   UNL     1       8.048 -26.035 -13.827  0.00  0.00    +0.001 A 
ATOM     39  C   UNL     1       8.038 -24.655 -13.810  0.00  0.00    +0.011 A 
ENDBRANCH  30  34
BRANCH  25  40
ATOM     40  O   UNL     1       9.048 -17.547 -15.667  0.00  0.00    -0.506 OA
ATOM     41  H   UNL     1       9.976 -17.323 -15.516  0.00  0.00    +0.292 HD
ENDBRANCH  25  40
ENDBRANCH  22  23
ENDBRANCH   1  22
TORSDOF 20
