REMARK  Name = CHEMBL181275
REMARK  1 active torsions:
REMARK  status: ('A' for Active; 'I' for Inactive)
REMARK    1  A    between atoms: N_14  and  C_15
REMARK                            x       y       z     vdW  Elec       q    Type
REMARK                         _______ _______ _______ _____ _____    ______ ____
ROOT
ATOM      1  C   UNL     1      -0.009   1.277   0.864  0.00  0.00    +0.004 A 
ATOM      2  C   UNL     1       1.203   1.966   0.991  0.00  0.00    +0.020 A 
ATOM      3  C   UNL     1       2.378   1.308   0.856  0.00  0.00    +0.113 A 
ATOM      4  N   UNL     1       2.403  -0.027   0.595  0.00  0.00    -0.237 N 
ATOM      5  C   UNL     1       1.235  -0.722   0.467  0.00  0.00    +0.079 A 
ATOM      6  C   UNL     1       0.007  -0.064   0.603  0.00  0.00    +0.028 A 
ATOM      7  C   UNL     1       1.578  -2.062   0.203  0.00  0.00    +0.086 A 
ATOM      8  C   UNL     1       2.998  -2.132   0.180  0.00  0.00    +0.187 A 
ATOM      9  N   UNL     1       3.470  -0.918   0.414  0.00  0.00    -0.146 NA
ATOM     10  N   UNL     1       3.574  -3.326  -0.057  0.00  0.00    -0.214 NA
ATOM     11  C   UNL     1       2.839  -4.393  -0.260  0.00  0.00    +0.225 A 
ATOM     12  N   UNL     1       1.516  -4.369  -0.246  0.00  0.00    -0.220 NA
ATOM     13  C   UNL     1       0.847  -3.242  -0.022  0.00  0.00    +0.138 A 
ATOM     14  N   UNL     1      -0.534  -3.232  -0.010  0.00  0.00    -0.299 N 
ATOM     15  H   UNL     1      -1.012  -2.392   0.071  0.00  0.00    +0.154 HD
ENDROOT
BRANCH  14  16
ATOM     16  C   UNL     1      -1.244  -4.433  -0.116  0.00  0.00    +0.034 A 
ATOM     17  C   UNL     1      -0.744  -5.590   0.468  0.00  0.00    +0.026 A 
ATOM     18  C   UNL     1      -1.446  -6.774   0.363  0.00  0.00    +0.041 A 
ATOM     19  C   UNL     1      -2.647  -6.810  -0.324  0.00  0.00    +0.142 A 
ATOM     20  C   UNL     1      -3.148  -5.658  -0.907  0.00  0.00    +0.078 A 
ATOM     21  C   UNL     1      -2.452  -4.469  -0.799  0.00  0.00    +0.046 A 
ATOM     22 CL   UNL     1      -4.655  -5.706  -1.769  0.00  0.00    -0.081 Cl
ATOM     23  F   UNL     1      -3.332  -7.971  -0.425  0.00  0.00    -0.204 F 
ENDBRANCH  14  16
TORSDOF 1
