REMARK  Name = CHEMBL76589
REMARK  7 active torsions:
REMARK  status: ('A' for Active; 'I' for Inactive)
REMARK    1  A    between atoms: C_3  and  O_18
REMARK    2  A    between atoms: C_6  and  C_7
REMARK    3  A    between atoms: C_8  and  C_9
REMARK    4  A    between atoms: C_8  and  C_11
REMARK    5  A    between atoms: C_11  and  N_17
REMARK    6  A    between atoms: C_12  and  C_13
REMARK    7  A    between atoms: C_12  and  C_15
REMARK                            x       y       z     vdW  Elec       q    Type
REMARK                         _______ _______ _______ _____ _____    ______ ____
ROOT
ATOM      1  C   UNL     1      -1.254  -0.756   0.011  0.00  0.00    +0.028 C 
ATOM      2  C   UNL     1      -1.235  -2.132  -0.101  0.00  0.00    +0.075 C 
ENDROOT
BRANCH   1   8
ATOM      3  C   UNL     1       0.972  -0.592   1.102  0.00  0.00    +0.011 A 
ATOM      4  C   UNL     1       2.127   0.094   1.348  0.00  0.00    +0.046 A 
ATOM      5  C   UNL     1       2.328   1.350   0.785  0.00  0.00    +0.117 A 
ATOM      6  C   UNL     1       1.355   1.915  -0.033  0.00  0.00    +0.046 A 
ATOM      7  C   UNL     1       0.195   1.240  -0.287  0.00  0.00    +0.011 A 
ATOM      8  C   UNL     1      -0.013  -0.027   0.279  0.00  0.00    -0.024 A 
BRANCH   5   9
ATOM      9  O   UNL     1       3.478   2.026   1.034  0.00  0.00    -0.507 OA
ATOM     10  H   UNL     1       4.186   1.845   0.400  0.00  0.00    +0.292 HD
ENDBRANCH   5   9
ENDBRANCH   1   8
BRANCH   2  11
ATOM     11  C   UNL     1       0.014  -2.832  -0.118  0.00  0.00    +0.101 C 
ATOM     12  N   UNL     1       1.005  -3.387  -0.131  0.00  0.00    -0.191 NA
ENDBRANCH   2  11
BRANCH   2  13
ATOM     13  C   UNL     1      -2.494  -2.876  -0.203  0.00  0.00    +0.070 C 
ATOM     14  C   UNL     1      -2.476  -4.268  -0.316  0.00  0.00    +0.150 C 
BRANCH  13  15
ATOM     15  N   UNL     1      -3.692  -2.205  -0.188  0.00  0.00    -0.355 N 
ATOM     16  H   UNL     1      -3.705  -1.238  -0.109  0.00  0.00    +0.142 HD
ATOM     17  H   UNL     1      -4.525  -2.698  -0.255  0.00  0.00    +0.142 HD
ENDBRANCH  13  15
BRANCH  14  18
ATOM     18  C   UNL     1      -1.226  -4.968  -0.333  0.00  0.00    +0.112 C 
ATOM     19  N   UNL     1      -0.236  -5.524  -0.346  0.00  0.00    -0.190 NA
ENDBRANCH  14  18
BRANCH  14  20
ATOM     20  C   UNL     1      -3.705  -4.995  -0.416  0.00  0.00    +0.112 C 
ATOM     21  N   UNL     1      -4.681  -5.572  -0.495  0.00  0.00    -0.190 NA
ENDBRANCH  14  20
ENDBRANCH   2  13
TORSDOF 7
