REMARK  Name = CHEMBL255866
REMARK  5 active torsions:
REMARK  status: ('A' for Active; 'I' for Inactive)
REMARK    1  A    between atoms: C_1  and  O_2
REMARK    2  A    between atoms: O_2  and  N_3
REMARK    3  A    between atoms: C_4  and  C_5
REMARK    4  A    between atoms: C_10  and  N_11
REMARK    5  A    between atoms: N_11  and  C_12
REMARK                            x       y       z     vdW  Elec       q    Type
REMARK                         _______ _______ _______ _____ _____    ______ ____
ROOT
ATOM      1  C   UNL     1      -2.917  -2.524   0.223  0.00  0.00    +0.076 A 
ATOM      2  C   UNL     1      -4.071  -1.763   0.488  0.00  0.00    +0.130 A 
ATOM      3  N   UNL     1      -5.234  -2.392   0.632  0.00  0.00    -0.220 NA
ATOM      4  C   UNL     1      -5.315  -3.704   0.530  0.00  0.00    +0.225 A 
ATOM      5  N   UNL     1      -4.263  -4.457   0.283  0.00  0.00    -0.220 NA
ATOM      6  C   UNL     1      -3.057  -3.920   0.117  0.00  0.00    +0.137 A 
ATOM      7  N   UNL     1      -3.997  -0.388   0.599  0.00  0.00    -0.342 N 
ATOM      8  H   UNL     1      -3.164   0.070   0.405  0.00  0.00    +0.144 HD
ATOM      9  H   UNL     1      -4.778   0.120   0.869  0.00  0.00    +0.144 HD
ENDROOT
BRANCH   1  11
ATOM     10  N   UNL     1      -1.514  -0.586   0.053  0.00  0.00    -0.093 NA
ATOM     11  C   UNL     1      -1.605  -1.878   0.055  0.00  0.00    +0.167 C 
BRANCH  10  13
ATOM     12  C   UNL     1      -0.301   1.463  -0.091  0.00  0.00    +0.313 C 
ATOM     13  O   UNL     1      -0.252   0.035  -0.109  0.00  0.00    -0.397 OA
ENDBRANCH  10  13
ENDBRANCH   1  11
BRANCH   6  14
ATOM     14  N   UNL     1      -1.960  -4.719  -0.149  0.00  0.00    -0.299 N 
ATOM     15  H   UNL     1      -1.074  -4.328  -0.188  0.00  0.00    +0.154 HD
BRANCH  14  16
ATOM     16  C   UNL     1      -2.130  -6.092  -0.360  0.00  0.00    +0.033 A 
ATOM     17  C   UNL     1      -1.129  -6.979   0.061  0.00  0.00    +0.025 A 
ATOM     18  C   UNL     1      -1.239  -8.317  -0.118  0.00  0.00    +0.032 A 
ATOM     19  C   UNL     1      -2.389  -8.847  -0.744  0.00  0.00    +0.093 A 
ATOM     20  C   UNL     1      -3.442  -7.920  -1.186  0.00  0.00    +0.021 A 
ATOM     21  C   UNL     1      -3.267  -6.536  -0.965  0.00  0.00    +0.034 A 
ATOM     22  C   UNL     1      -4.433  -8.696  -1.756  0.00  0.00    +0.113 A 
ATOM     23  N   UNL     1      -4.047  -9.979  -1.680  0.00  0.00    -0.284 N 
ATOM     24  N   UNL     1      -2.795 -10.064  -1.060  0.00  0.00    -0.174 NA
ATOM     25  H   UNL     1      -4.559 -10.735  -2.007  0.00  0.00    +0.188 HD
ENDBRANCH  14  16
ENDBRANCH   6  14
TORSDOF 4
