REMARK  Name = CHEMBL430571
REMARK  7 active torsions:
REMARK  status: ('A' for Active; 'I' for Inactive)
REMARK    1  A    between atoms: C_2  and  C_3
REMARK    2  A    between atoms: N_5  and  C_6
REMARK    3  A    between atoms: C_12  and  N_16
REMARK    4  A    between atoms: N_16  and  C_17
REMARK    5  A    between atoms: C_20  and  O_23
REMARK    6  A    between atoms: O_23  and  C_24
REMARK    7  A    between atoms: C_24  and  C_25
REMARK                            x       y       z     vdW  Elec       q    Type
REMARK                         _______ _______ _______ _____ _____    ______ ____
ROOT
ATOM      1  C   UNL     1       2.471  -2.802  -0.187  0.00  0.00    +0.034 A 
ATOM      2  C   UNL     1       3.437  -2.142  -0.952  0.00  0.00    +0.025 A 
ATOM      3  C   UNL     1       4.316  -2.839  -1.723  0.00  0.00    +0.030 A 
ATOM      4  C   UNL     1       4.258  -4.239  -1.755  0.00  0.00    +0.076 A 
ATOM      5  C   UNL     1       3.282  -4.915  -0.981  0.00  0.00    +0.042 A 
ATOM      6  C   UNL     1       2.391  -4.180  -0.192  0.00  0.00    +0.036 A 
ATOM      7  C   UNL     1       3.248  -6.330  -1.033  0.00  0.00    +0.134 A 
ATOM      8  N   UNL     1       4.133  -6.950  -1.803  0.00  0.00    -0.220 NA
ATOM      9  C   UNL     1       5.027  -6.276  -2.509  0.00  0.00    +0.223 A 
ATOM     10  N   UNL     1       5.104  -4.966  -2.500  0.00  0.00    -0.235 NA
ENDROOT
BRANCH   1  13
ATOM     11  C   UNL     1       1.117  -0.875   0.150  0.00  0.00    +0.241 C 
ATOM     12  O   UNL     1       1.538  -0.411  -0.893  0.00  0.00    -0.271 OA
ATOM     13  N   UNL     1       1.581  -2.059   0.596  0.00  0.00    -0.282 N 
ATOM     14  H   UNL     1       1.297  -2.397   1.460  0.00  0.00    +0.155 HD
BRANCH  11  16
ATOM     15  C   UNL     1      -0.355   1.025   0.483  0.00  0.00    +0.013 C 
ATOM     16  C   UNL     1       0.102  -0.144   0.923  0.00  0.00    +0.060 C 
ENDBRANCH  11  16
ENDBRANCH   1  13
BRANCH   7  17
ATOM     17  N   UNL     1       2.321  -7.044  -0.302  0.00  0.00    -0.299 N 
ATOM     18  H   UNL     1       1.633  -6.577   0.197  0.00  0.00    +0.154 HD
BRANCH  17  19
ATOM     19  C   UNL     1       2.374  -8.443  -0.280  0.00  0.00    +0.033 A 
ATOM     20  C   UNL     1       3.599  -9.093  -0.361  0.00  0.00    +0.027 A 
ATOM     21  C   UNL     1       3.651 -10.472  -0.339  0.00  0.00    +0.047 A 
ATOM     22  C   UNL     1       2.479 -11.209  -0.236  0.00  0.00    +0.121 A 
ATOM     23  C   UNL     1       1.256 -10.560  -0.156  0.00  0.00    +0.047 A 
ATOM     24  C   UNL     1       1.203  -9.181  -0.172  0.00  0.00    +0.027 A 
BRANCH  22  25
ATOM     25  O   UNL     1       2.531 -12.568  -0.214  0.00  0.00    -0.487 OA
BRANCH  25  26
ATOM     26  C   UNL     1       1.287 -13.262  -0.107  0.00  0.00    +0.264 C 
BRANCH  26  27
ATOM     27  C   UNL     1       1.540 -14.748  -0.099  0.00  0.00    -0.010 A 
ATOM     28  C   UNL     1       1.571 -15.451  -1.289  0.00  0.00    +0.007 A 
ATOM     29  C   UNL     1       1.804 -16.813  -1.281  0.00  0.00    +0.000 A 
ATOM     30  C   UNL     1       2.006 -17.473  -0.083  0.00  0.00    +0.000 A 
ATOM     31  C   UNL     1       1.975 -16.770   1.107  0.00  0.00    +0.000 A 
ATOM     32  C   UNL     1       1.747 -15.407   1.099  0.00  0.00    +0.007 A 
ENDBRANCH  26  27
ENDBRANCH  25  26
ENDBRANCH  22  25
ENDBRANCH  17  19
ENDBRANCH   7  17
TORSDOF 7
