REMARK  Name = CHEMBL118419
REMARK  8 active torsions:
REMARK  status: ('A' for Active; 'I' for Inactive)
REMARK    1  A    between atoms: C_1  and  C_2
REMARK    2  A    between atoms: C_2  and  C_4
REMARK    3  A    between atoms: C_2  and  N_10
REMARK    4  A    between atoms: C_13  and  C_17
REMARK    5  A    between atoms: C_18  and  C_30
REMARK    6  A    between atoms: C_20  and  C_22
REMARK    7  A    between atoms: C_22  and  O_29
REMARK    8  A    between atoms: N_25  and  C_28
REMARK                            x       y       z     vdW  Elec       q    Type
REMARK                         _______ _______ _______ _____ _____    ______ ____
ROOT
ATOM      1  C   UNL     1       5.015   0.008   1.056  0.00  0.00    +0.047 A 
ATOM      2  C   UNL     1       6.378  -0.172   1.279  0.00  0.00    +0.086 A 
ATOM      3  N   UNL     1       6.819   0.178   2.476  0.00  0.00    -0.240 NA
ATOM      4  C   UNL     1       6.016   0.662   3.388  0.00  0.00    +0.111 A 
ATOM      5  S   UNL     1       4.513   0.683   2.631  0.00  0.00    -0.069 S 
ENDROOT
BRANCH   1   9
ATOM      6  N   UNL     1       1.684   1.296  -2.302  0.00  0.00    -0.322 N 
ATOM      7  C   UNL     1       2.579   0.364  -1.788  0.00  0.00    +0.120 A 
ATOM      8  C   UNL     1       3.315   0.673  -0.652  0.00  0.00    +0.052 A 
ATOM      9  C   UNL     1       4.210  -0.275  -0.148  0.00  0.00    -0.005 A 
ATOM     10  C   UNL     1       4.324  -1.502  -0.818  0.00  0.00    +0.029 A 
ATOM     11  C   UNL     1       3.556  -1.728  -1.939  0.00  0.00    +0.113 A 
ATOM     12  N   UNL     1       2.716  -0.811  -2.384  0.00  0.00    -0.240 NA
ATOM     13  H   UNL     1       1.164   1.084  -3.093  0.00  0.00    +0.148 HD
BRANCH   6  15
ATOM     14  C   UNL     1       2.598   3.561  -2.164  0.00  0.00    +0.033 C 
ATOM     15  C   UNL     1       1.526   2.598  -1.649  0.00  0.00    +0.099 C 
BRANCH  15  16
ATOM     16  C   UNL     1       0.161   3.154  -1.960  0.00  0.00    -0.028 A 
ATOM     17  C   UNL     1      -0.374   3.007  -3.226  0.00  0.00    +0.005 A 
ATOM     18  C   UNL     1      -1.627   3.517  -3.511  0.00  0.00    +0.000 A 
ATOM     19  C   UNL     1      -2.345   4.173  -2.530  0.00  0.00    +0.000 A 
ATOM     20  C   UNL     1      -1.812   4.319  -1.263  0.00  0.00    +0.000 A 
ATOM     21  C   UNL     1      -0.560   3.806  -0.977  0.00  0.00    +0.005 A 
ENDBRANCH  15  16
ENDBRANCH   6  15
ENDBRANCH   1   9
BRANCH   4  22
ATOM     22  C   UNL     1       6.358   1.103   4.788  0.00  0.00    +0.111 C 
ATOM     23  C   UNL     1       7.394   2.229   4.731  0.00  0.00    +0.023 C 
ATOM     24  C   UNL     1       7.795   2.618   6.155  0.00  0.00    -0.076 C 
ATOM     25  N   UNL     1       8.372   1.454   6.840  0.00  0.00    +0.378 N 
ATOM     26  C   UNL     1       7.362   0.397   6.961  0.00  0.00    -0.076 C 
ATOM     27  C   UNL     1       6.944  -0.077   5.568  0.00  0.00    +0.023 C 
ATOM     28  C   UNL     1       8.827   1.852   8.179  0.00  0.00    -0.096 C 
ATOM     29  H   UNL     1       9.158   1.109   6.309  0.00  0.00    -0.082 HD
BRANCH  22  30
ATOM     30  O   UNL     1       5.177   1.570   5.444  0.00  0.00    -0.382 OA
ATOM     31  H   UNL     1       4.754   2.320   5.004  0.00  0.00    +0.211 HD
ENDBRANCH  22  30
ENDBRANCH   4  22
BRANCH   2  32
ATOM     32  C   UNL     1       7.279  -0.722   0.239  0.00  0.00    +0.002 A 
ATOM     33  C   UNL     1       7.164  -0.294  -1.083  0.00  0.00    +0.013 A 
ATOM     34  C   UNL     1       8.005  -0.809  -2.048  0.00  0.00    +0.039 A 
ATOM     35  C   UNL     1       8.964  -1.749  -1.704  0.00  0.00    +0.123 A 
ATOM     36  C   UNL     1       9.082  -2.177  -0.392  0.00  0.00    +0.039 A 
ATOM     37  C   UNL     1       8.249  -1.664   0.581  0.00  0.00    +0.013 A 
ATOM     38  F   UNL     1       9.785  -2.250  -2.653  0.00  0.00    -0.205 F 
ENDBRANCH   2  32
TORSDOF 6
