REMARK  Name = CHEMBL92356
REMARK  8 active torsions:
REMARK  status: ('A' for Active; 'I' for Inactive)
REMARK    1  A    between atoms: C_1  and  C_2
REMARK    2  A    between atoms: C_2  and  N_3
REMARK    3  A    between atoms: N_6  and  C_9
REMARK    4  A    between atoms: C_9  and  C_10
REMARK    5  A    between atoms: C_11  and  C_12
REMARK    6  A    between atoms: N_14  and  C_15
REMARK    7  A    between atoms: C_21  and  N_25
REMARK    8  A    between atoms: N_25  and  C_26
REMARK                            x       y       z     vdW  Elec       q    Type
REMARK                         _______ _______ _______ _____ _____    ______ ____
ROOT
ATOM      1  C   UNL     1       2.953  -8.703   2.702  0.00  0.00    +0.035 A 
ATOM      2  C   UNL     1       3.126  -9.442   3.877  0.00  0.00    +0.025 A 
ATOM      3  C   UNL     1       3.386 -10.777   3.833  0.00  0.00    +0.030 A 
ATOM      4  C   UNL     1       3.483 -11.428   2.595  0.00  0.00    +0.076 A 
ATOM      5  C   UNL     1       3.309 -10.686   1.401  0.00  0.00    +0.042 A 
ATOM      6  C   UNL     1       3.038  -9.315   1.469  0.00  0.00    +0.036 A 
ATOM      7  C   UNL     1       3.413 -11.371   0.166  0.00  0.00    +0.134 A 
ATOM      8  N   UNL     1       3.667 -12.672   0.190  0.00  0.00    -0.220 NA
ATOM      9  C   UNL     1       3.822 -13.325   1.332  0.00  0.00    +0.223 A 
ATOM     10  N   UNL     1       3.737 -12.742   2.504  0.00  0.00    -0.235 NA
ENDROOT
BRANCH   1  13
ATOM     11  C   UNL     1       3.268  -6.585   3.738  0.00  0.00    +0.293 C 
ATOM     12  O   UNL     1       3.955  -7.116   4.590  0.00  0.00    -0.260 OA
ATOM     13  N   UNL     1       2.687  -7.332   2.779  0.00  0.00    -0.275 N 
ATOM     14  H   UNL     1       2.084  -6.919   2.141  0.00  0.00    +0.156 HD
BRANCH  11  16
ATOM     15  C   UNL     1       2.918  -4.003   3.770  0.00  0.00    -0.077 C 
ATOM     16  C   UNL     1       3.076  -5.166   3.756  0.00  0.00    -0.006 C 
BRANCH  15  17
ATOM     17  C   UNL     1       2.721  -2.544   3.787  0.00  0.00    +0.174 C 
BRANCH  17  21
ATOM     18  N   UNL     1      -0.370  -0.866   1.447  0.00  0.00    -0.300 NA
ATOM     19  C   UNL     1       0.988  -0.331   1.280  0.00  0.00    +0.100 C 
ATOM     20  C   UNL     1       1.830  -0.692   2.506  0.00  0.00    +0.100 C 
ATOM     21  N   UNL     1       1.859  -2.153   2.664  0.00  0.00    -0.289 NA
ATOM     22  C   UNL     1       0.501  -2.688   2.831  0.00  0.00    +0.100 C 
ATOM     23  C   UNL     1      -0.342  -2.327   1.606  0.00  0.00    +0.100 C 
BRANCH  18  25
ATOM     24  C   UNL     1      -1.438   1.041   0.342  0.00  0.00    +0.020 C 
ATOM     25  C   UNL     1      -1.232  -0.475   0.324  0.00  0.00    +0.081 C 
ENDBRANCH  18  25
ENDBRANCH  17  21
ENDBRANCH  15  17
ENDBRANCH  11  16
ENDBRANCH   1  13
BRANCH   7  26
ATOM     26  N   UNL     1       3.253 -10.703  -1.031  0.00  0.00    -0.299 N 
ATOM     27  H   UNL     1       3.143  -9.739  -1.038  0.00  0.00    +0.154 HD
BRANCH  26  28
ATOM     28  C   UNL     1       3.249 -11.415  -2.234  0.00  0.00    +0.033 A 
ATOM     29  C   UNL     1       3.760 -10.834  -3.389  0.00  0.00    +0.023 A 
ATOM     30  C   UNL     1       3.755 -11.539  -4.575  0.00  0.00    +0.003 A 
ATOM     31  C   UNL     1       3.242 -12.823  -4.617  0.00  0.00    +0.015 A 
ATOM     32  C   UNL     1       2.733 -13.405  -3.469  0.00  0.00    +0.020 A 
ATOM     33  C   UNL     1       2.741 -12.706  -2.277  0.00  0.00    +0.038 A 
ATOM     34 BR   UNL     1       2.034 -15.161  -3.531  0.00  0.00    -0.050 Br
ENDBRANCH  26  28
ENDBRANCH   7  26
TORSDOF 7
