REMARK  Name = CHEMBL14515
REMARK  13 active torsions:
REMARK  status: ('A' for Active; 'I' for Inactive)
REMARK    1  A    between atoms: C_1  and  S_2
REMARK    2  A    between atoms: S_2  and  C_5
REMARK    3  A    between atoms: C_5  and  N_6
REMARK    4  A    between atoms: N_6  and  C_7
REMARK    5  A    between atoms: C_7  and  C_8
REMARK    6  A    between atoms: C_8  and  C_9
REMARK    7  A    between atoms: C_9  and  C_10
REMARK    8  A    between atoms: C_10  and  O_11
REMARK    9  A    between atoms: O_11  and  C_12
REMARK   10  A    between atoms: C_18  and  N_22
REMARK   11  A    between atoms: N_22  and  C_23
REMARK   12  A    between atoms: N_31  and  C_32
REMARK   13  A    between atoms: C_32  and  C_33
REMARK                            x       y       z     vdW  Elec       q    Type
REMARK                         _______ _______ _______ _____ _____    ______ ____
ROOT
ATOM      1  C   UNL     1       9.119  -1.588   0.817  0.00  0.00    +0.121 A 
ATOM      2  C   UNL     1       9.553  -0.296   0.511  0.00  0.00    +0.048 A 
ATOM      3  C   UNL     1      10.879  -0.010   0.398  0.00  0.00    +0.032 A 
ATOM      4  C   UNL     1      11.829  -1.023   0.590  0.00  0.00    +0.076 A 
ATOM      5  C   UNL     1      11.396  -2.335   0.900  0.00  0.00    +0.044 A 
ATOM      6  C   UNL     1      10.028  -2.605   1.016  0.00  0.00    +0.059 A 
ATOM      7  C   UNL     1      12.379  -3.337   1.089  0.00  0.00    +0.134 A 
ATOM      8  N   UNL     1      13.654  -2.995   0.966  0.00  0.00    -0.220 NA
ATOM      9  C   UNL     1      14.012  -1.754   0.675  0.00  0.00    +0.223 A 
ATOM     10  N   UNL     1      13.146  -0.787   0.489  0.00  0.00    -0.235 NA
ENDROOT
BRANCH   7  11
ATOM     11  N   UNL     1      12.019  -4.634   1.394  0.00  0.00    -0.299 N 
ATOM     12  H   UNL     1      11.083  -4.889   1.399  0.00  0.00    +0.154 HD
BRANCH  11  13
ATOM     13  C   UNL     1      13.005  -5.581   1.695  0.00  0.00    +0.033 A 
ATOM     14  C   UNL     1      14.144  -5.197   2.403  0.00  0.00    +0.025 A 
ATOM     15  C   UNL     1      15.117  -6.105   2.707  0.00  0.00    +0.030 A 
ATOM     16  C   UNL     1      14.980  -7.433   2.310  0.00  0.00    +0.069 A 
ATOM     17  C   UNL     1      13.835  -7.832   1.595  0.00  0.00    +0.021 A 
ATOM     18  C   UNL     1      12.842  -6.893   1.295  0.00  0.00    +0.034 A 
ATOM     19  C   UNL     1      13.991  -9.259   1.332  0.00  0.00    +0.143 A 
ATOM     20  N   UNL     1      15.124  -9.638   1.850  0.00  0.00    -0.178 NA
ATOM     21  N   UNL     1      15.762  -8.551   2.458  0.00  0.00    -0.259 N 
BRANCH  21  22
ATOM     22  C   UNL     1      17.056  -8.600   3.144  0.00  0.00    +0.179 C 
BRANCH  22  23
ATOM     23  C   UNL     1      16.840  -8.914   4.602  0.00  0.00    -0.023 A 
ATOM     24  C   UNL     1      16.652  -7.887   5.509  0.00  0.00    +0.005 A 
ATOM     25  C   UNL     1      16.455  -8.174   6.847  0.00  0.00    +0.003 A 
ATOM     26  C   UNL     1      16.445  -9.487   7.279  0.00  0.00    +0.038 A 
ATOM     27  C   UNL     1      16.634 -10.515   6.372  0.00  0.00    +0.124 A 
ATOM     28  C   UNL     1      16.825 -10.227   5.031  0.00  0.00    +0.043 A 
ATOM     29  F   UNL     1      16.625 -11.799   6.793  0.00  0.00    -0.205 F 
ENDBRANCH  22  23
ENDBRANCH  21  22
ENDBRANCH  11  13
ENDBRANCH   7  11
BRANCH   1  30
ATOM     30  O   UNL     1       7.788  -1.845   0.923  0.00  0.00    -0.492 OA
BRANCH  30  31
ATOM     31  C   UNL     1       6.897  -0.749   0.705  0.00  0.00    +0.229 C 
BRANCH  31  32
ATOM     32  C   UNL     1       5.453  -1.227   0.866  0.00  0.00    +0.042 C 
BRANCH  32  33
ATOM     33  C   UNL     1       4.499  -0.054   0.632  0.00  0.00    +0.018 C 
BRANCH  33  34
ATOM     34  C   UNL     1       3.054  -0.531   0.793  0.00  0.00    +0.082 C 
BRANCH  34  35
ATOM     35  N   UNL     1       2.138   0.595   0.569  0.00  0.00    -0.298 NA
ATOM     36  H   UNL     1       2.296   1.015  -0.335  0.00  0.00    +0.123 HD
BRANCH  35  37
ATOM     37  C   UNL     1       0.739   0.173   0.716  0.00  0.00    +0.249 C 
BRANCH  37  39
ATOM     38  C   UNL     1       0.239   2.329   2.487  0.00  0.00    +0.195 C 
ATOM     39  S   UNL     1       0.178   0.517   2.406  0.00  0.00    -0.021 S 
ATOM     40  O   UNL     1       1.137  -0.006   3.314  0.00  0.00    -0.173 OA
ATOM     41  O   UNL     1      -1.178   0.108   2.521  0.00  0.00    -0.173 OA
ENDBRANCH  37  39
ENDBRANCH  35  37
ENDBRANCH  34  35
ENDBRANCH  33  34
ENDBRANCH  32  33
ENDBRANCH  31  32
ENDBRANCH  30  31
ENDBRANCH   1  30
TORSDOF 12
