REMARK  Name = CHEMBL346863
REMARK  1 active torsions:
REMARK  status: ('A' for Active; 'I' for Inactive)
REMARK    1  A    between atoms: C_3  and  N_8
REMARK                            x       y       z     vdW  Elec       q    Type
REMARK                         _______ _______ _______ _____ _____    ______ ____
ROOT
ATOM      1  N   UNL     1       3.583   2.124  -0.021  0.00  0.00    -0.298 N 
ATOM      2  C   UNL     1       4.792   1.449   0.068  0.00  0.00    +0.141 A 
ATOM      3  C   UNL     1       5.987   2.144   0.171  0.00  0.00    +0.081 A 
ATOM      4  C   UNL     1       7.213   1.462   0.263  0.00  0.00    +0.099 A 
ATOM      5  C   UNL     1       8.392   2.309   0.366  0.00  0.00    +0.072 A 
ATOM      6  C   UNL     1       8.206   3.689   0.365  0.00  0.00    +0.118 A 
ATOM      7  S   UNL     1       6.433   3.856   0.225  0.00  0.00    -0.063 S 
ATOM      8  N   UNL     1       9.313   4.415   0.461  0.00  0.00    -0.240 NA
ATOM      9  C   UNL     1      10.494   3.864   0.549  0.00  0.00    +0.157 A 
ATOM     10  S   UNL     1      10.171   2.215   0.507  0.00  0.00    -0.073 S 
ATOM     11  N   UNL     1       7.141   0.108   0.244  0.00  0.00    -0.234 NA
ATOM     12  C   UNL     1       5.992  -0.511   0.145  0.00  0.00    +0.224 A 
ATOM     13  N   UNL     1       4.832   0.117   0.063  0.00  0.00    -0.219 NA
ATOM     14  H   UNL     1       3.571   3.091  -0.094  0.00  0.00    +0.154 HD
ENDROOT
BRANCH   1  17
ATOM     15  C   UNL     1       1.089  -0.467   0.742  0.00  0.00    +0.003 A 
ATOM     16  C   UNL     1       2.278   0.237   0.729  0.00  0.00    +0.023 A 
ATOM     17  C   UNL     1       2.381   1.410  -0.007  0.00  0.00    +0.033 A 
ATOM     18  C   UNL     1       1.288   1.873  -0.729  0.00  0.00    +0.038 A 
ATOM     19  C   UNL     1       0.102   1.164  -0.712  0.00  0.00    +0.020 A 
ATOM     20  C   UNL     1       0.002  -0.004   0.023  0.00  0.00    +0.015 A 
ATOM     21 BR   UNL     1      -1.387   1.793  -1.694  0.00  0.00    -0.050 Br
ENDBRANCH   1  17
TORSDOF 1
