REMARK  Name = CHEMBL179652
REMARK  14 active torsions:
REMARK  status: ('A' for Active; 'I' for Inactive)
REMARK    1  A    between atoms: C_1  and  C_2
REMARK    2  A    between atoms: C_2  and  O_3
REMARK    3  A    between atoms: O_3  and  C_4
REMARK    4  A    between atoms: C_9  and  N_10
REMARK    5  A    between atoms: C_11  and  C_13
REMARK    6  A    between atoms: C_14  and  C_15
REMARK    7  A    between atoms: C_15  and  N_16
REMARK    8  A    between atoms: N_16  and  C_17
REMARK    9  A    between atoms: N_16  and  C_18
REMARK   10  A    between atoms: C_19  and  N_25
REMARK   11  A    between atoms: C_20  and  C_23
REMARK   12  A    between atoms: N_25  and  C_26
REMARK   13  A    between atoms: N_34  and  C_35
REMARK   14  A    between atoms: C_35  and  C_36
REMARK                            x       y       z     vdW  Elec       q    Type
REMARK                         _______ _______ _______ _____ _____    ______ ____
ROOT
ATOM      1  C   UNL     1       1.651  -3.741  -1.554  0.00  0.00    +0.144 A 
ATOM      2  C   UNL     1       0.344  -4.094  -1.314  0.00  0.00    +0.076 A 
ATOM      3  C   UNL     1       0.007  -4.767  -0.130  0.00  0.00    +0.076 A 
ATOM      4  C   UNL     1       1.025  -5.075   0.805  0.00  0.00    +0.025 A 
ATOM      5  C   UNL     1       2.353  -4.708   0.542  0.00  0.00    +0.039 A 
ATOM      6  C   UNL     1       2.659  -4.052  -0.629  0.00  0.00    +0.077 A 
ATOM      7  C   UNL     1       0.680  -5.755   1.997  0.00  0.00    +0.060 A 
ATOM      8  C   UNL     1      -0.668  -6.091   2.192  0.00  0.00    +0.091 A 
ATOM      9  C   UNL     1      -1.611  -5.746   1.211  0.00  0.00    +0.132 A 
ATOM     10  N   UNL     1      -1.264  -5.117   0.117  0.00  0.00    -0.253 NA
ENDROOT
BRANCH   6  11
ATOM     11  N   UNL     1       3.985  -3.689  -0.896  0.00  0.00    -0.279 N 
ATOM     12  C   UNL     1       4.832  -3.434   0.121  0.00  0.00    +0.241 C 
ATOM     13  O   UNL     1       4.476  -3.619   1.269  0.00  0.00    -0.271 OA
ATOM     14  H   UNL     1       4.293  -3.620  -1.813  0.00  0.00    +0.155 HD
BRANCH  12  15
ATOM     15  C   UNL     1       6.186  -2.933  -0.158  0.00  0.00    +0.061 C 
ATOM     16  C   UNL     1       7.022  -2.682   0.846  0.00  0.00    -0.040 C 
BRANCH  16  17
ATOM     17  C   UNL     1       8.410  -2.169   0.560  0.00  0.00    -0.052 C 
BRANCH  17  18
ATOM     18  N   UNL     1       8.631  -0.919   1.300  0.00  0.00    +0.378 N 
ATOM     19  C   UNL     1      10.021  -0.481   1.117  0.00  0.00    -0.096 C 
ATOM     20  C   UNL     1       7.721   0.117   0.793  0.00  0.00    -0.096 C 
ATOM     21  H   UNL     1       8.453  -1.072   2.281  0.00  0.00    -0.082 HD
ENDBRANCH  17  18
ENDBRANCH  16  17
ENDBRANCH  12  15
ENDBRANCH   6  11
BRANCH   8  22
ATOM     22  C   UNL     1      -1.077  -6.780   3.379  0.00  0.00    +0.103 C 
ATOM     23  N   UNL     1      -1.402  -7.326   4.321  0.00  0.00    -0.191 NA
ENDBRANCH   8  22
BRANCH   7  24
ATOM     24  N   UNL     1       1.639  -6.076   2.937  0.00  0.00    -0.313 N 
ATOM     25  H   UNL     1       1.955  -5.401   3.557  0.00  0.00    +0.152 HD
BRANCH  24  26
ATOM     26  C   UNL     1       2.154  -7.377   2.994  0.00  0.00    +0.032 A 
ATOM     27  C   UNL     1       2.005  -8.232   1.903  0.00  0.00    +0.025 A 
ATOM     28  C   UNL     1       2.506  -9.513   1.944  0.00  0.00    +0.028 A 
ATOM     29  C   UNL     1       3.167  -9.967   3.081  0.00  0.00    +0.049 A 
ATOM     30  C   UNL     1       3.318  -9.107   4.184  0.00  0.00    +0.002 A 
ATOM     31  C   UNL     1       2.812  -7.807   4.131  0.00  0.00    +0.033 A 
ATOM     32  C   UNL     1       4.045  -9.875   5.199  0.00  0.00    +0.027 A 
ATOM     33  C   UNL     1       4.279 -11.090   4.680  0.00  0.00    +0.087 A 
ATOM     34  N   UNL     1       3.762 -11.165   3.415  0.00  0.00    -0.342 N 
BRANCH  34  35
ATOM     35  C   UNL     1       3.830 -12.342   2.546  0.00  0.00    +0.157 C 
BRANCH  35  36
ATOM     36  C   UNL     1       5.021 -12.222   1.630  0.00  0.00    -0.028 A 
ATOM     37  C   UNL     1       4.888 -11.602   0.402  0.00  0.00    +0.005 A 
ATOM     38  C   UNL     1       5.980 -11.492  -0.439  0.00  0.00    +0.000 A 
ATOM     39  C   UNL     1       7.205 -12.000  -0.050  0.00  0.00    +0.000 A 
ATOM     40  C   UNL     1       7.338 -12.619   1.179  0.00  0.00    +0.000 A 
ATOM     41  C   UNL     1       6.247 -12.726   2.021  0.00  0.00    +0.005 A 
ENDBRANCH  35  36
ENDBRANCH  34  35
ENDBRANCH  24  26
ENDBRANCH   7  24
BRANCH   1  42
ATOM     42  O   UNL     1       1.971  -3.089  -2.703  0.00  0.00    -0.490 OA
BRANCH  42  44
ATOM     43  C   UNL     1       1.450  -2.069  -4.831  0.00  0.00    +0.048 C 
ATOM     44  C   UNL     1       0.900  -2.801  -3.604  0.00  0.00    +0.226 C 
ENDBRANCH  42  44
ENDBRANCH   1  42
TORSDOF 11
