REMARK  Name = CHEMBL489501
REMARK  3 active torsions:
REMARK  status: ('A' for Active; 'I' for Inactive)
REMARK    1  A    between atoms: C_3  and  N_8
REMARK    2  A    between atoms: C_22  and  C_23
REMARK    3  A    between atoms: C_23  and  C_24
REMARK                            x       y       z     vdW  Elec       q    Type
REMARK                         _______ _______ _______ _____ _____    ______ ____
ROOT
ATOM      1  N   UNL     1       3.583   2.124  -0.021  0.00  0.00    -0.299 N 
ATOM      2  C   UNL     1       4.785   1.453   0.068  0.00  0.00    +0.134 A 
ATOM      3  C   UNL     1       6.008   2.163   0.173  0.00  0.00    +0.041 A 
ATOM      4  C   UNL     1       6.049   3.556   0.191  0.00  0.00    +0.023 A 
ATOM      5  C   UNL     1       7.274   4.199   0.297  0.00  0.00    +0.004 A 
ATOM      6  C   UNL     1       8.473   3.454   0.385  0.00  0.00    +0.049 A 
ATOM      7  C   UNL     1       8.437   2.073   0.367  0.00  0.00    +0.054 A 
ATOM      8  C   UNL     1       7.211   1.413   0.262  0.00  0.00    +0.078 A 
ATOM      9  N   UNL     1       7.135   0.071   0.242  0.00  0.00    -0.235 NA
ATOM     10  C   UNL     1       5.974  -0.529   0.143  0.00  0.00    +0.223 A 
ATOM     11  N   UNL     1       4.827   0.128   0.063  0.00  0.00    -0.220 NA
ATOM     12  N   UNL     1       9.506   4.364   0.478  0.00  0.00    -0.360 N 
ATOM     13  H   UNL     1      10.446   4.134   0.550  0.00  0.00    +0.165 HD
ATOM     14  C   UNL     1       9.007   5.640   0.451  0.00  0.00    +0.087 A 
ATOM     15  C   UNL     1       7.671   5.611   0.344  0.00  0.00    -0.014 A 
ATOM     16  H   UNL     1       3.571   3.091  -0.094  0.00  0.00    +0.154 HD
ENDROOT
BRANCH   1  19
ATOM     17  C   UNL     1       1.088  -0.466   0.744  0.00  0.00    +0.003 A 
ATOM     18  C   UNL     1       2.277   0.238   0.731  0.00  0.00    +0.023 A 
ATOM     19  C   UNL     1       2.381   1.410  -0.007  0.00  0.00    +0.033 A 
ATOM     20  C   UNL     1       1.289   1.871  -0.730  0.00  0.00    +0.038 A 
ATOM     21  C   UNL     1       0.102   1.163  -0.713  0.00  0.00    +0.020 A 
ATOM     22  C   UNL     1       0.002  -0.004   0.024  0.00  0.00    +0.015 A 
ATOM     23 BR   UNL     1      -1.386   1.790  -1.697  0.00  0.00    -0.050 Br
ENDBRANCH   1  19
BRANCH  15  24
ATOM     24  C   UNL     1       6.752   6.804   0.282  0.00  0.00    +0.133 C 
BRANCH  24  25
ATOM     25  C   UNL     1       6.233   7.111   1.663  0.00  0.00    +0.220 C 
ATOM     26  O   UNL     1       6.577   6.428   2.605  0.00  0.00    -0.275 OA
ATOM     27  N   UNL     1       5.388   8.143   1.852  0.00  0.00    -0.297 N 
ATOM     28  C   UNL     1       4.952   8.981   0.723  0.00  0.00    +0.136 C 
ATOM     29  C   UNL     1       3.423   9.082   0.758  0.00  0.00    +0.179 C 
ATOM     30  O   UNL     1       3.009   9.504   2.060  0.00  0.00    -0.377 OA
ATOM     31  C   UNL     1       3.348   8.592   3.107  0.00  0.00    +0.179 C 
ATOM     32  C   UNL     1       4.869   8.462   3.191  0.00  0.00    +0.136 C 
ENDBRANCH  24  25
ENDBRANCH  15  24
TORSDOF 3
