REMARK  Name = CHEMBL257861
REMARK  8 active torsions:
REMARK  status: ('A' for Active; 'I' for Inactive)
REMARK    1  A    between atoms: C_5  and  C_7
REMARK    2  A    between atoms: C_7  and  O_8
REMARK    3  A    between atoms: O_8  and  C_9
REMARK    4  A    between atoms: C_12  and  N_16
REMARK    5  A    between atoms: C_23  and  O_24
REMARK    6  A    between atoms: O_24  and  C_25
REMARK    7  A    between atoms: C_25  and  C_26
REMARK    8  A    between atoms: C_26  and  O_27
REMARK                            x       y       z     vdW  Elec       q    Type
REMARK                         _______ _______ _______ _____ _____    ______ ____
ROOT
ATOM      1  N   UNL     1      -0.691  -8.169  -0.040  0.00  0.00    -0.299 N 
ATOM      2  C   UNL     1       0.314  -8.977   0.455  0.00  0.00    +0.141 A 
ATOM      3  C   UNL     1       0.228 -10.377   0.357  0.00  0.00    +0.121 A 
ATOM      4  C   UNL     1       1.282 -11.154   0.878  0.00  0.00    +0.164 A 
ATOM      5  N   UNL     1       0.955 -12.457   0.658  0.00  0.00    -0.257 N 
ATOM      6  H   UNL     1       1.496 -13.222   0.912  0.00  0.00    +0.191 HD
ATOM      7  N   UNL     1      -0.282 -12.521   0.009  0.00  0.00    -0.134 NA
ATOM      8  C   UNL     1      -0.746 -11.316  -0.188  0.00  0.00    +0.246 A 
ATOM      9  N   UNL     1       2.316 -10.531   1.443  0.00  0.00    -0.216 NA
ATOM     10  C   UNL     1       2.352  -9.218   1.512  0.00  0.00    +0.225 A 
ATOM     11  N   UNL     1       1.390  -8.451   1.032  0.00  0.00    -0.220 NA
ATOM     12  H   UNL     1      -1.505  -8.566  -0.389  0.00  0.00    +0.154 HD
ENDROOT
BRANCH   1  16
ATOM     13  C   UNL     1      -0.228  -4.026  -0.037  0.00  0.00    +0.139 A 
ATOM     14  C   UNL     1       0.876  -4.847  -0.210  0.00  0.00    +0.049 A 
ATOM     15  C   UNL     1       0.724  -6.219  -0.211  0.00  0.00    +0.027 A 
ATOM     16  C   UNL     1      -0.536  -6.778  -0.038  0.00  0.00    +0.034 A 
ATOM     17  C   UNL     1      -1.641  -5.956   0.136  0.00  0.00    +0.047 A 
ATOM     18  C   UNL     1      -1.486  -4.583   0.142  0.00  0.00    +0.084 A 
ATOM     19 CL   UNL     1      -2.867  -3.554   0.366  0.00  0.00    -0.080 Cl
BRANCH  13  20
ATOM     20  O   UNL     1      -0.076  -2.674  -0.036  0.00  0.00    -0.484 OA
BRANCH  20  21
ATOM     21  C   UNL     1       1.247  -2.170  -0.225  0.00  0.00    +0.284 C 
BRANCH  21  26
ATOM     22  C   UNL     1       0.005   1.381   0.022  0.00  0.00    +0.003 A 
ATOM     23  C   UNL     1       1.204   2.056  -0.145  0.00  0.00    +0.020 A 
ATOM     24  C   UNL     1       2.365   1.331  -0.331  0.00  0.00    +0.111 A 
ATOM     25  N   UNL     1       2.341   0.013  -0.350  0.00  0.00    -0.256 NA
ATOM     26  C   UNL     1       1.220  -0.663  -0.194  0.00  0.00    +0.078 A 
ATOM     27  C   UNL     1       0.019  -0.005  -0.004  0.00  0.00    +0.027 A 
ENDBRANCH  21  26
ENDBRANCH  20  21
ENDBRANCH  13  20
ENDBRANCH   1  16
BRANCH   8  28
ATOM     28  O   UNL     1      -1.921 -10.995  -0.790  0.00  0.00    -0.473 OA
BRANCH  28  29
ATOM     29  C   UNL     1      -2.730 -12.078  -1.254  0.00  0.00    +0.258 C 
BRANCH  29  30
ATOM     30  C   UNL     1      -4.003 -11.525  -1.898  0.00  0.00    +0.196 C 
BRANCH  30  31
ATOM     31  O   UNL     1      -3.660 -10.781  -3.069  0.00  0.00    -0.392 OA
ATOM     32  H   UNL     1      -4.420 -10.401  -3.530  0.00  0.00    +0.210 HD
ENDBRANCH  30  31
ENDBRANCH  29  30
ENDBRANCH  28  29
ENDBRANCH   8  28
TORSDOF 8
