REMARK  Name = CHEMBL284326
REMARK  9 active torsions:
REMARK  status: ('A' for Active; 'I' for Inactive)
REMARK    1  A    between atoms: C_1  and  N_2
REMARK    2  A    between atoms: N_5  and  C_8
REMARK    3  A    between atoms: C_8  and  C_9
REMARK    4  A    between atoms: C_9  and  C_10
REMARK    5  A    between atoms: C_10  and  O_11
REMARK    6  A    between atoms: O_11  and  C_12
REMARK    7  A    between atoms: N_20  and  C_21
REMARK    8  A    between atoms: C_30  and  N_31
REMARK    9  A    between atoms: C_32  and  C_34
REMARK                            x       y       z     vdW  Elec       q    Type
REMARK                         _______ _______ _______ _____ _____    ______ ____
ROOT
ATOM      1  C   UNL     1       1.352  -8.003   3.283  0.00  0.00    +0.162 A 
ATOM      2  C   UNL     1       0.744  -8.806   2.356  0.00  0.00    +0.079 A 
ATOM      3  C   UNL     1       0.682 -10.186   2.612  0.00  0.00    +0.098 A 
ATOM      4  C   UNL     1       1.246 -10.690   3.808  0.00  0.00    +0.131 A 
ATOM      5  C   UNL     1       1.169 -12.086   4.040  0.00  0.00    +0.152 A 
ATOM      6  N   UNL     1       0.575 -12.843   3.129  0.00  0.00    -0.218 NA
ATOM      7  C   UNL     1       0.062 -12.324   2.025  0.00  0.00    +0.224 A 
ATOM      8  N   UNL     1       0.104 -11.040   1.756  0.00  0.00    -0.234 NA
ATOM      9  N   UNL     1       1.699 -12.643   5.187  0.00  0.00    -0.298 N 
ATOM     10  N   UNL     1       1.827  -9.865   4.679  0.00  0.00    -0.223 NA
ATOM     11  C   UNL     1       1.897  -8.571   4.449  0.00  0.00    +0.168 A 
ATOM     12  H   UNL     1       2.057 -12.071   5.884  0.00  0.00    +0.154 HD
ENDROOT
BRANCH   9  13
ATOM     13  C   UNL     1       1.722 -14.033   5.343  0.00  0.00    +0.034 A 
ATOM     14  C   UNL     1       1.530 -14.595   6.599  0.00  0.00    +0.026 A 
ATOM     15  C   UNL     1       1.552 -15.967   6.752  0.00  0.00    +0.041 A 
ATOM     16  C   UNL     1       1.764 -16.784   5.655  0.00  0.00    +0.142 A 
ATOM     17  C   UNL     1       1.957 -16.226   4.401  0.00  0.00    +0.078 A 
ATOM     18  C   UNL     1       1.930 -14.853   4.243  0.00  0.00    +0.046 A 
ATOM     19 CL   UNL     1       2.224 -17.253   3.026  0.00  0.00    -0.081 Cl
ATOM     20  F   UNL     1       1.786 -18.126   5.806  0.00  0.00    -0.204 F 
ENDBRANCH   9  13
BRANCH  11  21
ATOM     21  N   UNL     1       2.518  -7.746   5.383  0.00  0.00    -0.264 N 
ATOM     22  C   UNL     1       3.045  -8.275   6.505  0.00  0.00    +0.242 C 
ATOM     23  O   UNL     1       2.978  -9.473   6.702  0.00  0.00    -0.270 OA
ATOM     24  H   UNL     1       2.571  -6.790   5.226  0.00  0.00    +0.157 HD
BRANCH  22  25
ATOM     25  C   UNL     1       3.701  -7.403   7.491  0.00  0.00    +0.060 C 
ATOM     26  C   UNL     1       4.221  -7.926   8.598  0.00  0.00    +0.013 C 
ENDBRANCH  22  25
ENDBRANCH  11  21
BRANCH   1  27
ATOM     27  O   UNL     1       1.434  -6.663   3.075  0.00  0.00    -0.489 OA
BRANCH  27  28
ATOM     28  C   UNL     1       0.858  -6.157   1.869  0.00  0.00    +0.227 C 
BRANCH  28  29
ATOM     29  C   UNL     1       1.047  -4.640   1.811  0.00  0.00    +0.022 C 
BRANCH  29  30
ATOM     30  C   UNL     1       0.430  -4.098   0.520  0.00  0.00    -0.075 C 
BRANCH  30  35
ATOM     31  C   UNL     1       1.726   1.190  -0.931  0.00  0.00    +0.104 C 
ATOM     32  N   UNL     1       1.520  -0.261  -0.827  0.00  0.00    -0.309 NA
ATOM     33  C   UNL     1       0.089  -0.587  -0.762  0.00  0.00    +0.065 C 
ATOM     34  C   UNL     1      -0.084  -2.107  -0.714  0.00  0.00    -0.063 C 
ATOM     35  N   UNL     1       0.611  -2.642   0.464  0.00  0.00    +0.381 N 
ATOM     36  C   UNL     1       2.044  -2.329   0.374  0.00  0.00    -0.063 C 
ATOM     37  C   UNL     1       2.234  -0.811   0.335  0.00  0.00    +0.065 C 
ATOM     38  H   UNL     1       0.228  -2.223   1.299  0.00  0.00    -0.082 HD
ENDBRANCH  30  35
ENDBRANCH  29  30
ENDBRANCH  28  29
ENDBRANCH  27  28
ENDBRANCH   1  27
TORSDOF 8
