REMARK  Name = CHEMBL330323
REMARK  4 active torsions:
REMARK  status: ('A' for Active; 'I' for Inactive)
REMARK    1  A    between atoms: C_1  and  O_2
REMARK    2  A    between atoms: O_2  and  C_3
REMARK    3  A    between atoms: C_8  and  O_9
REMARK    4  A    between atoms: O_9  and  C_10
REMARK                            x       y       z     vdW  Elec       q    Type
REMARK                         _______ _______ _______ _____ _____    ______ ____
ROOT
ATOM      1  C   UNL     1      -1.278  -0.672   0.674  0.00  0.00    +0.162 A 
ATOM      2  C   UNL     1      -2.405   0.074   0.476  0.00  0.00    +0.062 A 
ATOM      3  C   UNL     1      -3.604  -0.559   0.130  0.00  0.00    +0.044 A 
ATOM      4  C   UNL     1      -3.643  -1.969  -0.013  0.00  0.00    +0.080 A 
ATOM      5  C   UNL     1      -2.476  -2.714   0.195  0.00  0.00    +0.078 A 
ATOM      6  C   UNL     1      -1.307  -2.066   0.529  0.00  0.00    +0.164 A 
ATOM      7  N   UNL     1      -4.805  -2.551  -0.345  0.00  0.00    -0.235 NA
ATOM      8  C   UNL     1      -5.882  -1.827  -0.534  0.00  0.00    +0.223 A 
ATOM      9  N   UNL     1      -5.894  -0.509  -0.411  0.00  0.00    -0.220 NA
ATOM     10  C   UNL     1      -4.799   0.167  -0.086  0.00  0.00    +0.135 A 
ATOM     11  N   UNL     1      -4.826   1.542   0.039  0.00  0.00    -0.285 N 
ATOM     12  C   UNL     1      -6.030   2.224  -0.057  0.00  0.00    +0.109 A 
ATOM     13  C   UNL     1      -6.040   3.632  -0.166  0.00  0.00    +0.020 A 
ATOM     14  C   UNL     1      -4.859   4.386  -0.184  0.00  0.00    +0.012 A 
ATOM     15  C   UNL     1      -4.930   5.743  -0.292  0.00  0.00    +0.001 A 
ATOM     16  C   UNL     1      -6.158   6.393  -0.385  0.00  0.00    +0.001 A 
ATOM     17  C   UNL     1      -7.326   5.692  -0.371  0.00  0.00    +0.008 A 
ATOM     18  C   UNL     1      -7.290   4.295  -0.262  0.00  0.00    -0.013 A 
ATOM     19  C   UNL     1      -8.462   3.513  -0.243  0.00  0.00    +0.026 A 
ATOM     20  C   UNL     1      -8.349   2.162  -0.134  0.00  0.00    +0.085 A 
ATOM     21  N   UNL     1      -7.169   1.560  -0.051  0.00  0.00    -0.349 N 
ATOM     22  H   UNL     1      -4.003   2.031   0.194  0.00  0.00    +0.155 HD
ATOM     23  H   UNL     1      -7.144   0.593   0.021  0.00  0.00    +0.167 HD
ENDROOT
BRANCH   1  25
ATOM     24  C   UNL     1      -0.147   1.367   1.143  0.00  0.00    +0.277 C 
ATOM     25  O   UNL     1      -0.113  -0.055   1.010  0.00  0.00    -0.491 OA
ENDBRANCH   1  25
BRANCH   6  26
ATOM     26  O   UNL     1      -0.172  -2.786   0.726  0.00  0.00    -0.491 OA
ATOM     27  C   UNL     1      -0.266  -4.203   0.563  0.00  0.00    +0.277 C 
ENDBRANCH   6  26
TORSDOF 2
