REMARK  Name = CHEMBL90541
REMARK  4 active torsions:
REMARK  status: ('A' for Active; 'I' for Inactive)
REMARK    1  A    between atoms: C_1  and  O_2
REMARK    2  A    between atoms: O_2  and  C_3
REMARK    3  A    between atoms: C_8  and  O_9
REMARK    4  A    between atoms: O_9  and  C_10
REMARK                            x       y       z     vdW  Elec       q    Type
REMARK                         _______ _______ _______ _____ _____    ______ ____
ROOT
ATOM      1  C   UNL     1       0.606  -0.608  -1.056  0.00  0.00    +0.162 A 
ATOM      2  C   UNL     1       1.162   0.157  -2.043  0.00  0.00    +0.062 A 
ATOM      3  C   UNL     1       1.784  -0.463  -3.133  0.00  0.00    +0.044 A 
ATOM      4  C   UNL     1       1.835  -1.878  -3.207  0.00  0.00    +0.080 A 
ATOM      5  C   UNL     1       1.259  -2.641  -2.184  0.00  0.00    +0.078 A 
ATOM      6  C   UNL     1       0.657  -2.007  -1.120  0.00  0.00    +0.164 A 
ATOM      7  N   UNL     1       2.438  -2.447  -4.262  0.00  0.00    -0.235 NA
ATOM      8  C   UNL     1       2.969  -1.705  -5.204  0.00  0.00    +0.223 A 
ATOM      9  N   UNL     1       2.946  -0.382  -5.177  0.00  0.00    -0.220 NA
ATOM     10  C   UNL     1       2.376   0.281  -4.180  0.00  0.00    +0.136 A 
ATOM     11  N   UNL     1       2.359   1.663  -4.166  0.00  0.00    -0.267 N 
ATOM     12  C   UNL     1       2.943   2.375  -5.202  0.00  0.00    +0.241 A 
ATOM     13  N   UNL     1       2.923   3.695  -5.170  0.00  0.00    -0.211 NA
ATOM     14  C   UNL     1       3.490   4.377  -6.173  0.00  0.00    +0.095 A 
ATOM     15  C   UNL     1       3.503   5.780  -6.199  0.00  0.00    +0.030 A 
ATOM     16  C   UNL     1       4.093   6.427  -7.242  0.00  0.00    +0.002 A 
ATOM     17  C   UNL     1       4.684   5.717  -8.286  0.00  0.00    +0.002 A 
ATOM     18  C   UNL     1       4.690   4.355  -8.294  0.00  0.00    +0.032 A 
ATOM     19  C   UNL     1       4.092   3.653  -7.235  0.00  0.00    +0.112 A 
ATOM     20  N   UNL     1       4.074   2.316  -7.199  0.00  0.00    -0.144 NA
ATOM     21  N   UNL     1       3.518   1.710  -6.206  0.00  0.00    -0.112 NA
ATOM     22  H   UNL     1       1.937   2.135  -3.430  0.00  0.00    +0.157 HD
ENDROOT
BRANCH   1  24
ATOM     23  C   UNL     1      -0.017   1.425   0.010  0.00  0.00    +0.277 C 
ATOM     24  O   UNL     1       0.002  -0.004   0.002  0.00  0.00    -0.491 OA
ENDBRANCH   1  24
BRANCH   6  25
ATOM     25  O   UNL     1       0.102  -2.745  -0.124  0.00  0.00    -0.491 OA
ATOM     26  C   UNL     1       0.186  -4.167  -0.246  0.00  0.00    +0.277 C 
ENDBRANCH   6  25
TORSDOF 2
