REMARK  Name = CHEMBL471058
REMARK  7 active torsions:
REMARK  status: ('A' for Active; 'I' for Inactive)
REMARK    1  A    between atoms: C_1  and  C_2
REMARK    2  A    between atoms: C_2  and  C_3
REMARK    3  A    between atoms: N_7  and  C_8
REMARK    4  A    between atoms: C_8  and  C_9
REMARK    5  A    between atoms: C_12  and  N_15
REMARK    6  A    between atoms: C_21  and  N_25
REMARK    7  A    between atoms: N_25  and  C_26
REMARK                            x       y       z     vdW  Elec       q    Type
REMARK                         _______ _______ _______ _____ _____    ______ ____
ROOT
ATOM      1  N   UNL     1       0.402  -5.177  -4.744  0.00  0.00    -0.294 N 
ATOM      2  C   UNL     1       1.536  -5.725  -4.181  0.00  0.00    +0.165 A 
ATOM      3  N   UNL     1       2.109  -5.439  -3.029  0.00  0.00    -0.205 NA
ATOM      4  C   UNL     1       3.217  -6.056  -2.604  0.00  0.00    +0.174 A 
ATOM      5  C   UNL     1       3.745  -7.042  -3.469  0.00  0.00    +0.099 A 
ATOM      6  S   UNL     1       2.600  -7.010  -4.824  0.00  0.00    -0.047 S 
ATOM      7  C   UNL     1       4.882  -7.749  -3.144  0.00  0.00    +0.142 A 
ATOM      8  N   UNL     1       5.484  -7.480  -1.982  0.00  0.00    -0.219 NA
ATOM      9  C   UNL     1       4.984  -6.558  -1.181  0.00  0.00    +0.225 A 
ATOM     10  N   UNL     1       3.907  -5.866  -1.454  0.00  0.00    -0.215 NA
ATOM     11  H   UNL     1       0.042  -5.545  -5.566  0.00  0.00    +0.154 HD
ENDROOT
BRANCH   1  15
ATOM     12  C   UNL     1      -1.475  -1.940  -2.916  0.00  0.00    -0.028 A 
ATOM     13  C   UNL     1      -0.127  -2.164  -2.706  0.00  0.00    +0.007 A 
ATOM     14  C   UNL     1       0.499  -3.236  -3.311  0.00  0.00    +0.023 A 
ATOM     15  C   UNL     1      -0.228  -4.091  -4.130  0.00  0.00    +0.033 A 
ATOM     16  C   UNL     1      -1.583  -3.863  -4.338  0.00  0.00    +0.023 A 
ATOM     17  C   UNL     1      -2.203  -2.792  -3.726  0.00  0.00    +0.007 A 
BRANCH  12  18
ATOM     18  C   UNL     1      -2.155  -0.768  -2.254  0.00  0.00    +0.158 C 
BRANCH  18  23
ATOM     19  C   UNL     1      -2.232  -1.304   0.200  0.00  0.00    +0.110 A 
ATOM     20  N   UNL     1      -3.124  -1.733   1.050  0.00  0.00    -0.241 NA
ATOM     21  C   UNL     1      -4.285  -1.935   0.409  0.00  0.00    +0.130 A 
ATOM     22  C   UNL     1      -4.105  -1.619  -0.887  0.00  0.00    +0.107 A 
ATOM     23  N   UNL     1      -2.805  -1.214  -1.020  0.00  0.00    -0.330 N 
BRANCH  19  25
ATOM     24  C   UNL     1      -0.694   0.535   0.833  0.00  0.00    +0.012 C 
ATOM     25  C   UNL     1      -0.802  -0.960   0.527  0.00  0.00    +0.071 C 
ENDBRANCH  19  25
ENDBRANCH  18  23
ENDBRANCH  12  18
ENDBRANCH   1  15
BRANCH   7  26
ATOM     26  N   UNL     1       5.389  -8.714  -4.002  0.00  0.00    -0.298 N 
ATOM     27  H   UNL     1       4.992  -8.842  -4.877  0.00  0.00    +0.154 HD
BRANCH  26  28
ATOM     28  C   UNL     1       6.475  -9.502  -3.604  0.00  0.00    +0.034 A 
ATOM     29  C   UNL     1       6.667  -9.794  -2.260  0.00  0.00    +0.026 A 
ATOM     30  C   UNL     1       7.739 -10.572  -1.869  0.00  0.00    +0.041 A 
ATOM     31  C   UNL     1       8.622 -11.062  -2.816  0.00  0.00    +0.142 A 
ATOM     32  C   UNL     1       8.433 -10.772  -4.158  0.00  0.00    +0.078 A 
ATOM     33  C   UNL     1       7.358  -9.998  -4.554  0.00  0.00    +0.046 A 
ATOM     34 CL   UNL     1       9.543 -11.386  -5.343  0.00  0.00    -0.081 Cl
ATOM     35  F   UNL     1       9.671 -11.822  -2.431  0.00  0.00    -0.204 F 
ENDBRANCH  26  28
ENDBRANCH   7  26
TORSDOF 6
