REMARK  Name = CHEMBL92902
REMARK  5 active torsions:
REMARK  status: ('A' for Active; 'I' for Inactive)
REMARK    1  A    between atoms: C_1  and  N_2
REMARK    2  A    between atoms: C_6  and  C_8
REMARK    3  A    between atoms: N_10  and  C_11
REMARK    4  A    between atoms: C_17  and  N_21
REMARK    5  A    between atoms: N_21  and  C_22
REMARK                            x       y       z     vdW  Elec       q    Type
REMARK                         _______ _______ _______ _____ _____    ______ ____
ROOT
ATOM      1  C   UNL     1       3.573  -2.785   3.491  0.00  0.00    +0.034 A 
ATOM      2  C   UNL     1       3.459  -4.162   3.710  0.00  0.00    +0.025 A 
ATOM      3  C   UNL     1       4.234  -4.791   4.636  0.00  0.00    +0.030 A 
ATOM      4  C   UNL     1       5.162  -4.054   5.386  0.00  0.00    +0.076 A 
ATOM      5  C   UNL     1       5.282  -2.659   5.170  0.00  0.00    +0.042 A 
ATOM      6  C   UNL     1       4.480  -2.033   4.210  0.00  0.00    +0.036 A 
ATOM      7  C   UNL     1       6.228  -1.941   5.942  0.00  0.00    +0.134 A 
ATOM      8  N   UNL     1       6.952  -2.612   6.828  0.00  0.00    -0.220 NA
ATOM      9  C   UNL     1       6.804  -3.917   6.995  0.00  0.00    +0.223 A 
ATOM     10  N   UNL     1       5.945  -4.632   6.309  0.00  0.00    -0.235 NA
ENDROOT
BRANCH   1  13
ATOM     11  C   UNL     1       1.495  -2.581   2.353  0.00  0.00    +0.245 C 
ATOM     12  O   UNL     1       1.079  -3.547   2.963  0.00  0.00    -0.270 OA
ATOM     13  N   UNL     1       2.765  -2.166   2.533  0.00  0.00    -0.282 N 
ATOM     14  H   UNL     1       3.118  -1.439   1.997  0.00  0.00    +0.155 HD
BRANCH  11  20
ATOM     15  C   UNL     1       0.756   0.886  -1.120  0.00  0.00    +0.105 C 
ATOM     16  N   UNL     1       0.307  -0.349  -0.464  0.00  0.00    -0.301 NA
ATOM     17  C   UNL     1      -1.099  -0.241  -0.042  0.00  0.00    +0.088 C 
ATOM     18  C   UNL     1      -1.603  -1.637   0.334  0.00  0.00    +0.043 C 
ATOM     19  C   UNL     1      -0.625  -2.295   1.267  0.00  0.00    -0.016 C 
ATOM     20  C   UNL     1       0.612  -1.864   1.421  0.00  0.00    +0.025 C 
ATOM     21  C   UNL     1       1.161  -0.674   0.686  0.00  0.00    +0.124 C 
ENDBRANCH  11  20
ENDBRANCH   1  13
BRANCH   7  22
ATOM     22  N   UNL     1       6.392  -0.581   5.778  0.00  0.00    -0.299 N 
ATOM     23  H   UNL     1       5.804  -0.090   5.182  0.00  0.00    +0.154 HD
BRANCH  22  24
ATOM     24  C   UNL     1       7.405   0.090   6.469  0.00  0.00    +0.033 A 
ATOM     25  C   UNL     1       7.215   1.403   6.880  0.00  0.00    +0.023 A 
ATOM     26  C   UNL     1       8.218   2.063   7.562  0.00  0.00    +0.003 A 
ATOM     27  C   UNL     1       9.410   1.419   7.837  0.00  0.00    +0.015 A 
ATOM     28  C   UNL     1       9.602   0.111   7.430  0.00  0.00    +0.020 A 
ATOM     29  C   UNL     1       8.601  -0.557   6.751  0.00  0.00    +0.038 A 
ATOM     30 BR   UNL     1      11.235  -0.766   7.808  0.00  0.00    -0.050 Br
ENDBRANCH  22  24
ENDBRANCH   7  22
TORSDOF 4
