REMARK  Name = CHEMBL119156
REMARK  9 active torsions:
REMARK  status: ('A' for Active; 'I' for Inactive)
REMARK    1  A    between atoms: C_1  and  O_2
REMARK    2  A    between atoms: O_2  and  C_3
REMARK    3  A    between atoms: C_5  and  C_18
REMARK    4  A    between atoms: C_7  and  C_10
REMARK    5  A    between atoms: C_8  and  O_9
REMARK    6  A    between atoms: C_10  and  S_11
REMARK    7  A    between atoms: S_11  and  C_12
REMARK    8  A    between atoms: C_19  and  C_20
REMARK    9  A    between atoms: C_19  and  C_22
REMARK                            x       y       z     vdW  Elec       q    Type
REMARK                         _______ _______ _______ _____ _____    ______ ____
ROOT
ATOM      1  C   UNL     1      -1.327  -0.991   0.461  0.00  0.00    +0.162 A 
ATOM      2  C   UNL     1      -2.401  -0.152   0.248  0.00  0.00    +0.057 A 
ATOM      3  C   UNL     1      -3.705  -0.669   0.263  0.00  0.00    -0.020 A 
ATOM      4  C   UNL     1      -3.908  -2.038   0.494  0.00  0.00    +0.016 A 
ATOM      5  C   UNL     1      -2.829  -2.866   0.706  0.00  0.00    +0.008 A 
ATOM      6  C   UNL     1      -1.538  -2.352   0.686  0.00  0.00    +0.163 A 
ENDROOT
BRANCH   1   8
ATOM      7  C   UNL     1       0.080   0.909   0.212  0.00  0.00    +0.277 C 
ATOM      8  O   UNL     1      -0.062  -0.493   0.447  0.00  0.00    -0.491 OA
ENDBRANCH   1   8
BRANCH   6   9
ATOM      9  O   UNL     1      -0.479  -3.176   0.890  0.00  0.00    -0.503 OA
ATOM     10  H   UNL     1      -0.222  -3.264   1.818  0.00  0.00    +0.292 HD
ENDBRANCH   6   9
BRANCH   3  11
ATOM     11  C   UNL     1      -4.849   0.215   0.038  0.00  0.00    +0.032 C 
ATOM     12  C   UNL     1      -5.956  -0.249  -0.639  0.00  0.00    +0.114 C 
BRANCH  12  13
ATOM     13  C   UNL     1      -7.169   0.580  -0.722  0.00  0.00    +0.252 C 
ATOM     14  O   UNL     1      -7.195   1.675  -0.192  0.00  0.00    -0.270 OA
ATOM     15  N   UNL     1      -8.252   0.126  -1.384  0.00  0.00    -0.325 N 
ATOM     16  H   UNL     1      -8.231  -0.747  -1.807  0.00  0.00    +0.145 HD
ATOM     17  H   UNL     1      -9.051   0.672  -1.438  0.00  0.00    +0.145 HD
ENDBRANCH  12  13
BRANCH  12  18
ATOM     18  C   UNL     1      -5.926  -1.537  -1.264  0.00  0.00    +0.104 C 
ATOM     19  N   UNL     1      -5.901  -2.559  -1.758  0.00  0.00    -0.191 NA
ENDBRANCH  12  18
ENDBRANCH   3  11
BRANCH   5  20
ATOM     20  C   UNL     1      -3.049  -4.336   0.955  0.00  0.00    +0.114 C 
BRANCH  20  21
ATOM     21  S   UNL     1      -3.037  -5.226  -0.625  0.00  0.00    -0.101 S 
BRANCH  21  22
ATOM     22  C   UNL     1      -3.303  -6.907  -0.170  0.00  0.00    +0.097 A 
ATOM     23  C   UNL     1      -3.348  -7.890  -1.155  0.00  0.00    +0.035 A 
ATOM     24  C   UNL     1      -3.557  -9.205  -0.783  0.00  0.00    +0.004 A 
ATOM     25  C   UNL     1      -3.714  -9.496   0.566  0.00  0.00    +0.020 A 
ATOM     26  C   UNL     1      -3.658  -8.472   1.489  0.00  0.00    +0.112 A 
ATOM     27  N   UNL     1      -3.452  -7.226   1.107  0.00  0.00    -0.249 NA
ENDBRANCH  21  22
ENDBRANCH  20  21
ENDBRANCH   5  20
TORSDOF 8
