REMARK  Name = CHEMBL26641
REMARK  7 active torsions:
REMARK  status: ('A' for Active; 'I' for Inactive)
REMARK    1  A    between atoms: C_1  and  O_2
REMARK    2  A    between atoms: O_2  and  C_3
REMARK    3  A    between atoms: C_8  and  O_9
REMARK    4  A    between atoms: O_9  and  C_10
REMARK    5  A    between atoms: C_10  and  C_11
REMARK    6  A    between atoms: C_11  and  C_12
REMARK    7  A    between atoms: N_22  and  C_23
REMARK                            x       y       z     vdW  Elec       q    Type
REMARK                         _______ _______ _______ _____ _____    ______ ____
ROOT
ATOM      1  C   UNL     1       1.273  -0.502   0.679  0.00  0.00    +0.162 A 
ATOM      2  C   UNL     1       1.623   0.213   1.789  0.00  0.00    +0.062 A 
ATOM      3  C   UNL     1       2.338  -0.411   2.819  0.00  0.00    +0.044 A 
ATOM      4  C   UNL     1       2.693  -1.778   2.705  0.00  0.00    +0.080 A 
ATOM      5  C   UNL     1       2.324  -2.492   1.558  0.00  0.00    +0.078 A 
ATOM      6  C   UNL     1       1.617  -1.856   0.561  0.00  0.00    +0.164 A 
ATOM      7  N   UNL     1       3.378  -2.352   3.706  0.00  0.00    -0.235 NA
ATOM      8  C   UNL     1       3.710  -1.658   4.769  0.00  0.00    +0.223 A 
ATOM      9  N   UNL     1       3.399  -0.380   4.919  0.00  0.00    -0.220 NA
ATOM     10  C   UNL     1       2.724   0.284   3.990  0.00  0.00    +0.134 A 
ATOM     11  N   UNL     1       2.408   1.617   4.160  0.00  0.00    -0.297 N 
ATOM     12  H   UNL     1       1.835   2.065   3.518  0.00  0.00    +0.154 HD
ENDROOT
BRANCH  11  13
ATOM     13  C   UNL     1       2.914   2.321   5.258  0.00  0.00    +0.068 A 
ATOM     14  C   UNL     1       4.015   1.835   5.949  0.00  0.00    +0.027 A 
ATOM     15  C   UNL     1       4.513   2.532   7.032  0.00  0.00    +0.017 A 
ATOM     16  C   UNL     1       3.917   3.716   7.429  0.00  0.00    +0.021 A 
ATOM     17  C   UNL     1       2.820   4.205   6.743  0.00  0.00    +0.055 A 
ATOM     18  C   UNL     1       2.319   3.514   5.655  0.00  0.00    +0.145 A 
ATOM     19  F   UNL     1       1.251   3.994   4.981  0.00  0.00    -0.204 F 
ATOM     20 BR   UNL     1       4.603   4.667   8.913  0.00  0.00    -0.050 Br
ENDBRANCH  11  13
BRANCH   1  22
ATOM     21  C   UNL     1       0.258   1.486  -0.141  0.00  0.00    +0.277 C 
ATOM     22  O   UNL     1       0.579   0.104  -0.320  0.00  0.00    -0.491 OA
ENDBRANCH   1  22
BRANCH   6  23
ATOM     23  O   UNL     1       1.253  -2.548  -0.550  0.00  0.00    -0.488 OA
BRANCH  23  24
ATOM     24  C   UNL     1       1.632  -3.924  -0.611  0.00  0.00    +0.229 C 
BRANCH  24  25
ATOM     25  C   UNL     1       1.139  -4.531  -1.925  0.00  0.00    +0.044 C 
BRANCH  25  26
ATOM     26  C   UNL     1       1.545  -6.005  -1.991  0.00  0.00    -0.011 C 
ATOM     27  C   UNL     1       3.072  -6.113  -2.053  0.00  0.00    -0.016 C 
ATOM     28  C   UNL     1       3.468  -7.584  -2.198  0.00  0.00    -0.082 C 
ATOM     29  N   UNL     1       2.886  -8.132  -3.430  0.00  0.00    +0.379 N 
ATOM     30  C   UNL     1       1.421  -8.097  -3.347  0.00  0.00    -0.082 C 
ATOM     31  C   UNL     1       0.946  -6.646  -3.246  0.00  0.00    -0.016 C 
ATOM     32  H   UNL     1       3.191  -7.581  -4.218  0.00  0.00    -0.086 HD
ATOM     33  H   UNL     1       3.193  -9.085  -3.550  0.00  0.00    -0.086 HD
ENDBRANCH  25  26
ENDBRANCH  24  25
ENDBRANCH  23  24
ENDBRANCH   6  23
TORSDOF 6
