REMARK  Name = CHEMBL489313
REMARK  4 active torsions:
REMARK  status: ('A' for Active; 'I' for Inactive)
REMARK    1  A    between atoms: C_3  and  N_8
REMARK    2  A    between atoms: N_19  and  C_21
REMARK    3  A    between atoms: C_21  and  C_22
REMARK    4  A    between atoms: C_22  and  C_23
REMARK                            x       y       z     vdW  Elec       q    Type
REMARK                         _______ _______ _______ _____ _____    ______ ____
ROOT
ATOM      1  N   UNL     1       3.583   2.124  -0.021  0.00  0.00    -0.299 N 
ATOM      2  C   UNL     1       4.785   1.453   0.068  0.00  0.00    +0.134 A 
ATOM      3  C   UNL     1       6.006   2.160   0.173  0.00  0.00    +0.041 A 
ATOM      4  C   UNL     1       6.054   3.560   0.192  0.00  0.00    +0.020 A 
ATOM      5  C   UNL     1       7.251   4.194   0.295  0.00  0.00    -0.008 A 
ATOM      6  C   UNL     1       8.452   3.471   0.384  0.00  0.00    +0.037 A 
ATOM      7  C   UNL     1       8.428   2.086   0.367  0.00  0.00    +0.052 A 
ATOM      8  C   UNL     1       7.207   1.414   0.262  0.00  0.00    +0.078 A 
ATOM      9  N   UNL     1       7.135   0.073   0.242  0.00  0.00    -0.235 NA
ATOM     10  C   UNL     1       5.974  -0.529   0.143  0.00  0.00    +0.223 A 
ATOM     11  N   UNL     1       4.827   0.126   0.063  0.00  0.00    -0.220 NA
ATOM     12  N   UNL     1       9.262   4.616   0.461  0.00  0.00    -0.325 N 
ATOM     13  C   UNL     1       8.064   5.463   0.373  0.00  0.00    +0.142 C 
ATOM     14  H   UNL     1       3.571   3.091  -0.094  0.00  0.00    +0.154 HD
ENDROOT
BRANCH   1  17
ATOM     15  C   UNL     1       1.088  -0.466   0.744  0.00  0.00    +0.003 A 
ATOM     16  C   UNL     1       2.277   0.238   0.731  0.00  0.00    +0.023 A 
ATOM     17  C   UNL     1       2.381   1.410  -0.007  0.00  0.00    +0.033 A 
ATOM     18  C   UNL     1       1.289   1.871  -0.730  0.00  0.00    +0.038 A 
ATOM     19  C   UNL     1       0.102   1.163  -0.713  0.00  0.00    +0.020 A 
ATOM     20  C   UNL     1       0.002  -0.004   0.023  0.00  0.00    +0.015 A 
ATOM     21 BR   UNL     1      -1.386   1.790  -1.697  0.00  0.00    -0.050 Br
ENDBRANCH   1  17
BRANCH  12  22
ATOM     22  C   UNL     1      10.701   4.864   0.579  0.00  0.00    +0.114 C 
BRANCH  22  23
ATOM     23  C   UNL     1      11.318   4.965  -0.818  0.00  0.00    +0.115 C 
BRANCH  23  24
ATOM     24  C   UNL     1      12.798   5.219  -0.696  0.00  0.00    +0.217 C 
ATOM     25  O   UNL     1      13.310   5.311   0.400  0.00  0.00    -0.276 OA
ATOM     26  N   UNL     1      13.554   5.346  -1.805  0.00  0.00    -0.297 N 
ATOM     27  C   UNL     1      12.955   5.245  -3.145  0.00  0.00    +0.136 C 
ATOM     28  C   UNL     1      13.402   6.458  -3.967  0.00  0.00    +0.179 C 
ATOM     29  O   UNL     1      14.827   6.563  -3.915  0.00  0.00    -0.377 OA
ATOM     30  C   UNL     1      15.350   6.786  -2.603  0.00  0.00    +0.179 C 
ATOM     31  C   UNL     1      15.001   5.594  -1.711  0.00  0.00    +0.136 C 
ENDBRANCH  23  24
ENDBRANCH  22  23
ENDBRANCH  12  22
TORSDOF 4
