REMARK  Name = CHEMBL53898
REMARK  9 active torsions:
REMARK  status: ('A' for Active; 'I' for Inactive)
REMARK    1  A    between atoms: C_4  and  C_7
REMARK    2  A    between atoms: C_7  and  C_8
REMARK    3  A    between atoms: C_8  and  C_9
REMARK    4  A    between atoms: C_9  and  N_10
REMARK    5  A    between atoms: C_11  and  C_13
REMARK    6  A    between atoms: C_13  and  C_23
REMARK    7  A    between atoms: C_14  and  C_15
REMARK    8  A    between atoms: C_18  and  O_22
REMARK    9  A    between atoms: C_19  and  O_21
REMARK                            x       y       z     vdW  Elec       q    Type
REMARK                         _______ _______ _______ _____ _____    ______ ____
ROOT
ATOM      1  C   UNL     1       7.547  -2.853   4.369  0.00  0.00    +0.114 C 
ATOM      2  C   UNL     1       8.733  -3.512   4.605  0.00  0.00    +0.032 C 
ENDROOT
BRANCH   2   3
ATOM      3  C   UNL     1       9.229  -3.662   5.975  0.00  0.00    -0.020 A 
ATOM      4  C   UNL     1      10.606  -3.621   6.234  0.00  0.00    +0.012 A 
ATOM      5  C   UNL     1      11.068  -3.761   7.522  0.00  0.00    +0.050 A 
ATOM      6  C   UNL     1      10.173  -3.944   8.570  0.00  0.00    +0.158 A 
ATOM      7  C   UNL     1       8.800  -3.985   8.321  0.00  0.00    +0.159 A 
ATOM      8  C   UNL     1       8.326  -3.840   7.034  0.00  0.00    +0.057 A 
BRANCH   7   9
ATOM      9  O   UNL     1       7.929  -4.164   9.350  0.00  0.00    -0.503 OA
ATOM     10  H   UNL     1       7.630  -3.341   9.760  0.00  0.00    +0.292 HD
ENDBRANCH   7   9
BRANCH   6  11
ATOM     11  O   UNL     1      10.635  -4.082   9.838  0.00  0.00    -0.503 OA
ATOM     12  H   UNL     1      10.723  -3.247  10.319  0.00  0.00    +0.292 HD
ENDBRANCH   6  11
ENDBRANCH   2   3
BRANCH   1  14
ATOM     13  N   UNL     1       5.804  -2.202   2.788  0.00  0.00    -0.311 N 
ATOM     14  C   UNL     1       6.965  -2.847   3.018  0.00  0.00    +0.254 C 
ATOM     15  O   UNL     1       7.531  -3.424   2.109  0.00  0.00    -0.269 OA
ATOM     16  H   UNL     1       5.352  -1.742   3.512  0.00  0.00    +0.149 HD
BRANCH  13  17
ATOM     17  C   UNL     1       5.224  -2.196   1.442  0.00  0.00    +0.105 C 
BRANCH  17  18
ATOM     18  C   UNL     1       3.917  -1.400   1.454  0.00  0.00    +0.023 C 
BRANCH  18  19
ATOM     19  C   UNL     1       3.312  -1.393   0.049  0.00  0.00    +0.036 C 
BRANCH  19  23
ATOM     20  C   UNL     1      -0.337   0.828   0.078  0.00  0.00    +0.000 A 
ATOM     21  C   UNL     1       0.860   1.468  -0.182  0.00  0.00    +0.000 A 
ATOM     22  C   UNL     1       2.041   0.750  -0.192  0.00  0.00    +0.003 A 
ATOM     23  C   UNL     1       2.025  -0.610   0.060  0.00  0.00    -0.047 A 
ATOM     24  C   UNL     1       0.828  -1.250   0.321  0.00  0.00    +0.003 A 
ATOM     25  C   UNL     1      -0.353  -0.532   0.329  0.00  0.00    +0.000 A 
ENDBRANCH  19  23
ENDBRANCH  18  19
ENDBRANCH  17  18
ENDBRANCH  13  17
ENDBRANCH   1  14
BRANCH   1  26
ATOM     26  C   UNL     1       6.880  -2.174   5.439  0.00  0.00    +0.104 C 
ATOM     27  N   UNL     1       6.351  -1.635   6.288  0.00  0.00    -0.191 NA
ENDBRANCH   1  26
TORSDOF 9
