REMARK  Name = CHEMBL248116
REMARK  7 active torsions:
REMARK  status: ('A' for Active; 'I' for Inactive)
REMARK    1  A    between atoms: C_5  and  C_7
REMARK    2  A    between atoms: C_7  and  O_8
REMARK    3  A    between atoms: O_8  and  C_9
REMARK    4  A    between atoms: C_12  and  N_16
REMARK    5  A    between atoms: C_19  and  C_26
REMARK    6  A    between atoms: C_26  and  N_27
REMARK    7  A    between atoms: C_30  and  N_33
REMARK                            x       y       z     vdW  Elec       q    Type
REMARK                         _______ _______ _______ _____ _____    ______ ____
ROOT
ATOM      1  N   UNL     1      -0.745  -8.196   0.382  0.00  0.00    -0.298 N 
ATOM      2  C   UNL     1      -1.993  -8.786   0.410  0.00  0.00    +0.151 A 
ATOM      3  C   UNL     1      -2.123 -10.190   0.316  0.00  0.00    +0.110 A 
ATOM      4  C   UNL     1      -1.221 -11.228   0.189  0.00  0.00    -0.003 A 
ATOM      5  C   UNL     1      -1.966 -12.408   0.146  0.00  0.00    +0.027 A 
ATOM      6  C   UNL     1      -3.280 -12.077   0.245  0.00  0.00    +0.113 A 
ATOM      7  N   UNL     1      -3.391 -10.740   0.348  0.00  0.00    -0.235 N 
ATOM      8  N   UNL     1      -4.487  -9.875   0.473  0.00  0.00    -0.155 NA
ATOM      9  C   UNL     1      -4.297  -8.587   0.555  0.00  0.00    +0.245 A 
ATOM     10  N   UNL     1      -3.082  -8.043   0.532  0.00  0.00    -0.217 NA
ATOM     11  H   UNL     1       0.044  -8.738   0.225  0.00  0.00    +0.154 HD
ENDROOT
BRANCH   1  15
ATOM     12  C   UNL     1      -0.365  -4.085   0.968  0.00  0.00    +0.139 A 
ATOM     13  C   UNL     1       0.593  -4.950   1.477  0.00  0.00    +0.049 A 
ATOM     14  C   UNL     1       0.467  -6.311   1.283  0.00  0.00    +0.027 A 
ATOM     15  C   UNL     1      -0.618  -6.816   0.578  0.00  0.00    +0.034 A 
ATOM     16  C   UNL     1      -1.577  -5.950   0.069  0.00  0.00    +0.047 A 
ATOM     17  C   UNL     1      -1.453  -4.588   0.267  0.00  0.00    +0.084 A 
ATOM     18 CL   UNL     1      -2.655  -3.506  -0.363  0.00  0.00    -0.080 Cl
BRANCH  12  19
ATOM     19  O   UNL     1      -0.241  -2.744   1.159  0.00  0.00    -0.484 OA
BRANCH  19  20
ATOM     20  C   UNL     1       0.903  -2.296   1.889  0.00  0.00    +0.284 C 
BRANCH  20  25
ATOM     21  C   UNL     1      -0.193   1.293   1.538  0.00  0.00    +0.003 A 
ATOM     22  C   UNL     1       0.843   1.917   2.217  0.00  0.00    +0.020 A 
ATOM     23  C   UNL     1       1.853   1.146   2.761  0.00  0.00    +0.111 A 
ATOM     24  N   UNL     1       1.839  -0.167   2.639  0.00  0.00    -0.256 NA
ATOM     25  C   UNL     1       0.871  -0.794   2.000  0.00  0.00    +0.078 A 
ATOM     26  C   UNL     1      -0.173  -0.089   1.431  0.00  0.00    +0.027 A 
ENDBRANCH  20  25
ENDBRANCH  19  20
ENDBRANCH  12  19
ENDBRANCH   1  15
BRANCH   4  27
ATOM     27  C   UNL     1       0.279 -11.110   0.112  0.00  0.00    +0.121 C 
BRANCH  27  28
ATOM     28  N   UNL     1       0.669 -10.702  -1.244  0.00  0.00    -0.298 NA
ATOM     29  C   UNL     1       0.418 -11.780  -2.210  0.00  0.00    +0.083 C 
ATOM     30  C   UNL     1       0.698 -11.272  -3.627  0.00  0.00    -0.001 C 
ATOM     31  C   UNL     1       2.154 -10.807  -3.719  0.00  0.00    -0.073 C 
ATOM     32  C   UNL     1       2.401  -9.719  -2.671  0.00  0.00    -0.001 C 
ATOM     33  C   UNL     1       2.072 -10.271  -1.282  0.00  0.00    +0.083 C 
BRANCH  31  34
ATOM     34  N   UNL     1       2.412 -10.265  -5.060  0.00  0.00    +0.380 N 
ATOM     35  H   UNL     1       1.797  -9.482  -5.230  0.00  0.00    -0.090 HD
ATOM     36  H   UNL     1       3.371  -9.958  -5.120  0.00  0.00    -0.090 HD
ATOM     37  H   UNL     1       2.243 -10.981  -5.750  0.00  0.00    -0.090 HD
ENDBRANCH  31  34
ENDBRANCH  27  28
ENDBRANCH   4  27
TORSDOF 7
