REMARK  Name = CHEMBL246687
REMARK  6 active torsions:
REMARK  status: ('A' for Active; 'I' for Inactive)
REMARK    1  A    between atoms: C_3  and  C_8
REMARK    2  A    between atoms: C_8  and  N_9
REMARK    3  A    between atoms: C_13  and  N_18
REMARK    4  A    between atoms: C_21  and  C_28
REMARK    5  A    between atoms: C_28  and  N_29
REMARK    6  A    between atoms: C_32  and  N_35
REMARK                            x       y       z     vdW  Elec       q    Type
REMARK                         _______ _______ _______ _____ _____    ______ ____
ROOT
ATOM      1  N   UNL     1       3.371   6.752   4.933  0.00  0.00    -0.298 N 
ATOM      2  C   UNL     1       2.631   7.908   4.786  0.00  0.00    +0.151 A 
ATOM      3  C   UNL     1       2.481   8.805   5.869  0.00  0.00    +0.110 A 
ATOM      4  C   UNL     1       2.938   8.815   7.172  0.00  0.00    -0.003 A 
ATOM      5  C   UNL     1       2.452   9.983   7.762  0.00  0.00    +0.027 A 
ATOM      6  C   UNL     1       1.723  10.651   6.828  0.00  0.00    +0.113 A 
ATOM      7  N   UNL     1       1.732   9.950   5.679  0.00  0.00    -0.235 N 
ATOM      8  N   UNL     1       1.157  10.167   4.419  0.00  0.00    -0.155 NA
ATOM      9  C   UNL     1       1.333   9.299   3.462  0.00  0.00    +0.245 A 
ATOM     10  N   UNL     1       2.057   8.193   3.628  0.00  0.00    -0.217 NA
ATOM     11  H   UNL     1       3.737   6.517   5.800  0.00  0.00    +0.154 HD
ENDROOT
BRANCH   1  16
ATOM     12  N   UNL     1       4.490   3.417   0.676  0.00  0.00    -0.259 N 
ATOM     13  C   UNL     1       4.000   4.273   1.630  0.00  0.00    +0.069 A 
ATOM     14  C   UNL     1       2.786   4.937   1.794  0.00  0.00    +0.030 A 
ATOM     15  C   UNL     1       2.589   5.745   2.876  0.00  0.00    +0.025 A 
ATOM     16  C   UNL     1       3.593   5.918   3.830  0.00  0.00    +0.033 A 
ATOM     17  C   UNL     1       4.805   5.271   3.692  0.00  0.00    +0.034 A 
ATOM     18  C   UNL     1       5.019   4.440   2.586  0.00  0.00    +0.021 A 
ATOM     19  C   UNL     1       6.144   3.626   2.134  0.00  0.00    +0.143 A 
ATOM     20  N   UNL     1       5.792   3.044   1.023  0.00  0.00    -0.178 NA
BRANCH  12  21
ATOM     21  C   UNL     1       3.763   2.962  -0.511  0.00  0.00    +0.179 C 
BRANCH  21  24
ATOM     22  C   UNL     1       1.010   0.627   0.596  0.00  0.00    +0.003 A 
ATOM     23  C   UNL     1       1.708   1.782   0.295  0.00  0.00    +0.005 A 
ATOM     24  C   UNL     1       3.003   1.702  -0.183  0.00  0.00    -0.023 A 
ATOM     25  C   UNL     1       3.600   0.469  -0.360  0.00  0.00    +0.043 A 
ATOM     26  C   UNL     1       2.902  -0.688  -0.059  0.00  0.00    +0.124 A 
ATOM     27  C   UNL     1       1.605  -0.607   0.420  0.00  0.00    +0.038 A 
ATOM     28  F   UNL     1       3.485  -1.894  -0.232  0.00  0.00    -0.205 F 
ENDBRANCH  21  24
ENDBRANCH  12  21
ENDBRANCH   1  16
BRANCH   4  29
ATOM     29  C   UNL     1       3.795   7.766   7.832  0.00  0.00    +0.121 C 
BRANCH  29  30
ATOM     30  N   UNL     1       2.963   6.611   8.196  0.00  0.00    -0.300 NA
ATOM     31  C   UNL     1       2.115   6.917   9.376  0.00  0.00    +0.083 C 
ATOM     32  C   UNL     1       1.739   5.536   9.954  0.00  0.00    +0.000 C 
ATOM     33  C   UNL     1       2.849   4.582   9.467  0.00  0.00    -0.060 C 
ATOM     34  C   UNL     1       3.803   5.468   8.636  0.00  0.00    +0.068 C 
BRANCH  33  35
ATOM     35  N   UNL     1       3.560   3.999  10.613  0.00  0.00    +0.381 N 
ATOM     36  H   UNL     1       2.913   3.462  11.172  0.00  0.00    -0.090 HD
ATOM     37  H   UNL     1       4.298   3.397  10.281  0.00  0.00    -0.090 HD
ATOM     38  H   UNL     1       3.956   4.738  11.175  0.00  0.00    -0.090 HD
ENDBRANCH  33  35
ENDBRANCH  29  30
ENDBRANCH   4  29
TORSDOF 6
