REMARK  Name = CHEMBL378370
REMARK  7 active torsions:
REMARK  status: ('A' for Active; 'I' for Inactive)
REMARK    1  A    between atoms: C_1  and  N_2
REMARK    2  A    between atoms: N_2  and  C_3
REMARK    3  A    between atoms: N_2  and  C_25
REMARK    4  A    between atoms: C_3  and  C_4
REMARK    5  A    between atoms: C_9  and  O_10
REMARK    6  A    between atoms: O_10  and  C_11
REMARK    7  A    between atoms: N_16  and  C_17
REMARK                            x       y       z     vdW  Elec       q    Type
REMARK                         _______ _______ _______ _____ _____    ______ ____
ROOT
ATOM      1  C   UNL     1       0.103  -0.906   2.757  0.00  0.00    +0.009 A 
ATOM      2  C   UNL     1       0.431   0.185   3.504  0.00  0.00    +0.022 A 
ATOM      3  C   UNL     1      -0.317   0.495   4.646  0.00  0.00    +0.041 A 
ATOM      4  C   UNL     1      -1.411  -0.326   5.017  0.00  0.00    +0.079 A 
ATOM      5  C   UNL     1      -1.729  -1.441   4.234  0.00  0.00    +0.074 A 
ATOM      6  C   UNL     1      -0.977  -1.718   3.112  0.00  0.00    +0.127 A 
ATOM      7  N   UNL     1      -2.113  -0.007   6.116  0.00  0.00    -0.235 NA
ATOM      8  C   UNL     1      -1.790   1.046   6.829  0.00  0.00    +0.223 A 
ATOM      9  N   UNL     1      -0.778   1.841   6.521  0.00  0.00    -0.220 NA
ATOM     10  C   UNL     1      -0.018   1.616   5.456  0.00  0.00    +0.134 A 
ATOM     11  N   UNL     1       1.034   2.453   5.147  0.00  0.00    -0.297 N 
ATOM     12  H   UNL     1       1.521   2.334   4.317  0.00  0.00    +0.154 HD
ENDROOT
BRANCH  11  13
ATOM     13  C   UNL     1       1.398   3.475   6.031  0.00  0.00    +0.070 A 
ATOM     14  C   UNL     1       1.083   3.373   7.380  0.00  0.00    +0.026 A 
ATOM     15  C   UNL     1       1.444   4.383   8.251  0.00  0.00    +0.003 A 
ATOM     16  C   UNL     1       2.118   5.495   7.782  0.00  0.00    +0.023 A 
ATOM     17  C   UNL     1       2.434   5.602   6.439  0.00  0.00    +0.078 A 
ATOM     18  C   UNL     1       2.081   4.592   5.562  0.00  0.00    +0.163 A 
ATOM     19  F   UNL     1       2.394   4.692   4.252  0.00  0.00    -0.202 F 
ATOM     20 CL   UNL     1       3.281   7.001   5.856  0.00  0.00    -0.081 Cl
ENDBRANCH  11  13
BRANCH   6  21
ATOM     21  O   UNL     1      -1.286  -2.797   2.346  0.00  0.00    -0.495 OA
ATOM     22  C   UNL     1      -2.402  -3.588   2.761  0.00  0.00    +0.277 C 
ENDBRANCH   6  21
BRANCH   1  23
ATOM     23  C   UNL     1       0.911  -1.237   1.529  0.00  0.00    +0.123 C 
BRANCH  23  25
ATOM     24  C   UNL     1       0.333   0.695   0.189  0.00  0.00    +0.106 C 
ATOM     25  N   UNL     1       0.202  -0.761   0.334  0.00  0.00    -0.290 NA
BRANCH  25  26
ATOM     26  C   UNL     1       0.677  -1.454  -0.871  0.00  0.00    +0.145 C 
ATOM     27  C   UNL     1       2.206  -1.283  -1.027  0.00  0.00    +0.047 C 
ATOM     28  C   UNL     1       2.621  -2.659  -1.594  0.00  0.00    +0.106 C 
ATOM     29  N   UNL     1       1.589  -3.597  -1.140  0.00  0.00    -0.314 N 
ATOM     30  C   UNL     1       0.484  -2.948  -0.734  0.00  0.00    +0.230 C 
ATOM     31  O   UNL     1      -0.522  -3.483  -0.317  0.00  0.00    -0.274 OA
ATOM     32  H   UNL     1       1.690  -4.562  -1.134  0.00  0.00    +0.149 HD
ENDBRANCH  25  26
ENDBRANCH  23  25
ENDBRANCH   1  23
TORSDOF 5
