REMARK  Name = CHEMBL355294
REMARK  10 active torsions:
REMARK  status: ('A' for Active; 'I' for Inactive)
REMARK    1  A    between atoms: C_4  and  C_7
REMARK    2  A    between atoms: C_7  and  O_8
REMARK    3  A    between atoms: O_8  and  N_9
REMARK    4  A    between atoms: C_10  and  C_12
REMARK    5  A    between atoms: C_14  and  N_19
REMARK    6  A    between atoms: C_17  and  O_18
REMARK    7  A    between atoms: N_19  and  C_20
REMARK    8  A    between atoms: C_20  and  C_21
REMARK    9  A    between atoms: C_23  and  O_28
REMARK   10  A    between atoms: C_26  and  O_27
REMARK                            x       y       z     vdW  Elec       q    Type
REMARK                         _______ _______ _______ _____ _____    ______ ____
ROOT
ATOM      1  C   UNL     1       7.177  -2.644   2.709  0.00  0.00    +0.082 A 
ATOM      2  C   UNL     1       7.862  -3.021   1.551  0.00  0.00    +0.039 A 
ATOM      3  C   UNL     1       9.067  -3.694   1.652  0.00  0.00    +0.028 A 
ATOM      4  C   UNL     1       9.596  -3.995   2.903  0.00  0.00    +0.026 A 
ATOM      5  C   UNL     1       8.925  -3.626   4.051  0.00  0.00    +0.048 A 
ATOM      6  C   UNL     1       7.719  -2.946   3.965  0.00  0.00    +0.129 A 
ENDROOT
BRANCH   1   8
ATOM      7  N   UNL     1       5.374  -1.636   1.399  0.00  0.00    -0.190 N 
ATOM      8  C   UNL     1       5.893  -1.925   2.610  0.00  0.00    +0.270 C 
ATOM      9  O   UNL     1       5.302  -1.594   3.619  0.00  0.00    -0.268 OA
ATOM     10  H   UNL     1       5.846  -1.900   0.594  0.00  0.00    +0.183 HD
BRANCH   7  11
ATOM     11  O   UNL     1       4.141  -0.946   1.304  0.00  0.00    -0.275 OA
BRANCH  11  12
ATOM     12  C   UNL     1       3.711  -0.707  -0.038  0.00  0.00    +0.225 C 
BRANCH  12  16
ATOM     13  C   UNL     1      -0.017   1.378   0.010  0.00  0.00    +0.000 A 
ATOM     14  C   UNL     1       1.171   2.086   0.002  0.00  0.00    +0.000 A 
ATOM     15  C   UNL     1       2.377   1.411  -0.013  0.00  0.00    +0.006 A 
ATOM     16  C   UNL     1       2.396   0.029  -0.020  0.00  0.00    -0.020 A 
ATOM     17  C   UNL     1       1.208  -0.679  -0.012  0.00  0.00    +0.006 A 
ATOM     18  C   UNL     1       0.002  -0.004   0.002  0.00  0.00    +0.000 A 
ENDBRANCH  12  16
ENDBRANCH  11  12
ENDBRANCH   7  11
ENDBRANCH   1   8
BRANCH   6  19
ATOM     19  O   UNL     1       7.064  -2.578   5.095  0.00  0.00    -0.506 OA
ATOM     20  H   UNL     1       6.442  -3.242   5.423  0.00  0.00    +0.292 HD
ENDBRANCH   6  19
BRANCH   3  21
ATOM     21  N   UNL     1       9.754  -4.074   0.493  0.00  0.00    -0.340 N 
ATOM     22  H   UNL     1       9.386  -3.865  -0.379  0.00  0.00    +0.146 HD
BRANCH  21  23
ATOM     23  C   UNL     1      11.030  -4.786   0.599  0.00  0.00    +0.140 C 
BRANCH  23  24
ATOM     24  C   UNL     1      11.559  -5.076  -0.782  0.00  0.00    +0.014 A 
ATOM     25  C   UNL     1      11.388  -6.329  -1.339  0.00  0.00    +0.054 A 
ATOM     26  C   UNL     1      11.874  -6.596  -2.610  0.00  0.00    +0.117 A 
ATOM     27  C   UNL     1      12.532  -5.604  -3.322  0.00  0.00    +0.049 A 
ATOM     28  C   UNL     1      12.703  -4.352  -2.767  0.00  0.00    +0.049 A 
ATOM     29  C   UNL     1      12.212  -4.084  -1.497  0.00  0.00    +0.122 A 
BRANCH  29  30
ATOM     30  O   UNL     1      12.375  -2.849  -0.952  0.00  0.00    -0.506 OA
ATOM     31  H   UNL     1      13.193  -2.747  -0.445  0.00  0.00    +0.292 HD
ENDBRANCH  29  30
BRANCH  26  32
ATOM     32  O   UNL     1      11.706  -7.829  -3.157  0.00  0.00    -0.507 OA
ATOM     33  H   UNL     1      10.888  -7.927  -3.664  0.00  0.00    +0.292 HD
ENDBRANCH  26  32
ENDBRANCH  23  24
ENDBRANCH  21  23
ENDBRANCH   3  21
TORSDOF 10
