REMARK  Name = CHEMBL205776
REMARK  9 active torsions:
REMARK  status: ('A' for Active; 'I' for Inactive)
REMARK    1  A    between atoms: C_1  and  N_2
REMARK    2  A    between atoms: N_5  and  C_8
REMARK    3  A    between atoms: C_8  and  C_9
REMARK    4  A    between atoms: C_9  and  C_10
REMARK    5  A    between atoms: C_10  and  O_11
REMARK    6  A    between atoms: O_11  and  C_12
REMARK    7  A    between atoms: C_16  and  O_18
REMARK    8  A    between atoms: O_18  and  C_19
REMARK    9  A    between atoms: N_29  and  C_30
REMARK                            x       y       z     vdW  Elec       q    Type
REMARK                         _______ _______ _______ _____ _____    ______ ____
ROOT
ATOM      1  C   UNL     1       1.983  -8.114   3.350  0.00  0.00    +0.126 A 
ATOM      2  C   UNL     1       1.772  -8.952   2.275  0.00  0.00    +0.074 A 
ATOM      3  C   UNL     1       1.566 -10.318   2.491  0.00  0.00    +0.083 A 
ATOM      4  C   UNL     1       1.577 -10.825   3.814  0.00  0.00    +0.082 A 
ATOM      5  C   UNL     1       1.794  -9.954   4.895  0.00  0.00    +0.137 A 
ATOM      6  C   UNL     1       1.999  -8.612   4.653  0.00  0.00    +0.092 A 
ATOM      7  C   UNL     1       1.367 -12.210   4.000  0.00  0.00    +0.137 A 
ATOM      8  N   UNL     1       1.170 -12.966   2.927  0.00  0.00    -0.220 NA
ATOM      9  C   UNL     1       1.168 -12.449   1.709  0.00  0.00    +0.223 A 
ATOM     10  N   UNL     1       1.357 -11.172   1.475  0.00  0.00    -0.235 NA
ATOM     11  N   UNL     1       1.367 -12.762   5.265  0.00  0.00    -0.299 N 
ATOM     12  H   UNL     1       1.357 -12.187   6.046  0.00  0.00    +0.154 HD
ENDROOT
BRANCH  11  13
ATOM     13  C   UNL     1       1.381 -14.152   5.421  0.00  0.00    +0.034 A 
ATOM     14  C   UNL     1       0.872 -14.970   4.420  0.00  0.00    +0.026 A 
ATOM     15  C   UNL     1       0.887 -16.342   4.575  0.00  0.00    +0.041 A 
ATOM     16  C   UNL     1       1.407 -16.904   5.729  0.00  0.00    +0.142 A 
ATOM     17  C   UNL     1       1.915 -16.091   6.729  0.00  0.00    +0.078 A 
ATOM     18  C   UNL     1       1.908 -14.717   6.575  0.00  0.00    +0.046 A 
ATOM     19 CL   UNL     1       2.566 -16.798   8.175  0.00  0.00    -0.081 Cl
ATOM     20  F   UNL     1       1.421 -18.246   5.878  0.00  0.00    -0.204 F 
ENDBRANCH  11  13
BRANCH   1  21
ATOM     21  O   UNL     1       2.182  -6.787   3.138  0.00  0.00    -0.492 OA
BRANCH  21  22
ATOM     22  C   UNL     1       2.154  -6.336   1.782  0.00  0.00    +0.227 C 
BRANCH  22  23
ATOM     23  C   UNL     1       2.396  -4.826   1.742  0.00  0.00    +0.022 C 
BRANCH  23  24
ATOM     24  C   UNL     1       2.366  -4.343   0.290  0.00  0.00    -0.075 C 
BRANCH  24  29
ATOM     25  C   UNL     1       4.295   0.850  -0.737  0.00  0.00    +0.104 C 
ATOM     26  N   UNL     1       4.021  -0.592  -0.663  0.00  0.00    -0.309 NA
ATOM     27  C   UNL     1       2.674  -0.898  -1.166  0.00  0.00    +0.065 C 
ATOM     28  C   UNL     1       2.451  -2.411  -1.128  0.00  0.00    -0.063 C 
ATOM     29  N   UNL     1       2.598  -2.894   0.251  0.00  0.00    +0.381 N 
ATOM     30  C   UNL     1       3.956  -2.603   0.731  0.00  0.00    -0.063 C 
ATOM     31  C   UNL     1       4.192  -1.091   0.709  0.00  0.00    +0.065 C 
ATOM     32  H   UNL     1       1.926  -2.429   0.843  0.00  0.00    -0.082 HD
ENDBRANCH  24  29
ENDBRANCH  23  24
ENDBRANCH  22  23
ENDBRANCH  21  22
ENDBRANCH   1  21
BRANCH   5  33
ATOM     33  O   UNL     1       1.806 -10.430   6.165  0.00  0.00    -0.488 OA
BRANCH  33  34
ATOM     34  C   UNL     1       2.047  -9.485   7.210  0.00  0.00    +0.178 C 
ATOM     35  C   UNL     1       3.553  -9.232   7.335  0.00  0.00    +0.072 C 
ATOM     36  C   UNL     1       3.807  -8.280   8.506  0.00  0.00    +0.163 C 
ATOM     37  O   UNL     1       3.268  -8.845   9.703  0.00  0.00    -0.380 OA
ATOM     38  C   UNL     1       1.855  -9.059   9.662  0.00  0.00    +0.163 C 
ATOM     39  C   UNL     1       1.522 -10.042   8.537  0.00  0.00    +0.072 C 
ENDBRANCH  33  34
ENDBRANCH   5  33
TORSDOF 8
