REMARK  Name = CHEMBL398961
REMARK  15 active torsions:
REMARK  status: ('A' for Active; 'I' for Inactive)
REMARK    1  A    between atoms: C_1  and  C_2
REMARK    2  A    between atoms: C_2  and  N_3
REMARK    3  A    between atoms: N_3  and  C_4
REMARK    4  A    between atoms: N_3  and  C_6
REMARK    5  A    between atoms: C_4  and  C_5
REMARK    6  A    between atoms: C_6  and  C_7
REMARK    7  A    between atoms: C_6  and  C_8
REMARK    8  A    between atoms: C_6  and  C_24
REMARK    9  A    between atoms: C_8  and  C_9
REMARK   10  A    between atoms: C_9  and  C_10
REMARK   11  A    between atoms: C_13  and  O_22
REMARK   12  A    between atoms: C_14  and  O_20
REMARK   13  A    between atoms: O_20  and  C_21
REMARK   14  A    between atoms: O_22  and  C_23
REMARK   15  A    between atoms: C_24  and  C_25
REMARK                            x       y       z     vdW  Elec       q    Type
REMARK                         _______ _______ _______ _____ _____    ______ ____
ROOT
ATOM      1  C   UNL     1      -3.014  -2.373   0.626  0.00  0.00    -0.006 C 
ENDROOT
BRANCH   1   2
ATOM      2  C   UNL     1      -1.532  -1.996   0.692  0.00  0.00    -0.064 C 
ATOM      3  C   UNL     1      -0.950  -2.449   2.033  0.00  0.00    -0.009 C 
BRANCH   2   4
ATOM      4  N   UNL     1      -1.391  -0.539   0.565  0.00  0.00    +0.383 N 
ATOM      5  H   UNL     1      -1.883  -0.086   1.320  0.00  0.00    -0.081 HD
BRANCH   4   7
ATOM      6  C   UNL     1       0.172   1.267   1.104  0.00  0.00    -0.017 C 
ATOM      7  C   UNL     1       0.031  -0.178   0.620  0.00  0.00    -0.081 C 
ENDBRANCH   4   7
BRANCH   4   8
ATOM      8  C   UNL     1      -1.958  -0.103  -0.719  0.00  0.00    -0.081 C 
ATOM      9  C   UNL     1      -1.895   1.423  -0.812  0.00  0.00    -0.017 C 
ENDBRANCH   4   8
ENDBRANCH   2   4
BRANCH   2  10
ATOM     10  C   UNL     1      -0.780  -2.683  -0.449  0.00  0.00    +0.023 C 
BRANCH  10  11
ATOM     11  C   UNL     1      -0.997  -4.172  -0.369  0.00  0.00    -0.049 A 
ATOM     12  C   UNL     1      -0.177  -4.948   0.429  0.00  0.00    +0.003 A 
ATOM     13  C   UNL     1      -0.376  -6.314   0.502  0.00  0.00    +0.000 A 
ATOM     14  C   UNL     1      -1.395  -6.904  -0.223  0.00  0.00    +0.000 A 
ATOM     15  C   UNL     1      -2.215  -6.128  -1.020  0.00  0.00    +0.000 A 
ATOM     16  C   UNL     1      -2.019  -4.761  -1.090  0.00  0.00    +0.003 A 
ENDBRANCH  10  11
ENDBRANCH   2  10
ENDBRANCH   1   2
BRANCH   1  17
ATOM     17  C   UNL     1      -3.787  -1.590   1.689  0.00  0.00    +0.055 C 
BRANCH  17  18
ATOM     18  C   UNL     1      -5.246  -1.961   1.624  0.00  0.00    +0.052 A 
ATOM     19  C   UNL     1      -6.133  -1.253   0.795  0.00  0.00    +0.025 A 
ATOM     20  C   UNL     1      -5.708  -0.180  -0.004  0.00  0.00    +0.061 A 
ATOM     21  C   UNL     1      -6.613   0.472  -0.791  0.00  0.00    +0.162 A 
ATOM     22  C   UNL     1      -7.962   0.081  -0.810  0.00  0.00    +0.164 A 
ATOM     23  C   UNL     1      -8.402  -0.960  -0.042  0.00  0.00    +0.077 A 
ATOM     24  C   UNL     1      -7.496  -1.649   0.775  0.00  0.00    +0.078 A 
ATOM     25  N   UNL     1      -7.877  -2.677   1.546  0.00  0.00    -0.235 NA
ATOM     26  C   UNL     1      -7.002  -3.298   2.299  0.00  0.00    +0.222 A 
ATOM     27  N   UNL     1      -5.721  -2.962   2.339  0.00  0.00    -0.240 NA
BRANCH  22  28
ATOM     28  O   UNL     1      -8.841   0.747  -1.602  0.00  0.00    -0.491 OA
ATOM     29  C   UNL     1     -10.199   0.304  -1.579  0.00  0.00    +0.277 C 
ENDBRANCH  22  28
BRANCH  21  30
ATOM     30  O   UNL     1      -6.205   1.512  -1.565  0.00  0.00    -0.491 OA
ATOM     31  C   UNL     1      -4.821   1.862  -1.502  0.00  0.00    +0.277 C 
ENDBRANCH  21  30
ENDBRANCH  17  18
ENDBRANCH   1  17
TORSDOF 10
