REMARK  Name = CHEMBL506414
REMARK  5 active torsions:
REMARK  status: ('A' for Active; 'I' for Inactive)
REMARK    1  A    between atoms: C_3  and  C_8
REMARK    2  A    between atoms: C_8  and  O_9
REMARK    3  A    between atoms: O_9  and  C_10
REMARK    4  A    between atoms: C_13  and  N_17
REMARK    5  A    between atoms: C_21  and  C_27
REMARK                            x       y       z     vdW  Elec       q    Type
REMARK                         _______ _______ _______ _____ _____    ______ ____
ROOT
ATOM      1  C   UNL     1       5.262   3.099   1.486  0.00  0.00    +0.139 A 
ATOM      2  C   UNL     1       6.060   3.401   0.393  0.00  0.00    +0.049 A 
ATOM      3  C   UNL     1       7.234   4.107   0.568  0.00  0.00    +0.027 A 
ATOM      4  C   UNL     1       7.615   4.516   1.839  0.00  0.00    +0.034 A 
ATOM      5  C   UNL     1       6.816   4.215   2.934  0.00  0.00    +0.047 A 
ATOM      6  C   UNL     1       5.639   3.512   2.757  0.00  0.00    +0.084 A 
ATOM      7 CL   UNL     1       4.636   3.141   4.124  0.00  0.00    -0.080 Cl
ENDROOT
BRANCH   4   8
ATOM      8  N   UNL     1       8.806   5.232   2.017  0.00  0.00    -0.299 N 
ATOM      9  C   UNL     1       9.244   6.100   1.033  0.00  0.00    +0.134 A 
ATOM     10  C   UNL     1      10.510   6.742   1.150  0.00  0.00    +0.048 A 
ATOM     11  C   UNL     1      11.503   6.642   2.200  0.00  0.00    +0.030 A 
ATOM     12  C   UNL     1      12.650   7.361   2.089  0.00  0.00    +0.029 A 
ATOM     13  S   UNL     1      12.450   8.222   0.541  0.00  0.00    -0.068 S 
ATOM     14  C   UNL     1      10.852   7.606   0.085  0.00  0.00    +0.114 A 
ATOM     15  N   UNL     1      10.039   7.790  -0.937  0.00  0.00    -0.228 NA
ATOM     16  C   UNL     1       8.878   7.166  -0.989  0.00  0.00    +0.224 A 
ATOM     17  N   UNL     1       8.496   6.340  -0.031  0.00  0.00    -0.220 NA
ATOM     18  H   UNL     1       9.322   5.119   2.830  0.00  0.00    +0.154 HD
BRANCH  12  19
ATOM     19  C   UNL     1      13.787   7.415   3.023  0.00  0.00    +0.026 A 
ATOM     20  C   UNL     1      14.949   8.138   2.930  0.00  0.00    +0.016 A 
ATOM     21  C   UNL     1      15.879   8.027   3.939  0.00  0.00    +0.008 A 
ATOM     22  C   UNL     1      15.619   7.210   4.992  0.00  0.00    +0.046 A 
ATOM     23  S   UNL     1      14.008   6.563   4.577  0.00  0.00    -0.096 S 
ENDBRANCH  12  19
ENDBRANCH   4   8
BRANCH   1  24
ATOM     24  O   UNL     1       4.106   2.404   1.313  0.00  0.00    -0.486 OA
BRANCH  24  25
ATOM     25  C   UNL     1       3.780   2.011  -0.022  0.00  0.00    +0.264 C 
BRANCH  25  28
ATOM     26  C   UNL     1       0.085   1.246  -0.171  0.00  0.00    +0.003 A 
ATOM     27  C   UNL     1       1.283   1.937  -0.174  0.00  0.00    +0.007 A 
ATOM     28  C   UNL     1       2.475   1.256  -0.018  0.00  0.00    -0.008 A 
ATOM     29  C   UNL     1       2.472  -0.117   0.140  0.00  0.00    +0.045 A 
ATOM     30  C   UNL     1       1.273  -0.810   0.144  0.00  0.00    +0.124 A 
ATOM     31  C   UNL     1       0.079  -0.126  -0.012  0.00  0.00    +0.038 A 
ATOM     32  F   UNL     1       1.269  -2.152   0.298  0.00  0.00    -0.205 F 
ENDBRANCH  25  28
ENDBRANCH  24  25
ENDBRANCH   1  24
TORSDOF 5
