REMARK  Name = CHEMBL116547
REMARK  12 active torsions:
REMARK  status: ('A' for Active; 'I' for Inactive)
REMARK    1  A    between atoms: C_1  and  O_2
REMARK    2  A    between atoms: O_2  and  C_3
REMARK    3  A    between atoms: C_5  and  C_19
REMARK    4  A    between atoms: C_7  and  C_10
REMARK    5  A    between atoms: C_8  and  O_9
REMARK    6  A    between atoms: C_10  and  S_11
REMARK    7  A    between atoms: S_11  and  C_12
REMARK    8  A    between atoms: C_12  and  C_13
REMARK    9  A    between atoms: C_20  and  C_21
REMARK   10  A    between atoms: C_20  and  C_23
REMARK   11  A    between atoms: C_23  and  C_25
REMARK   12  A    between atoms: C_29  and  O_31
REMARK                            x       y       z     vdW  Elec       q    Type
REMARK                         _______ _______ _______ _____ _____    ______ ____
ROOT
ATOM      1  C   UNL     1      -1.134  -0.627  -0.338  0.00  0.00    +0.162 A 
ATOM      2  C   UNL     1      -2.271   0.147  -0.443  0.00  0.00    +0.057 A 
ATOM      3  C   UNL     1      -3.530  -0.429  -0.215  0.00  0.00    -0.020 A 
ATOM      4  C   UNL     1      -3.623  -1.789   0.119  0.00  0.00    +0.016 A 
ATOM      5  C   UNL     1      -2.482  -2.551   0.221  0.00  0.00    +0.008 A 
ATOM      6  C   UNL     1      -1.237  -1.980  -0.011  0.00  0.00    +0.163 A 
ENDROOT
BRANCH   1   8
ATOM      7  C   UNL     1       0.120   1.318  -0.888  0.00  0.00    +0.277 C 
ATOM      8  O   UNL     1       0.088  -0.072  -0.558  0.00  0.00    -0.491 OA
ENDBRANCH   1   8
BRANCH   6   9
ATOM      9  O   UNL     1      -0.116  -2.739   0.086  0.00  0.00    -0.503 OA
ATOM     10  H   UNL     1       0.272  -2.757   0.972  0.00  0.00    +0.292 HD
ENDBRANCH   6   9
BRANCH   3  11
ATOM     11  C   UNL     1      -4.741   0.385  -0.324  0.00  0.00    +0.030 C 
ATOM     12  C   UNL     1      -5.910  -0.177  -0.795  0.00  0.00    +0.099 C 
BRANCH  12  13
ATOM     13  C   UNL     1      -5.896  -1.494  -1.355  0.00  0.00    +0.103 C 
ATOM     14  N   UNL     1      -5.885  -2.540  -1.800  0.00  0.00    -0.191 NA
ENDBRANCH  12  13
BRANCH  12  15
ATOM     15  C   UNL     1      -7.169   0.578  -0.721  0.00  0.00    +0.203 C 
ATOM     16  O   UNL     1      -7.205   1.647  -0.142  0.00  0.00    -0.286 OA
BRANCH  15  17
ATOM     17  C   UNL     1      -8.391   0.037  -1.350  0.00  0.00    +0.027 A 
ATOM     18  C   UNL     1      -9.649   0.395  -0.857  0.00  0.00    +0.016 A 
ATOM     19  C   UNL     1     -10.788  -0.110  -1.445  0.00  0.00    +0.055 A 
ATOM     20  C   UNL     1     -10.690  -0.974  -2.528  0.00  0.00    +0.220 A 
ATOM     21  C   UNL     1      -9.438  -1.335  -3.024  0.00  0.00    +0.164 A 
ATOM     22  C   UNL     1      -8.292  -0.828  -2.443  0.00  0.00    +0.061 A 
ATOM     23  O   UNL     1     -11.815  -1.469  -3.104  0.00  0.00    -0.284 OA
BRANCH  21  24
ATOM     24  O   UNL     1      -9.345  -2.182  -4.084  0.00  0.00    -0.503 OA
ATOM     25  H   UNL     1      -9.339  -1.738  -4.943  0.00  0.00    +0.292 HD
ENDBRANCH  21  24
ENDBRANCH  15  17
ENDBRANCH  12  15
ENDBRANCH   3  11
BRANCH   5  26
ATOM     26  C   UNL     1      -2.584  -4.011   0.580  0.00  0.00    +0.108 C 
BRANCH  26  27
ATOM     27  S   UNL     1      -2.743  -4.996  -0.936  0.00  0.00    -0.151 S 
BRANCH  27  28
ATOM     28  C   UNL     1      -2.853  -6.705  -0.338  0.00  0.00    +0.104 C 
BRANCH  28  29
ATOM     29  C   UNL     1      -2.990  -7.640  -1.512  0.00  0.00    -0.038 A 
ATOM     30  C   UNL     1      -4.244  -7.966  -1.994  0.00  0.00    +0.004 A 
ATOM     31  C   UNL     1      -4.370  -8.823  -3.071  0.00  0.00    +0.000 A 
ATOM     32  C   UNL     1      -3.241  -9.354  -3.667  0.00  0.00    +0.000 A 
ATOM     33  C   UNL     1      -1.987  -9.027  -3.187  0.00  0.00    +0.000 A 
ATOM     34  C   UNL     1      -1.861  -8.167  -2.112  0.00  0.00    +0.004 A 
ENDBRANCH  28  29
ENDBRANCH  27  28
ENDBRANCH  26  27
ENDBRANCH   5  26
TORSDOF 11
