REMARK  Name = CHEMBL455434
REMARK  7 active torsions:
REMARK  status: ('A' for Active; 'I' for Inactive)
REMARK    1  A    between atoms: C_4  and  C_7
REMARK    2  A    between atoms: C_7  and  C_8
REMARK    3  A    between atoms: C_11  and  N_14
REMARK    4  A    between atoms: C_19  and  C_21
REMARK    5  A    between atoms: C_22  and  C_23
REMARK    6  A    between atoms: C_26  and  O_30
REMARK    7  A    between atoms: O_30  and  C_31
REMARK                            x       y       z     vdW  Elec       q    Type
REMARK                         _______ _______ _______ _____ _____    ______ ____
ROOT
ATOM      1  N   UNL     1       5.418  -1.657   5.287  0.00  0.00    -0.298 N 
ATOM      2  C   UNL     1       4.962  -2.772   5.973  0.00  0.00    +0.141 A 
ATOM      3  C   UNL     1       5.280  -2.965   7.306  0.00  0.00    +0.079 A 
ATOM      4  C   UNL     1       4.817  -4.099   8.011  0.00  0.00    +0.084 A 
ATOM      5  C   UNL     1       5.208  -4.177   9.354  0.00  0.00    +0.053 A 
ATOM      6  C   UNL     1       5.984  -3.195   9.893  0.00  0.00    +0.065 A 
ATOM      7  S   UNL     1       6.219  -2.078   8.520  0.00  0.00    -0.075 S 
ATOM      8  N   UNL     1       4.054  -4.963   7.292  0.00  0.00    -0.235 NA
ATOM      9  C   UNL     1       3.778  -4.743   6.034  0.00  0.00    +0.224 A 
ATOM     10  N   UNL     1       4.200  -3.684   5.366  0.00  0.00    -0.219 NA
ATOM     11  H   UNL     1       6.033  -1.042   5.716  0.00  0.00    +0.154 HD
ENDROOT
BRANCH   1  15
ATOM     12  C   UNL     1       4.149  -0.948   1.384  0.00  0.00    -0.043 A 
ATOM     13  C   UNL     1       3.297  -1.560   2.286  0.00  0.00    +0.006 A 
ATOM     14  C   UNL     1       3.715  -1.796   3.581  0.00  0.00    +0.023 A 
ATOM     15  C   UNL     1       4.992  -1.420   3.977  0.00  0.00    +0.032 A 
ATOM     16  C   UNL     1       5.845  -0.806   3.068  0.00  0.00    +0.023 A 
ATOM     17  C   UNL     1       5.423  -0.577   1.774  0.00  0.00    +0.006 A 
BRANCH  12  18
ATOM     18  C   UNL     1       3.689  -0.691  -0.028  0.00  0.00    +0.070 C 
BRANCH  18  22
ATOM     19  C   UNL     1       4.646  -4.059  -2.474  0.00  0.00    +0.000 A 
ATOM     20  C   UNL     1       3.429  -4.003  -1.821  0.00  0.00    +0.000 A 
ATOM     21  C   UNL     1       3.120  -2.913  -1.029  0.00  0.00    +0.004 A 
ATOM     22  C   UNL     1       4.027  -1.879  -0.890  0.00  0.00    -0.043 A 
ATOM     23  C   UNL     1       5.244  -1.936  -1.543  0.00  0.00    +0.004 A 
ATOM     24  C   UNL     1       5.553  -3.025  -2.336  0.00  0.00    +0.000 A 
ENDBRANCH  18  22
ENDBRANCH  12  18
ENDBRANCH   1  15
BRANCH   6  25
ATOM     25  C   UNL     1       6.488  -3.087  11.229  0.00  0.00    -0.057 C 
ATOM     26  C   UNL     1       6.901  -2.998  12.324  0.00  0.00    -0.078 C 
BRANCH  26  27
ATOM     27  C   UNL     1       7.419  -2.886  13.698  0.00  0.00    +0.134 C 
ATOM     28  C   UNL     1       8.270  -4.130  14.056  0.00  0.00    +0.077 C 
ATOM     29  C   UNL     1       7.176  -5.156  14.450  0.00  0.00    +0.194 C 
ATOM     30  C   UNL     1       6.113  -4.281  15.146  0.00  0.00    +0.126 C 
ATOM     31  N   UNL     1       6.305  -2.896  14.670  0.00  0.00    -0.300 NA
ATOM     32  H   UNL     1       6.491  -2.270  15.440  0.00  0.00    +0.123 HD
BRANCH  29  33
ATOM     33  O   UNL     1       7.700  -6.133  15.351  0.00  0.00    -0.446 OA
BRANCH  33  34
ATOM     34  C   UNL     1       7.154  -7.362  15.306  0.00  0.00    +0.403 C 
ATOM     35  O   UNL     1       6.255  -7.599  14.523  0.00  0.00    -0.226 OA
ATOM     36  N   UNL     1       7.602  -8.330  16.130  0.00  0.00    -0.263 N 
ATOM     37  C   UNL     1       8.685  -8.065  17.091  0.00  0.00    +0.139 C 
ATOM     38  C   UNL     1       8.232  -8.548  18.474  0.00  0.00    +0.179 C 
ATOM     39  O   UNL     1       7.787  -9.903  18.377  0.00  0.00    -0.377 OA
ATOM     40  C   UNL     1       6.653 -10.087  17.527  0.00  0.00    +0.179 C 
ATOM     41  C   UNL     1       7.020  -9.681  16.099  0.00  0.00    +0.139 C 
ENDBRANCH  33  34
ENDBRANCH  29  33
ENDBRANCH  26  27
ENDBRANCH   6  25
TORSDOF 7
