REMARK  Name = CHEMBL205047
REMARK  8 active torsions:
REMARK  status: ('A' for Active; 'I' for Inactive)
REMARK    1  A    between atoms: C_3  and  C_8
REMARK    2  A    between atoms: C_8  and  O_9
REMARK    3  A    between atoms: O_9  and  C_10
REMARK    4  A    between atoms: C_13  and  N_17
REMARK    5  A    between atoms: C_19  and  C_24
REMARK    6  A    between atoms: C_25  and  C_26
REMARK    7  A    between atoms: C_29  and  C_31
REMARK    8  A    between atoms: C_31  and  O_32
REMARK                            x       y       z     vdW  Elec       q    Type
REMARK                         _______ _______ _______ _____ _____    ______ ____
ROOT
ATOM      1  N   UNL     1       8.806   5.232   2.017  0.00  0.00    -0.298 N 
ATOM      2  C   UNL     1       9.244   6.100   1.033  0.00  0.00    +0.142 A 
ATOM      3  C   UNL     1      10.498   6.739   1.144  0.00  0.00    +0.083 A 
ATOM      4  C   UNL     1      10.886   7.605   0.119  0.00  0.00    +0.132 A 
ATOM      5  N   UNL     1      10.071   7.791  -0.907  0.00  0.00    -0.242 NA
ATOM      6  C   UNL     1       8.908   7.175  -0.975  0.00  0.00    +0.223 A 
ATOM      7  N   UNL     1       8.496   6.344  -0.037  0.00  0.00    -0.219 NA
ATOM      8  H   UNL     1       9.322   5.119   2.830  0.00  0.00    +0.154 HD
ENDROOT
BRANCH   1  12
ATOM      9  C   UNL     1       5.262   3.099   1.486  0.00  0.00    +0.139 A 
ATOM     10  C   UNL     1       6.059   3.403   0.393  0.00  0.00    +0.049 A 
ATOM     11  C   UNL     1       7.233   4.109   0.568  0.00  0.00    +0.027 A 
ATOM     12  C   UNL     1       7.615   4.516   1.839  0.00  0.00    +0.034 A 
ATOM     13  C   UNL     1       6.817   4.213   2.934  0.00  0.00    +0.047 A 
ATOM     14  C   UNL     1       5.640   3.510   2.757  0.00  0.00    +0.084 A 
ATOM     15 CL   UNL     1       4.638   3.137   4.124  0.00  0.00    -0.080 Cl
BRANCH   9  16
ATOM     16  O   UNL     1       4.106   2.404   1.313  0.00  0.00    -0.486 OA
BRANCH  16  17
ATOM     17  C   UNL     1       3.779   2.013  -0.022  0.00  0.00    +0.264 C 
BRANCH  17  20
ATOM     18  C   UNL     1       0.084   1.248  -0.169  0.00  0.00    +0.003 A 
ATOM     19  C   UNL     1       1.282   1.939  -0.172  0.00  0.00    +0.007 A 
ATOM     20  C   UNL     1       2.474   1.258  -0.018  0.00  0.00    -0.008 A 
ATOM     21  C   UNL     1       2.471  -0.116   0.138  0.00  0.00    +0.045 A 
ATOM     22  C   UNL     1       1.273  -0.809   0.141  0.00  0.00    +0.124 A 
ATOM     23  C   UNL     1       0.079  -0.125  -0.012  0.00  0.00    +0.038 A 
ATOM     24  F   UNL     1       1.269  -2.151   0.294  0.00  0.00    -0.205 F 
ENDBRANCH  17  20
ENDBRANCH  16  17
ENDBRANCH   9  16
ENDBRANCH   1  12
BRANCH   3  25
ATOM     25  C   UNL     1      11.346   6.507   2.275  0.00  0.00    -0.055 C 
ATOM     26  C   UNL     1      12.041   6.317   3.201  0.00  0.00    -0.040 C 
BRANCH  26  27
ATOM     27  C   UNL     1      12.889   6.085   4.332  0.00  0.00    +0.121 A 
ATOM     28  C   UNL     1      12.526   5.233   5.347  0.00  0.00    +0.083 A 
ATOM     29  S   UNL     1      13.950   5.369   6.416  0.00  0.00    -0.077 S 
ATOM     30  C   UNL     1      14.835   6.462   5.492  0.00  0.00    +0.105 A 
ATOM     31  N   UNL     1      14.071   6.676   4.454  0.00  0.00    -0.233 NA
BRANCH  30  32
ATOM     32  C   UNL     1      16.191   7.050   5.789  0.00  0.00    +0.218 C 
BRANCH  32  33
ATOM     33  O   UNL     1      16.032   8.260   6.533  0.00  0.00    -0.388 OA
ATOM     34  H   UNL     1      16.866   8.694   6.759  0.00  0.00    +0.210 HD
ENDBRANCH  32  33
ENDBRANCH  30  32
ENDBRANCH  26  27
ENDBRANCH   3  25
TORSDOF 8
