REMARK  Name = CHEMBL381604
REMARK  6 active torsions:
REMARK  status: ('A' for Active; 'I' for Inactive)
REMARK    1  A    between atoms: C_3  and  C_8
REMARK    2  A    between atoms: C_8  and  O_9
REMARK    3  A    between atoms: O_9  and  C_10
REMARK    4  A    between atoms: C_13  and  N_17
REMARK    5  A    between atoms: C_19  and  C_24
REMARK    6  A    between atoms: C_25  and  C_26
REMARK                            x       y       z     vdW  Elec       q    Type
REMARK                         _______ _______ _______ _____ _____    ______ ____
ROOT
ATOM      1  N   UNL     1       8.806   5.232   2.017  0.00  0.00    -0.298 N 
ATOM      2  C   UNL     1       9.244   6.099   1.034  0.00  0.00    +0.142 A 
ATOM      3  C   UNL     1      10.498   6.738   1.146  0.00  0.00    +0.083 A 
ATOM      4  C   UNL     1      10.886   7.604   0.119  0.00  0.00    +0.132 A 
ATOM      5  N   UNL     1      10.071   7.790  -0.906  0.00  0.00    -0.242 NA
ATOM      6  C   UNL     1       8.907   7.174  -0.973  0.00  0.00    +0.223 A 
ATOM      7  N   UNL     1       8.496   6.343  -0.036  0.00  0.00    -0.219 NA
ATOM      8  H   UNL     1       9.322   5.119   2.830  0.00  0.00    +0.154 HD
ENDROOT
BRANCH   1  12
ATOM      9  C   UNL     1       5.262   3.099   1.486  0.00  0.00    +0.139 A 
ATOM     10  C   UNL     1       6.060   3.402   0.393  0.00  0.00    +0.049 A 
ATOM     11  C   UNL     1       7.233   4.108   0.568  0.00  0.00    +0.027 A 
ATOM     12  C   UNL     1       7.615   4.516   1.839  0.00  0.00    +0.034 A 
ATOM     13  C   UNL     1       6.817   4.214   2.934  0.00  0.00    +0.047 A 
ATOM     14  C   UNL     1       5.640   3.511   2.757  0.00  0.00    +0.084 A 
ATOM     15 CL   UNL     1       4.638   3.138   4.124  0.00  0.00    -0.080 Cl
BRANCH   9  16
ATOM     16  O   UNL     1       4.106   2.404   1.313  0.00  0.00    -0.486 OA
BRANCH  16  17
ATOM     17  C   UNL     1       3.779   2.012  -0.022  0.00  0.00    +0.264 C 
BRANCH  17  20
ATOM     18  C   UNL     1       0.084   1.247  -0.169  0.00  0.00    +0.003 A 
ATOM     19  C   UNL     1       1.282   1.938  -0.172  0.00  0.00    +0.007 A 
ATOM     20  C   UNL     1       2.475   1.257  -0.018  0.00  0.00    -0.008 A 
ATOM     21  C   UNL     1       2.472  -0.116   0.139  0.00  0.00    +0.045 A 
ATOM     22  C   UNL     1       1.273  -0.809   0.142  0.00  0.00    +0.124 A 
ATOM     23  C   UNL     1       0.079  -0.126  -0.012  0.00  0.00    +0.038 A 
ATOM     24  F   UNL     1       1.269  -2.152   0.295  0.00  0.00    -0.205 F 
ENDBRANCH  17  20
ENDBRANCH  16  17
ENDBRANCH   9  16
ENDBRANCH   1  12
BRANCH   3  25
ATOM     25  C   UNL     1      11.346   6.506   2.276  0.00  0.00    -0.055 C 
ATOM     26  C   UNL     1      12.041   6.316   3.202  0.00  0.00    -0.041 C 
BRANCH  26  27
ATOM     27  C   UNL     1      12.890   6.085   4.332  0.00  0.00    +0.119 A 
ATOM     28  C   UNL     1      12.493   5.209   5.354  0.00  0.00    +0.057 A 
ATOM     29  C   UNL     1      13.346   5.018   6.424  0.00  0.00    +0.117 A 
ATOM     30  N   UNL     1      14.503   5.662   6.454  0.00  0.00    -0.223 NA
ATOM     31  C   UNL     1      14.855   6.484   5.476  0.00  0.00    +0.214 A 
ATOM     32  N   UNL     1      14.073   6.694   4.428  0.00  0.00    -0.206 NA
ATOM     33  N   UNL     1      16.074   7.135   5.548  0.00  0.00    -0.327 N 
ATOM     34  H   UNL     1      16.658   6.987   6.308  0.00  0.00    +0.145 HD
ATOM     35  H   UNL     1      16.344   7.739   4.839  0.00  0.00    +0.145 HD
ENDBRANCH  26  27
ENDBRANCH   3  25
TORSDOF 6
