REMARK  Name = CHEMBL554983
REMARK  1 active torsions:
REMARK  status: ('A' for Active; 'I' for Inactive)
REMARK    1  A    between atoms: N_14  and  C_15
REMARK                            x       y       z     vdW  Elec       q    Type
REMARK                         _______ _______ _______ _____ _____    ______ ____
ROOT
ATOM      1  C   UNL     1      -0.032   1.299  -0.822  0.00  0.00    +0.001 A 
ATOM      2  C   UNL     1       1.153   2.001  -0.985  0.00  0.00    +0.002 A 
ATOM      3  C   UNL     1       2.367   1.356  -0.899  0.00  0.00    +0.026 A 
ATOM      4  C   UNL     1       2.413  -0.012  -0.646  0.00  0.00    +0.049 A 
ATOM      5  C   UNL     1       1.212  -0.722  -0.481  0.00  0.00    +0.026 A 
ATOM      6  C   UNL     1      -0.009  -0.055  -0.571  0.00  0.00    +0.012 A 
ATOM      7  C   UNL     1       1.586  -2.123  -0.232  0.00  0.00    +0.101 A 
ATOM      8  N   UNL     1       0.901  -3.244  -0.006  0.00  0.00    -0.233 NA
ATOM      9  C   UNL     1       1.528  -4.384   0.187  0.00  0.00    +0.224 A 
ATOM     10  N   UNL     1       2.845  -4.476   0.168  0.00  0.00    -0.218 NA
ATOM     11  C   UNL     1       3.607  -3.409  -0.051  0.00  0.00    +0.150 A 
ATOM     12  C   UNL     1       2.986  -2.171  -0.263  0.00  0.00    +0.107 A 
ATOM     13  N   UNL     1       3.464  -0.899  -0.512  0.00  0.00    -0.350 N 
ATOM     14  N   UNL     1       4.989  -3.519  -0.069  0.00  0.00    -0.298 N 
ATOM     15  H   UNL     1       5.538  -2.723  -0.145  0.00  0.00    +0.154 HD
ATOM     16  H   UNL     1       4.402  -0.662  -0.582  0.00  0.00    +0.166 HD
ENDROOT
BRANCH  14  17
ATOM     17  C   UNL     1       5.592  -4.777   0.023  0.00  0.00    +0.033 A 
ATOM     18  C   UNL     1       6.789  -4.927   0.713  0.00  0.00    +0.023 A 
ATOM     19  C   UNL     1       7.381  -6.171   0.802  0.00  0.00    +0.003 A 
ATOM     20  C   UNL     1       6.785  -7.268   0.207  0.00  0.00    +0.015 A 
ATOM     21  C   UNL     1       5.593  -7.122  -0.480  0.00  0.00    +0.020 A 
ATOM     22  C   UNL     1       4.992  -5.881  -0.569  0.00  0.00    +0.038 A 
ATOM     23 BR   UNL     1       4.781  -8.625  -1.292  0.00  0.00    -0.050 Br
ENDBRANCH  14  17
TORSDOF 1
