REMARK  Name = CHEMBL213007
REMARK  7 active torsions:
REMARK  status: ('A' for Active; 'I' for Inactive)
REMARK    1  A    between atoms: C_1  and  O_2
REMARK    2  A    between atoms: O_2  and  C_3
REMARK    3  A    between atoms: C_8  and  O_9
REMARK    4  A    between atoms: O_9  and  C_10
REMARK    5  A    between atoms: N_13  and  S_16
REMARK    6  A    between atoms: S_16  and  C_19
REMARK    7  A    between atoms: N_24  and  C_25
REMARK                            x       y       z     vdW  Elec       q    Type
REMARK                         _______ _______ _______ _____ _____    ______ ____
ROOT
ATOM      1  C   UNL     1       0.694  -1.107   2.067  0.00  0.00    +0.164 A 
ATOM      2  C   UNL     1       1.263  -0.764   3.273  0.00  0.00    +0.078 A 
ATOM      3  C   UNL     1       2.011  -1.714   3.978  0.00  0.00    +0.080 A 
ATOM      4  C   UNL     1       2.171  -3.015   3.439  0.00  0.00    +0.044 A 
ATOM      5  C   UNL     1       1.582  -3.338   2.211  0.00  0.00    +0.062 A 
ATOM      6  C   UNL     1       0.852  -2.397   1.542  0.00  0.00    +0.163 A 
ATOM      7  C   UNL     1       2.933  -3.954   4.175  0.00  0.00    +0.134 A 
ATOM      8  N   UNL     1       3.457  -3.568   5.331  0.00  0.00    -0.220 NA
ATOM      9  C   UNL     1       3.281  -2.342   5.795  0.00  0.00    +0.223 A 
ATOM     10  N   UNL     1       2.586  -1.430   5.158  0.00  0.00    -0.235 NA
ATOM     11  N   UNL     1       3.124  -5.237   3.702  0.00  0.00    -0.297 N 
ATOM     12  H   UNL     1       2.811  -5.479   2.817  0.00  0.00    +0.154 HD
ENDROOT
BRANCH  11  13
ATOM     13  C   UNL     1       3.770  -6.187   4.500  0.00  0.00    +0.069 A 
ATOM     14  C   UNL     1       3.853  -6.001   5.874  0.00  0.00    +0.046 A 
ATOM     15  C   UNL     1       4.492  -6.942   6.660  0.00  0.00    +0.043 A 
ATOM     16  C   UNL     1       5.049  -8.068   6.080  0.00  0.00    +0.023 A 
ATOM     17  C   UNL     1       4.969  -8.256   4.712  0.00  0.00    +0.041 A 
ATOM     18  C   UNL     1       4.326  -7.322   3.921  0.00  0.00    +0.145 A 
ATOM     19  F   UNL     1       4.243  -7.509   2.585  0.00  0.00    -0.204 F 
ATOM     20 CL   UNL     1       4.596  -6.710   8.377  0.00  0.00    -0.083 Cl
ENDBRANCH  11  13
BRANCH   1  22
ATOM     21  C   UNL     1      -0.158   1.110   1.968  0.00  0.00    +0.277 C 
ATOM     22  O   UNL     1      -0.034  -0.187   1.381  0.00  0.00    -0.491 OA
ENDBRANCH   1  22
BRANCH   6  23
ATOM     23  O   UNL     1       0.276  -2.714   0.352  0.00  0.00    -0.485 OA
BRANCH  23  24
ATOM     24  C   UNL     1       0.377  -4.074  -0.076  0.00  0.00    +0.176 C 
ATOM     25  C   UNL     1       1.717  -4.287  -0.785  0.00  0.00    +0.061 C 
ATOM     26  C   UNL     1       1.837  -5.753  -1.212  0.00  0.00    +0.112 C 
ATOM     27  N   UNL     1       0.663  -6.107  -2.022  0.00  0.00    -0.181 NA
ATOM     28  C   UNL     1      -0.676  -5.859  -1.470  0.00  0.00    +0.112 C 
ATOM     29  C   UNL     1      -0.768  -4.391  -1.040  0.00  0.00    +0.061 C 
BRANCH  27  30
ATOM     30  S   UNL     1       0.845  -6.774  -3.527  0.00  0.00    +0.029 S 
ATOM     31  O   UNL     1      -0.340  -6.420  -4.226  0.00  0.00    -0.158 OA
ATOM     32  O   UNL     1       2.114  -6.316  -3.974  0.00  0.00    -0.158 OA
ATOM     33  C   UNL     1       0.892  -8.564  -3.241  0.00  0.00    +0.215 C 
ENDBRANCH  27  30
ENDBRANCH  23  24
ENDBRANCH   6  23
TORSDOF 5
