REMARK  Name = CHEMBL193544
REMARK  7 active torsions:
REMARK  status: ('A' for Active; 'I' for Inactive)
REMARK    1  A    between atoms: C_1  and  N_2
REMARK    2  A    between atoms: C_5  and  O_8
REMARK    3  A    between atoms: O_8  and  C_9
REMARK    4  A    between atoms: N_19  and  C_20
REMARK    5  A    between atoms: C_23  and  O_27
REMARK    6  A    between atoms: O_27  and  C_28
REMARK    7  A    between atoms: C_28  and  C_29
REMARK                            x       y       z     vdW  Elec       q    Type
REMARK                         _______ _______ _______ _____ _____    ______ ____
ROOT
ATOM      1  C   UNL     1      -0.625  -4.640   2.069  0.00  0.00    +0.133 A 
ATOM      2  C   UNL     1      -0.810  -3.951   3.252  0.00  0.00    +0.046 A 
ATOM      3  C   UNL     1      -1.092  -4.630   4.431  0.00  0.00    +0.006 A 
ATOM      4  C   UNL     1      -1.194  -5.990   4.455  0.00  0.00    +0.029 A 
ATOM      5  C   UNL     1      -1.013  -6.723   3.276  0.00  0.00    +0.080 A 
ATOM      6  C   UNL     1      -0.731  -6.040   2.067  0.00  0.00    +0.082 A 
ATOM      7  C   UNL     1      -0.559  -6.805   0.891  0.00  0.00    +0.137 A 
ATOM      8  N   UNL     1      -0.675  -8.124   0.978  0.00  0.00    -0.220 NA
ATOM      9  C   UNL     1      -0.945  -8.720   2.128  0.00  0.00    +0.223 A 
ATOM     10  N   UNL     1      -1.103  -8.062   3.253  0.00  0.00    -0.235 NA
ATOM     11  N   UNL     1      -0.278  -6.197  -0.315  0.00  0.00    -0.299 N 
ATOM     12  H   UNL     1      -0.043  -5.256  -0.340  0.00  0.00    +0.154 HD
ENDROOT
BRANCH  11  13
ATOM     13  C   UNL     1      -0.331  -6.937  -1.502  0.00  0.00    +0.034 A 
ATOM     14  C   UNL     1      -0.143  -8.313  -1.471  0.00  0.00    +0.027 A 
ATOM     15  C   UNL     1      -0.195  -9.043  -2.642  0.00  0.00    +0.049 A 
ATOM     16  C   UNL     1      -0.436  -8.403  -3.849  0.00  0.00    +0.139 A 
ATOM     17  C   UNL     1      -0.624  -7.029  -3.881  0.00  0.00    +0.084 A 
ATOM     18  C   UNL     1      -0.578  -6.298  -2.709  0.00  0.00    +0.047 A 
ATOM     19 CL   UNL     1      -0.925  -6.228  -5.392  0.00  0.00    -0.080 Cl
BRANCH  16  20
ATOM     20  O   UNL     1      -0.487  -9.123  -5.002  0.00  0.00    -0.484 OA
BRANCH  20  21
ATOM     21  C   UNL     1      -0.283 -10.534  -4.895  0.00  0.00    +0.284 C 
BRANCH  21  22
ATOM     22  C   UNL     1      -0.374 -11.159  -6.263  0.00  0.00    +0.078 A 
ATOM     23  C   UNL     1      -0.617 -10.360  -7.365  0.00  0.00    +0.027 A 
ATOM     24  C   UNL     1      -0.699 -10.945  -8.619  0.00  0.00    +0.003 A 
ATOM     25  C   UNL     1      -0.533 -12.318  -8.719  0.00  0.00    +0.020 A 
ATOM     26  C   UNL     1      -0.293 -13.053  -7.573  0.00  0.00    +0.111 A 
ATOM     27  N   UNL     1      -0.216 -12.461  -6.397  0.00  0.00    -0.256 NA
ENDBRANCH  21  22
ENDBRANCH  20  21
ENDBRANCH  16  20
ENDBRANCH  11  13
BRANCH   1  28
ATOM     28  O   UNL     1      -0.350  -3.971   0.921  0.00  0.00    -0.488 OA
BRANCH  28  33
ATOM     29  C   UNL     1       1.280   1.341   0.174  0.00  0.00    -0.096 C 
ATOM     30  N   UNL     1       1.079  -0.115   0.170  0.00  0.00    +0.378 N 
ATOM     31  C   UNL     1      -0.279  -0.419  -0.295  0.00  0.00    -0.076 C 
ATOM     32  C   UNL     1      -0.467  -1.935  -0.380  0.00  0.00    +0.026 C 
ATOM     33  C   UNL     1      -0.250  -2.548   1.007  0.00  0.00    +0.170 C 
ATOM     34  C   UNL     1       1.142  -2.163   1.514  0.00  0.00    +0.026 C 
ATOM     35  C   UNL     1       1.270  -0.638   1.528  0.00  0.00    -0.076 C 
ATOM     36  H   UNL     1       1.749  -0.543  -0.452  0.00  0.00    -0.082 HD
ENDBRANCH  28  33
ENDBRANCH   1  28
TORSDOF 6
