REMARK  Name = CHEMBL179310
REMARK  14 active torsions:
REMARK  status: ('A' for Active; 'I' for Inactive)
REMARK    1  A    between atoms: C_1  and  C_2
REMARK    2  A    between atoms: C_2  and  O_3
REMARK    3  A    between atoms: O_3  and  C_4
REMARK    4  A    between atoms: C_9  and  N_10
REMARK    5  A    between atoms: C_11  and  C_13
REMARK    6  A    between atoms: C_14  and  C_15
REMARK    7  A    between atoms: C_15  and  N_16
REMARK    8  A    between atoms: N_16  and  C_17
REMARK    9  A    between atoms: N_16  and  C_18
REMARK   10  A    between atoms: C_19  and  N_25
REMARK   11  A    between atoms: C_20  and  C_23
REMARK   12  A    between atoms: N_25  and  C_26
REMARK   13  A    between atoms: N_34  and  C_35
REMARK   14  A    between atoms: C_35  and  C_36
REMARK                            x       y       z     vdW  Elec       q    Type
REMARK                         _______ _______ _______ _____ _____    ______ ____
ROOT
ATOM      1  C   UNL     1       0.567  -3.773   2.165  0.00  0.00    +0.144 A 
ATOM      2  C   UNL     1       1.026  -4.090   0.908  0.00  0.00    +0.076 A 
ATOM      3  C   UNL     1       0.186  -4.758   0.003  0.00  0.00    +0.076 A 
ATOM      4  C   UNL     1      -1.130  -5.096   0.401  0.00  0.00    +0.025 A 
ATOM      5  C   UNL     1      -1.580  -4.764   1.687  0.00  0.00    +0.039 A 
ATOM      6  C   UNL     1      -0.736  -4.114   2.559  0.00  0.00    +0.077 A 
ATOM      7  C   UNL     1      -1.972  -5.769  -0.514  0.00  0.00    +0.060 A 
ATOM      8  C   UNL     1      -1.453  -6.069  -1.783  0.00  0.00    +0.091 A 
ATOM      9  C   UNL     1      -0.136  -5.695  -2.092  0.00  0.00    +0.132 A 
ATOM     10  N   UNL     1       0.622  -5.074  -1.225  0.00  0.00    -0.253 NA
ENDROOT
BRANCH   6  11
ATOM     11  N   UNL     1      -1.182  -3.787   3.845  0.00  0.00    -0.279 N 
ATOM     12  C   UNL     1      -2.492  -3.561   4.067  0.00  0.00    +0.241 C 
ATOM     13  O   UNL     1      -3.299  -3.740   3.175  0.00  0.00    -0.271 OA
ATOM     14  H   UNL     1      -0.548  -3.724   4.577  0.00  0.00    +0.155 HD
BRANCH  12  15
ATOM     15  C   UNL     1      -2.944  -3.096   5.387  0.00  0.00    +0.064 C 
ATOM     16  C   UNL     1      -4.237  -2.872   5.605  0.00  0.00    -0.007 C 
BRANCH  16  17
ATOM     17  C   UNL     1      -4.701  -2.396   6.958  0.00  0.00    +0.111 C 
BRANCH  17  18
ATOM     18  N   UNL     1      -5.473  -1.156   6.802  0.00  0.00    -0.305 NA
ATOM     19  C   UNL     1      -6.139  -0.789   8.059  0.00  0.00    +0.104 C 
ATOM     20  C   UNL     1      -4.619  -0.062   6.320  0.00  0.00    +0.104 C 
ENDBRANCH  17  18
ENDBRANCH  16  17
ENDBRANCH  12  15
ENDBRANCH   6  11
BRANCH   8  21
ATOM     21  C   UNL     1      -2.259  -6.749  -2.752  0.00  0.00    +0.103 C 
ATOM     22  N   UNL     1      -2.898  -7.289  -3.521  0.00  0.00    -0.191 NA
ENDBRANCH   8  21
BRANCH   7  23
ATOM     23  N   UNL     1      -3.262  -6.119  -0.171  0.00  0.00    -0.313 N 
ATOM     24  H   UNL     1      -3.969  -5.456  -0.200  0.00  0.00    +0.152 HD
BRANCH  23  25
ATOM     25  C   UNL     1      -3.550  -7.432   0.220  0.00  0.00    +0.032 A 
ATOM     26  C   UNL     1      -2.527  -8.282   0.620  0.00  0.00    +0.025 A 
ATOM     27  C   UNL     1      -2.811  -9.574   1.004  0.00  0.00    +0.025 A 
ATOM     28  C   UNL     1      -4.128 -10.041   0.995  0.00  0.00    +0.033 A 
ATOM     29  C   UNL     1      -5.144  -9.188   0.594  0.00  0.00    -0.023 A 
ATOM     30  C   UNL     1      -4.861  -7.890   0.214  0.00  0.00    +0.028 A 
ATOM     31  C   UNL     1      -6.457  -9.932   0.675  0.00  0.00    +0.056 C 
ATOM     32  C   UNL     1      -6.077 -11.335   1.176  0.00  0.00    +0.110 C 
ATOM     33  N   UNL     1      -4.622 -11.302   1.343  0.00  0.00    -0.325 N 
BRANCH  33  34
ATOM     34  C   UNL     1      -3.804 -12.426   1.807  0.00  0.00    +0.140 C 
BRANCH  34  35
ATOM     35  C   UNL     1      -3.687 -12.376   3.308  0.00  0.00    -0.030 A 
ATOM     36  C   UNL     1      -2.653 -11.674   3.899  0.00  0.00    +0.005 A 
ATOM     37  C   UNL     1      -2.546 -11.628   5.276  0.00  0.00    +0.000 A 
ATOM     38  C   UNL     1      -3.474 -12.285   6.063  0.00  0.00    +0.000 A 
ATOM     39  C   UNL     1      -4.508 -12.987   5.473  0.00  0.00    +0.000 A 
ATOM     40  C   UNL     1      -4.617 -13.029   4.096  0.00  0.00    +0.005 A 
ENDBRANCH  34  35
ENDBRANCH  33  34
ENDBRANCH  23  25
ENDBRANCH   7  23
BRANCH   1  41
ATOM     41  O   UNL     1       1.385  -3.127   3.036  0.00  0.00    -0.490 OA
BRANCH  41  43
ATOM     42  C   UNL     1       3.467  -2.087   3.686  0.00  0.00    +0.048 C 
ATOM     43  C   UNL     1       2.699  -2.806   2.576  0.00  0.00    +0.226 C 
ENDBRANCH  41  43
ENDBRANCH   1  41
TORSDOF 11
