REMARK  Name = CHEMBL268868
REMARK  4 active torsions:
REMARK  status: ('A' for Active; 'I' for Inactive)
REMARK    1  A    between atoms: C_4  and  N_7
REMARK    2  A    between atoms: N_7  and  C_8
REMARK    3  A    between atoms: C_13  and  N_14
REMARK    4  A    between atoms: N_14  and  C_15
REMARK                            x       y       z     vdW  Elec       q    Type
REMARK                         _______ _______ _______ _____ _____    ______ ____
ROOT
ATOM      1  C   UNL     1       3.675  -1.988  -0.259  0.00  0.00    +0.054 A 
ATOM      2  C   UNL     1       2.495  -2.674  -0.523  0.00  0.00    +0.039 A 
ATOM      3  C   UNL     1       2.514  -4.055  -0.640  0.00  0.00    +0.051 A 
ATOM      4  C   UNL     1       3.729  -4.760  -0.491  0.00  0.00    +0.051 A 
ATOM      5  C   UNL     1       4.903  -4.070  -0.228  0.00  0.00    +0.039 A 
ATOM      6  C   UNL     1       4.878  -2.684  -0.117  0.00  0.00    +0.054 A 
ATOM      7  C   UNL     1       3.394  -6.185  -0.673  0.00  0.00    +0.251 C 
ATOM      8  O   UNL     1       4.179  -7.111  -0.618  0.00  0.00    -0.270 OA
ATOM      9  N   UNL     1       2.074  -6.288  -0.910  0.00  0.00    -0.248 N 
ATOM     10  C   UNL     1       1.485  -5.079  -0.907  0.00  0.00    +0.251 C 
ATOM     11  O   UNL     1       0.304  -4.865  -1.093  0.00  0.00    -0.270 OA
ATOM     12  H   UNL     1       1.608  -7.125  -1.064  0.00  0.00    +0.158 HD
ENDROOT
BRANCH   1  13
ATOM     13  N   UNL     1       3.658  -0.598  -0.141  0.00  0.00    -0.313 N 
ATOM     14  H   UNL     1       4.492  -0.108  -0.068  0.00  0.00    +0.152 HD
BRANCH  13  18
ATOM     15  C   UNL     1       0.030   1.445  -0.099  0.00  0.00    +0.000 A 
ATOM     16  C   UNL     1       0.168   0.269   0.615  0.00  0.00    +0.002 A 
ATOM     17  C   UNL     1       1.370  -0.411   0.604  0.00  0.00    +0.023 A 
ATOM     18  C   UNL     1       2.441   0.087  -0.127  0.00  0.00    +0.031 A 
ATOM     19  C   UNL     1       2.299   1.269  -0.844  0.00  0.00    +0.023 A 
ATOM     20  C   UNL     1       1.095   1.944  -0.828  0.00  0.00    +0.002 A 
ENDBRANCH  13  18
ENDBRANCH   1  13
BRANCH   6  21
ATOM     21  N   UNL     1       6.058  -1.987   0.142  0.00  0.00    -0.313 N 
ATOM     22  H   UNL     1       6.027  -1.036   0.330  0.00  0.00    +0.152 HD
BRANCH  21  23
ATOM     23  C   UNL     1       7.282  -2.658   0.130  0.00  0.00    +0.031 A 
ATOM     24  C   UNL     1       7.555  -3.592  -0.861  0.00  0.00    +0.023 A 
ATOM     25  C   UNL     1       8.767  -4.254  -0.870  0.00  0.00    +0.002 A 
ATOM     26  C   UNL     1       9.709  -3.988   0.108  0.00  0.00    +0.000 A 
ATOM     27  C   UNL     1       9.440  -3.059   1.097  0.00  0.00    +0.002 A 
ATOM     28  C   UNL     1       8.233  -2.389   1.108  0.00  0.00    +0.023 A 
ENDBRANCH  21  23
ENDBRANCH   6  21
TORSDOF 4
