REMARK  Name = CHEMBL243410
REMARK  14 active torsions:
REMARK  status: ('A' for Active; 'I' for Inactive)
REMARK    1  A    between atoms: C_1  and  C_2
REMARK    2  A    between atoms: C_2  and  O_3
REMARK    3  A    between atoms: O_3  and  C_4
REMARK    4  A    between atoms: C_9  and  N_10
REMARK    5  A    between atoms: C_11  and  C_13
REMARK    6  A    between atoms: C_14  and  C_15
REMARK    7  A    between atoms: C_15  and  N_16
REMARK    8  A    between atoms: N_16  and  C_17
REMARK    9  A    between atoms: N_16  and  C_18
REMARK   10  A    between atoms: C_19  and  N_23
REMARK   11  A    between atoms: C_28  and  O_32
REMARK   12  A    between atoms: O_32  and  C_33
REMARK   13  A    between atoms: C_33  and  C_34
REMARK   14  A    between atoms: C_33  and  C_36
REMARK                            x       y       z     vdW  Elec       q    Type
REMARK                         _______ _______ _______ _____ _____    ______ ____
ROOT
ATOM      1  C   UNL     1       0.892  -2.418  -0.841  0.00  0.00    +0.144 A 
ATOM      2  C   UNL     1       0.395  -3.349   0.025  0.00  0.00    +0.076 A 
ATOM      3  C   UNL     1       0.502  -4.713  -0.281  0.00  0.00    +0.080 A 
ATOM      4  C   UNL     1       1.129  -5.111  -1.492  0.00  0.00    +0.047 A 
ATOM      5  C   UNL     1       1.632  -4.144  -2.366  0.00  0.00    +0.040 A 
ATOM      6  C   UNL     1       1.508  -2.809  -2.043  0.00  0.00    +0.077 A 
ATOM      7  C   UNL     1       1.222  -6.499  -1.772  0.00  0.00    +0.164 A 
ATOM      8  N   UNL     1       0.716  -7.353  -0.884  0.00  0.00    -0.216 NA
ATOM      9  C   UNL     1       0.143  -6.931   0.228  0.00  0.00    +0.224 A 
ATOM     10  N   UNL     1       0.029  -5.660   0.539  0.00  0.00    -0.235 NA
ENDROOT
BRANCH   7  11
ATOM     11  N   UNL     1       1.810  -6.945  -2.915  0.00  0.00    -0.228 NA
ATOM     12  C   UNL     1       3.066  -7.289  -2.910  0.00  0.00    +0.098 C 
ATOM     13  C   UNL     1       3.744  -7.891  -4.130  0.00  0.00    +0.142 C 
ATOM     14  C   UNL     1       5.027  -7.117  -4.349  0.00  0.00    +0.203 C 
ATOM     15  O   UNL     1       5.378  -6.823  -5.467  0.00  0.00    -0.288 OA
ATOM     16  C   UNL     1       5.844  -6.725  -3.185  0.00  0.00    +0.167 C 
ATOM     17  C   UNL     1       5.325  -6.712  -1.932  0.00  0.00    +0.102 C 
ATOM     18  C   UNL     1       3.930  -7.112  -1.710  0.00  0.00    +0.204 C 
ATOM     19  O   UNL     1       3.499  -7.294  -0.587  0.00  0.00    -0.286 OA
BRANCH  16  20
ATOM     20  O   UNL     1       7.137  -6.372  -3.370  0.00  0.00    -0.480 OA
BRANCH  20  21
ATOM     21  C   UNL     1       7.901  -6.071  -2.201  0.00  0.00    +0.235 C 
BRANCH  21  22
ATOM     22  C   UNL     1       9.375  -6.391  -2.459  0.00  0.00    +0.260 C 
ATOM     23  F   UNL     1       9.526  -7.768  -2.656  0.00  0.00    -0.245 F 
ENDBRANCH  21  22
BRANCH  21  24
ATOM     24  C   UNL     1       7.753  -4.586  -1.864  0.00  0.00    +0.260 C 
ATOM     25  F   UNL     1       6.425  -4.316  -1.517  0.00  0.00    -0.245 F 
ENDBRANCH  21  24
ENDBRANCH  20  21
ENDBRANCH  16  20
ENDBRANCH   7  11
BRANCH   6  26
ATOM     26  N   UNL     1       2.003  -1.836  -2.915  0.00  0.00    -0.279 N 
ATOM     27  C   UNL     1       2.138  -2.114  -4.227  0.00  0.00    +0.241 C 
ATOM     28  O   UNL     1       1.739  -3.175  -4.668  0.00  0.00    -0.271 OA
ATOM     29  H   UNL     1       2.250  -0.962  -2.576  0.00  0.00    +0.155 HD
BRANCH  27  30
ATOM     30  C   UNL     1       2.767  -1.134  -5.125  0.00  0.00    +0.061 C 
ATOM     31  C   UNL     1       2.900  -1.407  -6.420  0.00  0.00    -0.040 C 
BRANCH  31  32
ATOM     32  C   UNL     1       3.544  -0.403  -7.340  0.00  0.00    -0.052 C 
BRANCH  32  33
ATOM     33  N   UNL     1       4.664  -1.037  -8.049  0.00  0.00    +0.378 N 
ATOM     34  C   UNL     1       4.150  -2.095  -8.928  0.00  0.00    -0.096 C 
ATOM     35  C   UNL     1       5.366  -0.029  -8.855  0.00  0.00    -0.096 C 
ATOM     36  H   UNL     1       5.303  -1.437  -7.379  0.00  0.00    -0.082 HD
ENDBRANCH  32  33
ENDBRANCH  31  32
ENDBRANCH  27  30
ENDBRANCH   6  26
BRANCH   1  37
ATOM     37  O   UNL     1       0.785  -1.098  -0.541  0.00  0.00    -0.490 OA
BRANCH  37  39
ATOM     38  C   UNL     1       0.122   0.758   0.858  0.00  0.00    +0.048 C 
ATOM     39  C   UNL     1       0.149  -0.763   0.694  0.00  0.00    +0.226 C 
ENDBRANCH  37  39
ENDBRANCH   1  37
TORSDOF 11
