REMARK  Name = CHEMBL473553
REMARK  8 active torsions:
REMARK  status: ('A' for Active; 'I' for Inactive)
REMARK    1  A    between atoms: C_1  and  O_2
REMARK    2  A    between atoms: O_2  and  C_3
REMARK    3  A    between atoms: C_5  and  N_18
REMARK    4  A    between atoms: C_8  and  C_9
REMARK    5  A    between atoms: C_22  and  O_31
REMARK    6  A    between atoms: C_23  and  O_29
REMARK    7  A    between atoms: O_29  and  C_30
REMARK    8  A    between atoms: O_31  and  C_32
REMARK                            x       y       z     vdW  Elec       q    Type
REMARK                         _______ _______ _______ _____ _____    ______ ____
ROOT
ATOM      1  C   UNL     1       0.473  -0.625  -1.139  0.00  0.00    +0.132 A 
ATOM      2  C   UNL     1       1.033   0.142  -2.145  0.00  0.00    +0.069 A 
ATOM      3  C   UNL     1       1.793  -0.462  -3.138  0.00  0.00    +0.036 A 
ATOM      4  C   UNL     1       1.994  -1.839  -3.126  0.00  0.00    +0.024 A 
ATOM      5  C   UNL     1       1.441  -2.611  -2.129  0.00  0.00    +0.016 A 
ATOM      6  C   UNL     1       0.680  -2.011  -1.123  0.00  0.00    +0.049 A 
ENDROOT
BRANCH   3   7
ATOM      7  N   UNL     1       2.356   0.314  -4.152  0.00  0.00    -0.299 N 
ATOM      8  C   UNL     1       2.499  -0.208  -5.422  0.00  0.00    +0.134 A 
ATOM      9  C   UNL     1       3.172   0.517  -6.434  0.00  0.00    +0.044 A 
ATOM     10  C   UNL     1       3.721   1.783  -6.197  0.00  0.00    +0.062 A 
ATOM     11  C   UNL     1       4.362   2.442  -7.207  0.00  0.00    +0.162 A 
ATOM     12  C   UNL     1       4.478   1.864  -8.480  0.00  0.00    +0.164 A 
ATOM     13  C   UNL     1       3.947   0.620  -8.738  0.00  0.00    +0.078 A 
ATOM     14  C   UNL     1       3.285  -0.074  -7.717  0.00  0.00    +0.080 A 
ATOM     15  N   UNL     1       2.751  -1.289  -7.917  0.00  0.00    -0.235 NA
ATOM     16  C   UNL     1       2.138  -1.914  -6.940  0.00  0.00    +0.223 A 
ATOM     17  N   UNL     1       2.012  -1.404  -5.725  0.00  0.00    -0.220 NA
ATOM     18  H   UNL     1       2.648   1.220  -3.964  0.00  0.00    +0.154 HD
BRANCH  12  19
ATOM     19  O   UNL     1       5.119   2.539  -9.469  0.00  0.00    -0.491 OA
ATOM     20  C   UNL     1       5.204   1.897 -10.743  0.00  0.00    +0.277 C 
ENDBRANCH  12  19
BRANCH  11  21
ATOM     21  O   UNL     1       4.894   3.672  -6.977  0.00  0.00    -0.491 OA
ATOM     22  C   UNL     1       4.743   4.208  -5.661  0.00  0.00    +0.277 C 
ENDBRANCH  11  21
ENDBRANCH   3   7
BRANCH   6  23
ATOM     23  C   UNL     1       0.090  -2.835  -0.050  0.00  0.00    +0.113 A 
ATOM     24  N   UNL     1      -0.657  -2.457   0.966  0.00  0.00    -0.239 NA
ATOM     25  C   UNL     1      -1.131  -3.327   1.879  0.00  0.00    +0.079 A 
ATOM     26  C   UNL     1      -1.938  -3.054   3.010  0.00  0.00    +0.029 A 
ATOM     27  C   UNL     1      -2.335  -4.055   3.841  0.00  0.00    +0.002 A 
ATOM     28  C   UNL     1      -1.968  -5.375   3.618  0.00  0.00    +0.001 A 
ATOM     29  C   UNL     1      -1.181  -5.685   2.525  0.00  0.00    +0.017 A 
ATOM     30  C   UNL     1      -0.775  -4.681   1.679  0.00  0.00    +0.040 A 
ATOM     31  S   UNL     1       0.202  -4.602   0.198  0.00  0.00    -0.067 S 
ENDBRANCH   6  23
BRANCH   1  33
ATOM     32  C   UNL     1      -0.439   1.381  -0.249  0.00  0.00    +0.277 C 
ATOM     33  O   UNL     1      -0.271  -0.036  -0.168  0.00  0.00    -0.494 OA
ENDBRANCH   1  33
TORSDOF 5
