REMARK  Name = CHEMBL22978
REMARK  5 active torsions:
REMARK  status: ('A' for Active; 'I' for Inactive)
REMARK    1  A    between atoms: C_1  and  N_2
REMARK    2  A    between atoms: C_5  and  C_8
REMARK    3  A    between atoms: C_5  and  O_26
REMARK    4  A    between atoms: C_10  and  C_19
REMARK    5  A    between atoms: C_11  and  C_13
REMARK                            x       y       z     vdW  Elec       q    Type
REMARK                         _______ _______ _______ _____ _____    ______ ____
ROOT
ATOM      1  C   UNL     1      -0.381  -4.114   1.035  0.00  0.00    +0.228 A 
ATOM      2  N   UNL     1       0.090  -5.001   1.863  0.00  0.00    -0.210 NA
ATOM      3  C   UNL     1      -0.180  -6.233   1.384  0.00  0.00    +0.117 A 
ATOM      4  C   UNL     1      -0.857  -6.064   0.193  0.00  0.00    +0.163 A 
ATOM      5  O   UNL     1      -0.972  -4.730   0.003  0.00  0.00    -0.436 OA
ENDROOT
BRANCH   1  10
ATOM      6  C   UNL     1       0.676   1.404   0.192  0.00  0.00    -0.096 C 
ATOM      7  N   UNL     1       0.525  -0.056   0.134  0.00  0.00    +0.378 N 
ATOM      8  C   UNL     1      -0.896  -0.405   0.241  0.00  0.00    -0.076 C 
ATOM      9  C   UNL     1      -1.067  -1.919   0.101  0.00  0.00    +0.026 C 
ATOM     10  C   UNL     1      -0.282  -2.620   1.213  0.00  0.00    +0.138 C 
ATOM     11  C   UNL     1       1.186  -2.192   1.137  0.00  0.00    +0.026 C 
ATOM     12  C   UNL     1       1.273  -0.668   1.240  0.00  0.00    -0.076 C 
ATOM     13  H   UNL     1       0.888  -0.396  -0.744  0.00  0.00    -0.082 HD
BRANCH  10  14
ATOM     14  O   UNL     1      -0.822  -2.253   2.484  0.00  0.00    -0.379 OA
ATOM     15  H   UNL     1      -0.372  -2.662   3.236  0.00  0.00    +0.211 HD
ENDBRANCH  10  14
ENDBRANCH   1  10
BRANCH   3  16
ATOM     16  C   UNL     1       0.180  -7.523   2.017  0.00  0.00    +0.004 A 
ATOM     17  C   UNL     1       0.683  -8.567   1.240  0.00  0.00    +0.013 A 
ATOM     18  C   UNL     1       1.017  -9.766   1.834  0.00  0.00    +0.039 A 
ATOM     19  C   UNL     1       0.855  -9.935   3.200  0.00  0.00    +0.123 A 
ATOM     20  C   UNL     1       0.356  -8.900   3.976  0.00  0.00    +0.039 A 
ATOM     21  C   UNL     1       0.024  -7.696   3.392  0.00  0.00    +0.013 A 
ATOM     22  F   UNL     1       1.184 -11.111   3.777  0.00  0.00    -0.205 F 
ENDBRANCH   3  16
BRANCH   4  23
ATOM     23  C   UNL     1      -1.359  -7.128  -0.696  0.00  0.00    +0.022 A 
ATOM     24  C   UNL     1      -2.087  -8.211  -0.184  0.00  0.00    +0.031 A 
ATOM     25  C   UNL     1      -2.537  -9.182  -1.051  0.00  0.00    +0.111 A 
ATOM     26  N   UNL     1      -2.292  -9.103  -2.346  0.00  0.00    -0.263 NA
ATOM     27  C   UNL     1      -1.611  -8.101  -2.870  0.00  0.00    +0.111 A 
ATOM     28  C   UNL     1      -1.127  -7.082  -2.078  0.00  0.00    +0.031 A 
ENDBRANCH   4  23
TORSDOF 4
