REMARK  Name = CHEMBL121796
REMARK  3 active torsions:
REMARK  status: ('A' for Active; 'I' for Inactive)
REMARK    1  A    between atoms: C_4  and  C_7
REMARK    2  A    between atoms: C_7  and  N_8
REMARK    3  A    between atoms: N_18  and  C_19
REMARK                            x       y       z     vdW  Elec       q    Type
REMARK                         _______ _______ _______ _____ _____    ______ ____
ROOT
ATOM      1  N   UNL     1       4.454  -0.440   1.395  0.00  0.00    -0.323 N 
ATOM      2  C   UNL     1       5.601  -1.203   1.625  0.00  0.00    +0.153 A 
ATOM      3  C   UNL     1       6.028  -1.757   2.906  0.00  0.00    +0.100 A 
ATOM      4  C   UNL     1       5.521  -1.738   4.216  0.00  0.00    +0.139 A 
ATOM      5  N   UNL     1       6.201  -2.373   5.165  0.00  0.00    -0.220 NA
ATOM      6  C   UNL     1       7.326  -3.010   4.889  0.00  0.00    +0.225 A 
ATOM      7  N   UNL     1       7.838  -3.055   3.679  0.00  0.00    -0.216 NA
ATOM      8  C   UNL     1       7.231  -2.448   2.660  0.00  0.00    +0.163 A 
ATOM      9  N   UNL     1       7.497  -2.314   1.331  0.00  0.00    -0.258 N 
ATOM     10  N   UNL     1       6.487  -1.557   0.729  0.00  0.00    -0.156 NA
ATOM     11  N   UNL     1       4.345  -1.073   4.511  0.00  0.00    -0.299 N 
ATOM     12  H   UNL     1       3.856  -0.230   2.130  0.00  0.00    +0.148 HD
ATOM     13  H   UNL     1       3.816  -0.685   3.797  0.00  0.00    +0.154 HD
ATOM     14  H   UNL     1       8.266  -2.688   0.873  0.00  0.00    +0.191 HD
ENDROOT
BRANCH  11  15
ATOM     15  C   UNL     1       3.919  -0.962   5.838  0.00  0.00    +0.034 A 
ATOM     16  C   UNL     1       2.564  -1.009   6.140  0.00  0.00    +0.023 A 
ATOM     17  C   UNL     1       2.146  -0.899   7.451  0.00  0.00    +0.003 A 
ATOM     18  C   UNL     1       3.074  -0.741   8.464  0.00  0.00    +0.020 A 
ATOM     19  C   UNL     1       4.425  -0.694   8.167  0.00  0.00    +0.043 A 
ATOM     20  C   UNL     1       4.850  -0.810   6.857  0.00  0.00    +0.043 A 
ATOM     21 CL   UNL     1       5.587  -0.495   9.442  0.00  0.00    -0.083 Cl
ENDBRANCH  11  15
BRANCH   1  22
ATOM     22  C   UNL     1       4.153   0.043   0.045  0.00  0.00    +0.138 C 
BRANCH  22  26
ATOM     23  C   UNL     1       0.519   2.287   0.110  0.00  0.00    +0.000 A 
ATOM     24  C   UNL     1       1.728   2.923   0.320  0.00  0.00    +0.000 A 
ATOM     25  C   UNL     1       2.904   2.197   0.299  0.00  0.00    +0.005 A 
ATOM     26  C   UNL     1       2.871   0.835   0.069  0.00  0.00    -0.030 A 
ATOM     27  C   UNL     1       1.662   0.198  -0.140  0.00  0.00    +0.005 A 
ATOM     28  C   UNL     1       0.486   0.924  -0.121  0.00  0.00    +0.000 A 
ENDBRANCH  22  26
ENDBRANCH   1  22
TORSDOF 3
