REMARK  Name = CHEMBL233325
REMARK  6 active torsions:
REMARK  status: ('A' for Active; 'I' for Inactive)
REMARK    1  A    between atoms: C_3  and  C_8
REMARK    2  A    between atoms: C_8  and  N_9
REMARK    3  A    between atoms: C_13  and  N_18
REMARK    4  A    between atoms: C_21  and  C_28
REMARK    5  A    between atoms: C_28  and  N_29
REMARK    6  A    between atoms: C_34  and  O_37
REMARK                            x       y       z     vdW  Elec       q    Type
REMARK                         _______ _______ _______ _____ _____    ______ ____
ROOT
ATOM      1  N   UNL     1       3.554   6.518   5.004  0.00  0.00    -0.298 N 
ATOM      2  C   UNL     1       2.816   7.650   4.720  0.00  0.00    +0.151 A 
ATOM      3  C   UNL     1       2.595   8.629   5.716  0.00  0.00    +0.110 A 
ATOM      4  C   UNL     1       2.972   8.749   7.040  0.00  0.00    -0.003 A 
ATOM      5  C   UNL     1       2.443   9.954   7.503  0.00  0.00    +0.027 A 
ATOM      6  C   UNL     1       1.768  10.537   6.477  0.00  0.00    +0.113 A 
ATOM      7  N   UNL     1       1.851   9.746   5.390  0.00  0.00    -0.235 N 
ATOM      8  N   UNL     1       1.351   9.855   4.085  0.00  0.00    -0.155 NA
ATOM      9  C   UNL     1       1.591   8.915   3.213  0.00  0.00    +0.245 A 
ATOM     10  N   UNL     1       2.311   7.835   3.511  0.00  0.00    -0.217 NA
ATOM     11  H   UNL     1       3.990   6.427   5.865  0.00  0.00    +0.154 HD
ENDROOT
BRANCH   1  16
ATOM     12  N   UNL     1       3.774   2.561   1.159  0.00  0.00    -0.259 N 
ATOM     13  C   UNL     1       3.941   3.477   2.167  0.00  0.00    +0.069 A 
ATOM     14  C   UNL     1       4.991   3.774   3.032  0.00  0.00    +0.030 A 
ATOM     15  C   UNL     1       4.856   4.769   3.957  0.00  0.00    +0.025 A 
ATOM     16  C   UNL     1       3.672   5.501   4.048  0.00  0.00    +0.033 A 
ATOM     17  C   UNL     1       2.616   5.228   3.202  0.00  0.00    +0.034 A 
ATOM     18  C   UNL     1       2.742   4.210   2.250  0.00  0.00    +0.021 A 
ATOM     19  C   UNL     1       1.856   3.666   1.226  0.00  0.00    +0.143 A 
ATOM     20  N   UNL     1       2.496   2.713   0.611  0.00  0.00    -0.178 NA
BRANCH  12  21
ATOM     21  C   UNL     1       4.776   1.585   0.723  0.00  0.00    +0.179 C 
BRANCH  21  24
ATOM     22  C   UNL     1       7.568   3.436  -1.019  0.00  0.00    +0.003 A 
ATOM     23  C   UNL     1       6.782   2.879  -0.027  0.00  0.00    +0.005 A 
ATOM     24  C   UNL     1       5.630   2.191  -0.360  0.00  0.00    -0.023 A 
ATOM     25  C   UNL     1       5.262   2.060  -1.686  0.00  0.00    +0.043 A 
ATOM     26  C   UNL     1       6.048   2.617  -2.680  0.00  0.00    +0.124 A 
ATOM     27  C   UNL     1       7.202   3.306  -2.345  0.00  0.00    +0.038 A 
ATOM     28  F   UNL     1       5.689   2.489  -3.976  0.00  0.00    -0.205 F 
ENDBRANCH  21  24
ENDBRANCH  12  21
ENDBRANCH   1  16
BRANCH   4  29
ATOM     29  C   UNL     1       3.795   7.766   7.832  0.00  0.00    +0.121 C 
BRANCH  29  30
ATOM     30  N   UNL     1       2.963   6.611   8.196  0.00  0.00    -0.297 NA
ATOM     31  C   UNL     1       1.905   7.001   9.151  0.00  0.00    +0.066 C 
ATOM     32  C   UNL     1       0.741   6.062   8.960  0.00  0.00    -0.067 C 
ATOM     33  N   UNL     1       0.776   4.933   9.910  0.00  0.00    +0.382 N 
ATOM     34  C   UNL     1       2.135   4.379  10.097  0.00  0.00    -0.050 C 
ATOM     35  C   UNL     1       2.908   4.255   8.808  0.00  0.00    +0.112 C 
ATOM     36  C   UNL     1       3.754   5.534   8.611  0.00  0.00    +0.114 C 
ATOM     37  H   UNL     1       0.428   5.248  10.803  0.00  0.00    -0.086 HD
ATOM     38  H   UNL     1       0.172   4.201   9.567  0.00  0.00    -0.086 HD
BRANCH  35  39
ATOM     39  O   UNL     1       3.766   3.114   8.872  0.00  0.00    -0.392 OA
ATOM     40  H   UNL     1       3.300   2.278   9.006  0.00  0.00    +0.210 HD
ENDBRANCH  35  39
ENDBRANCH  29  30
ENDBRANCH   4  29
TORSDOF 6
