REMARK  Name = CHEMBL472746
REMARK  7 active torsions:
REMARK  status: ('A' for Active; 'I' for Inactive)
REMARK    1  A    between atoms: C_2  and  C_3
REMARK    2  A    between atoms: N_5  and  C_6
REMARK    3  A    between atoms: C_11  and  N_15
REMARK    4  A    between atoms: N_15  and  C_16
REMARK    5  A    between atoms: C_19  and  O_22
REMARK    6  A    between atoms: O_22  and  C_23
REMARK    7  A    between atoms: C_23  and  C_24
REMARK                            x       y       z     vdW  Elec       q    Type
REMARK                         _______ _______ _______ _____ _____    ______ ____
ROOT
ATOM      1  C   UNL     1       3.264  -3.132   0.694  0.00  0.00    +0.027 C 
ATOM      2  C   UNL     1       4.606  -3.227   0.772  0.00  0.00    +0.022 C 
ATOM      3  C   UNL     1       5.065  -4.459   0.247  0.00  0.00    +0.026 C 
ATOM      4  C   UNL     1       4.042  -5.266  -0.030  0.00  0.00    +0.059 C 
ATOM      5  C   UNL     1       2.791  -4.390   0.025  0.00  0.00    +0.147 C 
ATOM      6  C   UNL     1       1.790  -5.173   0.835  0.00  0.00    +0.135 C 
ATOM      7  N   UNL     1       1.871  -6.486   0.789  0.00  0.00    -0.222 NA
ATOM      8  C   UNL     1       2.810  -7.151   0.109  0.00  0.00    +0.223 C 
ATOM      9  N   UNL     1       3.922  -6.575  -0.317  0.00  0.00    -0.239 NA
ENDROOT
BRANCH   1  12
ATOM     10  C   UNL     1       3.052  -1.015   1.730  0.00  0.00    +0.240 C 
ATOM     11  O   UNL     1       4.260  -0.968   1.861  0.00  0.00    -0.271 OA
ATOM     12  N   UNL     1       2.478  -2.086   1.146  0.00  0.00    -0.285 N 
ATOM     13  H   UNL     1       1.514  -2.123   1.042  0.00  0.00    +0.155 HD
BRANCH  10  15
ATOM     14  C   UNL     1       2.784   1.153   2.787  0.00  0.00    +0.013 C 
ATOM     15  C   UNL     1       2.217   0.096   2.210  0.00  0.00    +0.060 C 
ENDBRANCH  10  15
ENDBRANCH   1  12
BRANCH   6  16
ATOM     16  N   UNL     1       0.840  -4.547   1.585  0.00  0.00    -0.199 NA
BRANCH  16  17
ATOM     17  C   UNL     1       0.170  -5.249   2.593  0.00  0.00    +0.055 A 
ATOM     18  C   UNL     1       0.783  -6.330   3.212  0.00  0.00    +0.029 A 
ATOM     19  C   UNL     1       0.122  -7.022   4.207  0.00  0.00    +0.047 A 
ATOM     20  C   UNL     1      -1.155  -6.637   4.588  0.00  0.00    +0.121 A 
ATOM     21  C   UNL     1      -1.769  -5.557   3.971  0.00  0.00    +0.047 A 
ATOM     22  C   UNL     1      -1.106  -4.860   2.979  0.00  0.00    +0.029 A 
BRANCH  20  23
ATOM     23  O   UNL     1      -1.807  -7.319   5.568  0.00  0.00    -0.487 OA
BRANCH  23  24
ATOM     24  C   UNL     1      -3.119  -6.868   5.910  0.00  0.00    +0.264 C 
BRANCH  24  25
ATOM     25  C   UNL     1      -3.679  -7.738   7.006  0.00  0.00    -0.010 A 
ATOM     26  C   UNL     1      -4.398  -8.875   6.687  0.00  0.00    +0.007 A 
ATOM     27  C   UNL     1      -4.912  -9.672   7.692  0.00  0.00    +0.000 A 
ATOM     28  C   UNL     1      -4.706  -9.334   9.016  0.00  0.00    +0.000 A 
ATOM     29  C   UNL     1      -3.986  -8.198   9.335  0.00  0.00    +0.000 A 
ATOM     30  C   UNL     1      -3.469  -7.402   8.331  0.00  0.00    +0.007 A 
ENDBRANCH  24  25
ENDBRANCH  23  24
ENDBRANCH  20  23
ENDBRANCH  16  17
ENDBRANCH   6  16
TORSDOF 7
