REMARK  Name = CHEMBL456758
REMARK  9 active torsions:
REMARK  status: ('A' for Active; 'I' for Inactive)
REMARK    1  A    between atoms: C_1  and  O_2
REMARK    2  A    between atoms: O_2  and  C_3
REMARK    3  A    between atoms: C_3  and  C_4
REMARK    4  A    between atoms: N_9  and  N_10
REMARK    5  A    between atoms: C_11  and  C_12
REMARK    6  A    between atoms: C_17  and  N_18
REMARK    7  A    between atoms: N_18  and  C_19
REMARK    8  A    between atoms: N_27  and  C_28
REMARK    9  A    between atoms: C_28  and  C_29
REMARK                            x       y       z     vdW  Elec       q    Type
REMARK                         _______ _______ _______ _____ _____    ______ ____
ROOT
ATOM      1  C   UNL     1       1.362  -2.628  -4.046  0.00  0.00    +0.074 A 
ATOM      2  C   UNL     1       0.329  -1.739  -4.393  0.00  0.00    +0.130 A 
ATOM      3  N   UNL     1       0.241  -1.315  -5.650  0.00  0.00    -0.220 NA
ATOM      4  C   UNL     1       1.103  -1.716  -6.564  0.00  0.00    +0.225 A 
ATOM      5  N   UNL     1       2.086  -2.548  -6.287  0.00  0.00    -0.220 NA
ATOM      6  C   UNL     1       2.258  -3.022  -5.055  0.00  0.00    +0.137 A 
ATOM      7  N   UNL     1      -0.582  -1.312  -3.441  0.00  0.00    -0.342 N 
ATOM      8  H   UNL     1      -0.355  -1.357  -2.499  0.00  0.00    +0.144 HD
ATOM      9  H   UNL     1      -1.446  -0.968  -3.716  0.00  0.00    +0.144 HD
ENDROOT
BRANCH   1  11
ATOM     10  N   UNL     1       0.729  -2.673  -1.730  0.00  0.00    -0.191 NA
ATOM     11  C   UNL     1       1.504  -3.127  -2.668  0.00  0.00    +0.145 C 
BRANCH  10  16
ATOM     12  C   UNL     1       0.056  -2.722   0.734  0.00  0.00    +0.118 C 
ATOM     13  C   UNL     1       0.537  -3.530   1.957  0.00  0.00    +0.028 C 
ATOM     14  C   UNL     1       1.207  -4.772   1.312  0.00  0.00    +0.022 C 
ATOM     15  C   UNL     1       1.839  -4.159   0.039  0.00  0.00    +0.126 C 
ATOM     16  N   UNL     1       0.864  -3.148  -0.419  0.00  0.00    -0.250 N 
BRANCH  12  17
ATOM     17  C   UNL     1       0.257  -1.227   0.986  0.00  0.00    +0.183 C 
BRANCH  17  19
ATOM     18  C   UNL     1      -0.154   0.934   0.032  0.00  0.00    +0.194 C 
ATOM     19  O   UNL     1      -0.290  -0.482  -0.105  0.00  0.00    -0.381 OA
ENDBRANCH  17  19
ENDBRANCH  12  17
ENDBRANCH  10  16
ENDBRANCH   1  11
BRANCH   6  20
ATOM     20  N   UNL     1       3.299  -3.891  -4.774  0.00  0.00    -0.299 N 
ATOM     21  H   UNL     1       3.366  -4.298  -3.896  0.00  0.00    +0.154 HD
BRANCH  20  22
ATOM     22  C   UNL     1       4.253  -4.183  -5.756  0.00  0.00    +0.033 A 
ATOM     23  C   UNL     1       4.840  -5.449  -5.799  0.00  0.00    +0.025 A 
ATOM     24  C   UNL     1       5.772  -5.753  -6.748  0.00  0.00    +0.030 A 
ATOM     25  C   UNL     1       6.148  -4.798  -7.690  0.00  0.00    +0.069 A 
ATOM     26  C   UNL     1       5.561  -3.519  -7.656  0.00  0.00    +0.021 A 
ATOM     27  C   UNL     1       4.603  -3.220  -6.681  0.00  0.00    +0.034 A 
ATOM     28  C   UNL     1       6.157  -2.764  -8.754  0.00  0.00    +0.143 A 
ATOM     29  N   UNL     1       7.007  -3.545  -9.359  0.00  0.00    -0.178 NA
ATOM     30  N   UNL     1       7.032  -4.799  -8.739  0.00  0.00    -0.259 N 
BRANCH  30  31
ATOM     31  C   UNL     1       7.869  -5.931  -9.145  0.00  0.00    +0.179 C 
BRANCH  31  32
ATOM     32  C   UNL     1       7.125  -6.769 -10.152  0.00  0.00    -0.023 A 
ATOM     33  C   UNL     1       6.320  -7.809  -9.726  0.00  0.00    +0.005 A 
ATOM     34  C   UNL     1       5.637  -8.579 -10.649  0.00  0.00    +0.003 A 
ATOM     35  C   UNL     1       5.760  -8.310 -11.999  0.00  0.00    +0.038 A 
ATOM     36  C   UNL     1       6.566  -7.270 -12.427  0.00  0.00    +0.124 A 
ATOM     37  C   UNL     1       7.245  -6.495 -11.502  0.00  0.00    +0.043 A 
ATOM     38  F   UNL     1       6.687  -7.007 -13.747  0.00  0.00    -0.205 F 
ENDBRANCH  31  32
ENDBRANCH  30  31
ENDBRANCH  20  22
ENDBRANCH   6  20
TORSDOF 8
