REMARK  Name = CHEMBL251125
REMARK  9 active torsions:
REMARK  status: ('A' for Active; 'I' for Inactive)
REMARK    1  A    between atoms: C_1  and  C_2
REMARK    2  A    between atoms: C_2  and  O_3
REMARK    3  A    between atoms: O_3  and  C_4
REMARK    4  A    between atoms: C_9  and  O_10
REMARK    5  A    between atoms: O_10  and  C_11
REMARK    6  A    between atoms: C_11  and  C_12
REMARK    7  A    between atoms: C_16  and  C_17
REMARK    8  A    between atoms: C_18  and  C_19
REMARK    9  A    between atoms: C_24  and  C_25
REMARK                            x       y       z     vdW  Elec       q    Type
REMARK                         _______ _______ _______ _____ _____    ______ ____
ROOT
ATOM      1  C   UNL     1       0.802  -1.825   1.306  0.00  0.00    +0.163 A 
ATOM      2  C   UNL     1       0.265  -2.653   0.360  0.00  0.00    +0.062 A 
ATOM      3  C   UNL     1       0.377  -4.037   0.510  0.00  0.00    +0.038 A 
ATOM      4  C   UNL     1       1.045  -4.578   1.638  0.00  0.00    +0.079 A 
ATOM      5  C   UNL     1       1.589  -3.711   2.595  0.00  0.00    +0.077 A 
ATOM      6  C   UNL     1       1.469  -2.350   2.421  0.00  0.00    +0.164 A 
ATOM      7  N   UNL     1       1.136  -5.911   1.752  0.00  0.00    -0.235 NA
ATOM      8  C   UNL     1       0.622  -6.706   0.846  0.00  0.00    +0.223 A 
ATOM      9  N   UNL     1      -0.014  -6.279  -0.230  0.00  0.00    -0.226 NA
ATOM     10  C   UNL     1      -0.177  -4.975  -0.467  0.00  0.00    +0.125 A 
ENDROOT
BRANCH  10  11
ATOM     11  C   UNL     1      -0.866  -4.513  -1.634  0.00  0.00    -0.040 C 
ATOM     12  C   UNL     1      -1.431  -4.133  -2.591  0.00  0.00    -0.056 C 
BRANCH  12  13
ATOM     13  C   UNL     1      -2.120  -3.671  -3.757  0.00  0.00    +0.070 A 
ATOM     14  C   UNL     1      -2.347  -2.357  -4.118  0.00  0.00    +0.122 A 
ATOM     15  N   UNL     1      -3.027  -2.360  -5.278  0.00  0.00    -0.283 N 
ATOM     16  H   UNL     1      -3.317  -1.568  -5.758  0.00  0.00    +0.188 HD
ATOM     17  N   UNL     1      -3.251  -3.677  -5.688  0.00  0.00    -0.173 NA
ATOM     18  C   UNL     1      -2.719  -4.498  -4.810  0.00  0.00    +0.108 A 
BRANCH  18  19
ATOM     19  C   UNL     1      -2.728  -5.979  -4.870  0.00  0.00    +0.003 A 
ATOM     20  C   UNL     1      -1.638  -6.704  -4.389  0.00  0.00    +0.013 A 
ATOM     21  C   UNL     1      -1.651  -8.082  -4.446  0.00  0.00    +0.039 A 
ATOM     22  C   UNL     1      -2.743  -8.746  -4.982  0.00  0.00    +0.123 A 
ATOM     23  C   UNL     1      -3.828  -8.029  -5.461  0.00  0.00    +0.039 A 
ATOM     24  C   UNL     1      -3.827  -6.651  -5.402  0.00  0.00    +0.013 A 
ATOM     25  F   UNL     1      -2.750 -10.096  -5.037  0.00  0.00    -0.205 F 
ENDBRANCH  18  19
ENDBRANCH  12  13
ENDBRANCH  10  11
BRANCH   1  26
ATOM     26  O   UNL     1       0.693  -0.477   1.160  0.00  0.00    -0.489 OA
BRANCH  26  28
ATOM     27  C   UNL     1      -0.019   1.526   0.010  0.00  0.00    +0.048 C 
ATOM     28  C   UNL     1       0.002  -0.004   0.002  0.00  0.00    +0.226 C 
ENDBRANCH  26  28
ENDBRANCH   1  26
BRANCH   6  29
ATOM     29  O   UNL     1       2.000  -1.506   3.345  0.00  0.00    -0.489 OA
BRANCH  29  30
ATOM     30  C   UNL     1       2.668  -2.102   4.459  0.00  0.00    +0.226 C 
ATOM     31  C   UNL     1       3.195  -1.003   5.384  0.00  0.00    +0.048 C 
ENDBRANCH  29  30
ENDBRANCH   6  29
TORSDOF 7
