REMARK  Name = CHEMBL451513
REMARK  8 active torsions:
REMARK  status: ('A' for Active; 'I' for Inactive)
REMARK    1  A    between atoms: C_3  and  C_8
REMARK    2  A    between atoms: C_8  and  O_9
REMARK    3  A    between atoms: O_9  and  C_10
REMARK    4  A    between atoms: C_13  and  N_17
REMARK    5  A    between atoms: C_22  and  C_24
REMARK    6  A    between atoms: C_25  and  C_26
REMARK    7  A    between atoms: C_29  and  O_33
REMARK    8  A    between atoms: O_33  and  C_34
REMARK                            x       y       z     vdW  Elec       q    Type
REMARK                         _______ _______ _______ _____ _____    ______ ____
ROOT
ATOM      1  N   UNL     1       8.806   5.232   2.017  0.00  0.00    -0.298 N 
ATOM      2  C   UNL     1       9.223   5.582   3.292  0.00  0.00    +0.141 A 
ATOM      3  C   UNL     1      10.341   6.377   3.479  0.00  0.00    +0.079 A 
ATOM      4  C   UNL     1      10.771   6.738   4.776  0.00  0.00    +0.084 A 
ATOM      5  C   UNL     1      11.915   7.546   4.830  0.00  0.00    +0.053 A 
ATOM      6  C   UNL     1      12.531   7.927   3.676  0.00  0.00    +0.065 A 
ATOM      7  S   UNL     1      11.524   7.161   2.417  0.00  0.00    -0.075 S 
ATOM      8  N   UNL     1      10.018   6.255   5.797  0.00  0.00    -0.235 NA
ATOM      9  C   UNL     1       8.969   5.506   5.576  0.00  0.00    +0.224 A 
ATOM     10  N   UNL     1       8.554   5.167   4.368  0.00  0.00    -0.219 NA
ATOM     11  H   UNL     1       9.342   5.475   1.247  0.00  0.00    +0.154 HD
ENDROOT
BRANCH   1  15
ATOM     12  C   UNL     1       5.243   3.129   1.494  0.00  0.00    +0.139 A 
ATOM     13  C   UNL     1       6.307   2.917   0.630  0.00  0.00    +0.049 A 
ATOM     14  C   UNL     1       7.487   3.613   0.802  0.00  0.00    +0.027 A 
ATOM     15  C   UNL     1       7.609   4.526   1.841  0.00  0.00    +0.034 A 
ATOM     16  C   UNL     1       6.544   4.739   2.707  0.00  0.00    +0.047 A 
ATOM     17  C   UNL     1       5.362   4.045   2.530  0.00  0.00    +0.084 A 
ATOM     18 CL   UNL     1       4.027   4.316   3.607  0.00  0.00    -0.080 Cl
BRANCH  12  19
ATOM     19  O   UNL     1       4.082   2.443   1.323  0.00  0.00    -0.486 OA
BRANCH  19  20
ATOM     20  C   UNL     1       4.029   1.516   0.237  0.00  0.00    +0.264 C 
BRANCH  20  23
ATOM     21  C   UNL     1       0.406   0.813  -0.560  0.00  0.00    +0.003 A 
ATOM     22  C   UNL     1       1.649   1.418  -0.529  0.00  0.00    +0.007 A 
ATOM     23  C   UNL     1       2.675   0.855   0.205  0.00  0.00    -0.008 A 
ATOM     24  C   UNL     1       2.460  -0.314   0.910  0.00  0.00    +0.045 A 
ATOM     25  C   UNL     1       1.216  -0.921   0.881  0.00  0.00    +0.124 A 
ATOM     26  C   UNL     1       0.189  -0.355   0.145  0.00  0.00    +0.038 A 
ATOM     27  F   UNL     1       1.005  -2.064   1.569  0.00  0.00    -0.205 F 
ENDBRANCH  20  23
ENDBRANCH  19  20
ENDBRANCH  12  19
ENDBRANCH   1  15
BRANCH   6  28
ATOM     28  C   UNL     1      13.699   8.740   3.514  0.00  0.00    -0.057 C 
ATOM     29  C   UNL     1      14.656   9.407   3.380  0.00  0.00    -0.078 C 
BRANCH  29  30
ATOM     30  C   UNL     1      15.856  10.243   3.213  0.00  0.00    +0.134 C 
ATOM     31  C   UNL     1      17.057   9.619   3.967  0.00  0.00    +0.077 C 
ATOM     32  C   UNL     1      16.803  10.105   5.418  0.00  0.00    +0.194 C 
ATOM     33  C   UNL     1      16.212  11.516   5.214  0.00  0.00    +0.126 C 
ATOM     34  N   UNL     1      15.655  11.564   3.846  0.00  0.00    -0.300 NA
ATOM     35  H   UNL     1      16.090  12.295   3.303  0.00  0.00    +0.123 HD
BRANCH  32  36
ATOM     36  O   UNL     1      18.028  10.169   6.151  0.00  0.00    -0.446 OA
BRANCH  36  37
ATOM     37  C   UNL     1      17.958   9.959   7.479  0.00  0.00    +0.403 C 
ATOM     38  O   UNL     1      16.885   9.728   8.001  0.00  0.00    -0.226 OA
ATOM     39  N   UNL     1      19.077  10.004   8.229  0.00  0.00    -0.267 N 
ATOM     40  C   UNL     1      20.432  10.279   7.730  0.00  0.00    +0.111 C 
ATOM     41  C   UNL     1      21.389  10.203   8.938  0.00  0.00    +0.021 C 
ATOM     42  C   UNL     1      20.601   9.333   9.952  0.00  0.00    +0.021 C 
ATOM     43  C   UNL     1      19.143   9.794   9.687  0.00  0.00    +0.111 C 
ENDBRANCH  36  37
ENDBRANCH  32  36
ENDBRANCH  29  30
ENDBRANCH   6  28
TORSDOF 8
