REMARK  Name = CHEMBL179164
REMARK  14 active torsions:
REMARK  status: ('A' for Active; 'I' for Inactive)
REMARK    1  A    between atoms: C_1  and  C_2
REMARK    2  A    between atoms: C_2  and  O_3
REMARK    3  A    between atoms: O_3  and  C_4
REMARK    4  A    between atoms: C_9  and  N_10
REMARK    5  A    between atoms: C_11  and  C_13
REMARK    6  A    between atoms: C_14  and  C_15
REMARK    7  A    between atoms: C_15  and  N_16
REMARK    8  A    between atoms: N_16  and  C_17
REMARK    9  A    between atoms: N_16  and  C_18
REMARK   10  A    between atoms: C_19  and  N_25
REMARK   11  A    between atoms: C_20  and  C_23
REMARK   12  A    between atoms: N_25  and  C_26
REMARK   13  A    between atoms: N_34  and  S_35
REMARK   14  A    between atoms: S_35  and  C_38
REMARK                            x       y       z     vdW  Elec       q    Type
REMARK                         _______ _______ _______ _____ _____    ______ ____
ROOT
ATOM      1  C   UNL     1       1.651  -3.741  -1.554  0.00  0.00    +0.144 A 
ATOM      2  C   UNL     1       0.344  -4.094  -1.314  0.00  0.00    +0.076 A 
ATOM      3  C   UNL     1       0.007  -4.767  -0.130  0.00  0.00    +0.076 A 
ATOM      4  C   UNL     1       1.025  -5.075   0.805  0.00  0.00    +0.025 A 
ATOM      5  C   UNL     1       2.353  -4.708   0.542  0.00  0.00    +0.039 A 
ATOM      6  C   UNL     1       2.659  -4.052  -0.629  0.00  0.00    +0.077 A 
ATOM      7  C   UNL     1       0.680  -5.755   1.997  0.00  0.00    +0.060 A 
ATOM      8  C   UNL     1      -0.668  -6.091   2.192  0.00  0.00    +0.091 A 
ATOM      9  C   UNL     1      -1.611  -5.746   1.211  0.00  0.00    +0.132 A 
ATOM     10  N   UNL     1      -1.264  -5.117   0.117  0.00  0.00    -0.253 NA
ENDROOT
BRANCH   6  11
ATOM     11  N   UNL     1       3.985  -3.689  -0.896  0.00  0.00    -0.279 N 
ATOM     12  C   UNL     1       4.832  -3.434   0.121  0.00  0.00    +0.241 C 
ATOM     13  O   UNL     1       4.476  -3.619   1.269  0.00  0.00    -0.271 OA
ATOM     14  H   UNL     1       4.293  -3.620  -1.813  0.00  0.00    +0.155 HD
BRANCH  12  15
ATOM     15  C   UNL     1       6.186  -2.933  -0.158  0.00  0.00    +0.064 C 
ATOM     16  C   UNL     1       7.022  -2.682   0.846  0.00  0.00    -0.007 C 
BRANCH  16  17
ATOM     17  C   UNL     1       8.410  -2.169   0.560  0.00  0.00    +0.111 C 
BRANCH  17  18
ATOM     18  N   UNL     1       8.631  -0.919   1.300  0.00  0.00    -0.305 NA
ATOM     19  C   UNL     1       8.638  -1.159   2.749  0.00  0.00    +0.104 C 
ATOM     20  C   UNL     1       9.873  -0.265   0.868  0.00  0.00    +0.104 C 
ENDBRANCH  17  18
ENDBRANCH  16  17
ENDBRANCH  12  15
ENDBRANCH   6  11
BRANCH   8  21
ATOM     21  C   UNL     1      -1.077  -6.780   3.379  0.00  0.00    +0.103 C 
ATOM     22  N   UNL     1      -1.402  -7.326   4.321  0.00  0.00    -0.191 NA
ENDBRANCH   8  21
BRANCH   7  23
ATOM     23  N   UNL     1       1.639  -6.076   2.937  0.00  0.00    -0.313 N 
ATOM     24  H   UNL     1       1.955  -5.401   3.557  0.00  0.00    +0.152 HD
BRANCH  23  25
ATOM     25  C   UNL     1       2.154  -7.377   2.994  0.00  0.00    +0.032 A 
ATOM     26  C   UNL     1       2.005  -8.232   1.903  0.00  0.00    +0.025 A 
ATOM     27  C   UNL     1       2.506  -9.513   1.944  0.00  0.00    +0.030 A 
ATOM     28  C   UNL     1       3.167  -9.967   3.081  0.00  0.00    +0.072 A 
ATOM     29  C   UNL     1       3.318  -9.107   4.184  0.00  0.00    +0.003 A 
ATOM     30  C   UNL     1       2.812  -7.807   4.131  0.00  0.00    +0.033 A 
ATOM     31  C   UNL     1       4.045  -9.875   5.199  0.00  0.00    +0.029 A 
ATOM     32  C   UNL     1       4.279 -11.090   4.680  0.00  0.00    +0.113 A 
ATOM     33  N   UNL     1       3.762 -11.165   3.415  0.00  0.00    -0.218 N 
BRANCH  33  34
ATOM     34  S   UNL     1       3.839 -12.496   2.433  0.00  0.00    +0.084 S 
ATOM     35  O   UNL     1       4.305 -12.041   1.169  0.00  0.00    -0.148 OA
ATOM     36  O   UNL     1       4.508 -13.508   3.172  0.00  0.00    -0.148 OA
BRANCH  34  37
ATOM     37  C   UNL     1       2.188 -13.059   2.187  0.00  0.00    +0.111 A 
ATOM     38  C   UNL     1       1.635 -13.980   3.057  0.00  0.00    +0.029 A 
ATOM     39  C   UNL     1       0.340 -14.422   2.864  0.00  0.00    +0.002 A 
ATOM     40  C   UNL     1      -0.404 -13.942   1.802  0.00  0.00    +0.000 A 
ATOM     41  C   UNL     1       0.148 -13.019   0.933  0.00  0.00    +0.002 A 
ATOM     42  C   UNL     1       1.442 -12.574   1.129  0.00  0.00    +0.029 A 
ENDBRANCH  34  37
ENDBRANCH  33  34
ENDBRANCH  23  25
ENDBRANCH   7  23
BRANCH   1  43
ATOM     43  O   UNL     1       1.971  -3.089  -2.703  0.00  0.00    -0.490 OA
BRANCH  43  45
ATOM     44  C   UNL     1       1.450  -2.069  -4.831  0.00  0.00    +0.048 C 
ATOM     45  C   UNL     1       0.900  -2.801  -3.604  0.00  0.00    +0.226 C 
ENDBRANCH  43  45
ENDBRANCH   1  43
TORSDOF 11
