REMARK  Name = CHEMBL153409
REMARK  1 active torsions:
REMARK  status: ('A' for Active; 'I' for Inactive)
REMARK    1  A    between atoms: C_3  and  N_8
REMARK                            x       y       z     vdW  Elec       q    Type
REMARK                         _______ _______ _______ _____ _____    ______ ____
ROOT
ATOM      1  N   UNL     1       3.583   2.124  -0.021  0.00  0.00    -0.298 N 
ATOM      2  C   UNL     1       4.791   1.449   0.068  0.00  0.00    +0.141 A 
ATOM      3  C   UNL     1       5.989   2.144   0.171  0.00  0.00    +0.080 A 
ATOM      4  C   UNL     1       7.210   1.465   0.262  0.00  0.00    +0.092 A 
ATOM      5  C   UNL     1       8.413   2.312   0.366  0.00  0.00    +0.034 A 
ATOM      6  C   UNL     1       9.758   1.892   0.469  0.00  0.00    +0.014 A 
ATOM      7  C   UNL     1      10.750   2.843   0.557  0.00  0.00    +0.020 A 
ATOM      8  C   UNL     1      10.428   4.191   0.545  0.00  0.00    +0.112 A 
ATOM      9  N   UNL     1       9.169   4.575   0.449  0.00  0.00    -0.248 NA
ATOM     10  C   UNL     1       8.190   3.700   0.362  0.00  0.00    +0.111 A 
ATOM     11  S   UNL     1       6.426   3.860   0.224  0.00  0.00    -0.064 S 
ATOM     12  N   UNL     1       7.140   0.115   0.242  0.00  0.00    -0.234 NA
ATOM     13  C   UNL     1       5.993  -0.508   0.144  0.00  0.00    +0.224 A 
ATOM     14  N   UNL     1       4.833   0.117   0.063  0.00  0.00    -0.219 NA
ATOM     15  H   UNL     1       3.571   3.091  -0.094  0.00  0.00    +0.154 HD
ENDROOT
BRANCH   1  18
ATOM     16  C   UNL     1       1.089  -0.467   0.742  0.00  0.00    +0.003 A 
ATOM     17  C   UNL     1       2.278   0.236   0.729  0.00  0.00    +0.023 A 
ATOM     18  C   UNL     1       2.381   1.410  -0.007  0.00  0.00    +0.033 A 
ATOM     19  C   UNL     1       1.288   1.873  -0.729  0.00  0.00    +0.038 A 
ATOM     20  C   UNL     1       0.102   1.165  -0.712  0.00  0.00    +0.020 A 
ATOM     21  C   UNL     1       0.002  -0.004   0.023  0.00  0.00    +0.015 A 
ATOM     22 BR   UNL     1      -1.387   1.793  -1.693  0.00  0.00    -0.050 Br
ENDBRANCH   1  18
TORSDOF 1
