REMARK  Name = CHEMBL178312
REMARK  13 active torsions:
REMARK  status: ('A' for Active; 'I' for Inactive)
REMARK    1  A    between atoms: C_1  and  C_2
REMARK    2  A    between atoms: C_2  and  O_3
REMARK    3  A    between atoms: O_3  and  C_4
REMARK    4  A    between atoms: C_9  and  N_10
REMARK    5  A    between atoms: C_11  and  C_13
REMARK    6  A    between atoms: C_14  and  C_15
REMARK    7  A    between atoms: C_15  and  N_16
REMARK    8  A    between atoms: C_21  and  N_27
REMARK    9  A    between atoms: C_22  and  C_25
REMARK   10  A    between atoms: N_27  and  C_28
REMARK   11  A    between atoms: C_31  and  O_35
REMARK   12  A    between atoms: O_35  and  C_36
REMARK   13  A    between atoms: C_36  and  C_37
REMARK                            x       y       z     vdW  Elec       q    Type
REMARK                         _______ _______ _______ _____ _____    ______ ____
ROOT
ATOM      1  C   UNL     1       0.574  -3.770   2.153  0.00  0.00    +0.144 A 
ATOM      2  C   UNL     1       1.030  -4.089   0.895  0.00  0.00    +0.076 A 
ATOM      3  C   UNL     1       0.188  -4.758  -0.007  0.00  0.00    +0.076 A 
ATOM      4  C   UNL     1      -1.127  -5.096   0.395  0.00  0.00    +0.025 A 
ATOM      5  C   UNL     1      -1.574  -4.763   1.682  0.00  0.00    +0.039 A 
ATOM      6  C   UNL     1      -0.728  -4.112   2.551  0.00  0.00    +0.077 A 
ATOM      7  C   UNL     1      -1.972  -5.771  -0.517  0.00  0.00    +0.060 A 
ATOM      8  C   UNL     1      -1.456  -6.072  -1.787  0.00  0.00    +0.091 A 
ATOM      9  C   UNL     1      -0.139  -5.698  -2.100  0.00  0.00    +0.132 A 
ATOM     10  N   UNL     1       0.621  -5.075  -1.236  0.00  0.00    -0.253 NA
ENDROOT
BRANCH   6  11
ATOM     11  N   UNL     1      -1.170  -3.783   3.838  0.00  0.00    -0.279 N 
ATOM     12  C   UNL     1      -2.479  -3.556   4.063  0.00  0.00    +0.241 C 
ATOM     13  O   UNL     1      -3.289  -3.736   3.174  0.00  0.00    -0.271 OA
ATOM     14  H   UNL     1      -0.534  -3.719   4.568  0.00  0.00    +0.155 HD
BRANCH  12  15
ATOM     15  C   UNL     1      -2.929  -3.090   5.383  0.00  0.00    +0.064 C 
ATOM     16  C   UNL     1      -4.221  -2.866   5.605  0.00  0.00    -0.007 C 
BRANCH  16  17
ATOM     17  C   UNL     1      -4.681  -2.389   6.958  0.00  0.00    +0.112 C 
BRANCH  17  18
ATOM     18  N   UNL     1      -5.453  -1.148   6.804  0.00  0.00    -0.299 NA
ATOM     19  C   UNL     1      -6.786  -1.422   6.209  0.00  0.00    +0.085 C 
ATOM     20  C   UNL     1      -7.613  -0.172   6.603  0.00  0.00    +0.017 C 
ATOM     21  C   UNL     1      -7.104   0.144   8.028  0.00  0.00    +0.017 C 
ATOM     22  C   UNL     1      -5.718  -0.522   8.117  0.00  0.00    +0.085 C 
ENDBRANCH  17  18
ENDBRANCH  16  17
ENDBRANCH  12  15
ENDBRANCH   6  11
BRANCH   8  23
ATOM     23  C   UNL     1      -2.264  -6.754  -2.753  0.00  0.00    +0.103 C 
ATOM     24  N   UNL     1      -2.905  -7.295  -3.519  0.00  0.00    -0.191 NA
ENDBRANCH   8  23
BRANCH   7  25
ATOM     25  N   UNL     1      -3.261  -6.121  -0.170  0.00  0.00    -0.313 N 
ATOM     26  H   UNL     1      -3.968  -5.458  -0.196  0.00  0.00    +0.152 HD
BRANCH  25  27
ATOM     27  C   UNL     1      -3.547  -7.434   0.221  0.00  0.00    +0.033 A 
ATOM     28  C   UNL     1      -2.521  -8.280   0.620  0.00  0.00    +0.027 A 
ATOM     29  C   UNL     1      -2.804  -9.576   1.006  0.00  0.00    +0.049 A 
ATOM     30  C   UNL     1      -4.114 -10.033   0.994  0.00  0.00    +0.139 A 
ATOM     31  C   UNL     1      -5.141  -9.188   0.594  0.00  0.00    +0.084 A 
ATOM     32  C   UNL     1      -4.859  -7.890   0.214  0.00  0.00    +0.047 A 
ATOM     33 CL   UNL     1      -6.779  -9.761   0.579  0.00  0.00    -0.080 Cl
BRANCH  30  34
ATOM     34  O   UNL     1      -4.392 -11.309   1.373  0.00  0.00    -0.486 OA
BRANCH  34  35
ATOM     35  C   UNL     1      -3.287 -12.122   1.772  0.00  0.00    +0.264 C 
BRANCH  35  36
ATOM     36  C   UNL     1      -3.784 -13.492   2.155  0.00  0.00    -0.010 A 
ATOM     37  C   UNL     1      -4.156 -13.752   3.461  0.00  0.00    +0.007 A 
ATOM     38  C   UNL     1      -4.612 -15.009   3.812  0.00  0.00    +0.000 A 
ATOM     39  C   UNL     1      -4.697 -16.006   2.858  0.00  0.00    +0.000 A 
ATOM     40  C   UNL     1      -4.326 -15.745   1.552  0.00  0.00    +0.000 A 
ATOM     41  C   UNL     1      -3.874 -14.487   1.200  0.00  0.00    +0.007 A 
ENDBRANCH  35  36
ENDBRANCH  34  35
ENDBRANCH  30  34
ENDBRANCH  25  27
ENDBRANCH   7  25
BRANCH   1  42
ATOM     42  O   UNL     1       1.394  -3.122   3.021  0.00  0.00    -0.490 OA
BRANCH  42  44
ATOM     43  C   UNL     1       3.478  -2.080   3.664  0.00  0.00    +0.048 C 
ATOM     44  C   UNL     1       2.707  -2.802   2.557  0.00  0.00    +0.226 C 
ENDBRANCH  42  44
ENDBRANCH   1  42
TORSDOF 12
