REMARK  Name = CHEMBL480349
REMARK  11 active torsions:
REMARK  status: ('A' for Active; 'I' for Inactive)
REMARK    1  A    between atoms: C_1  and  S_2
REMARK    2  A    between atoms: S_2  and  C_5
REMARK    3  A    between atoms: C_5  and  C_6
REMARK    4  A    between atoms: C_6  and  N_7
REMARK    5  A    between atoms: N_7  and  C_8
REMARK    6  A    between atoms: C_8  and  C_9
REMARK    7  A    between atoms: C_12  and  C_14
REMARK    8  A    between atoms: N_23  and  C_24
REMARK    9  A    between atoms: C_27  and  O_31
REMARK   10  A    between atoms: O_31  and  C_32
REMARK   11  A    between atoms: C_32  and  C_33
REMARK                            x       y       z     vdW  Elec       q    Type
REMARK                         _______ _______ _______ _____ _____    ______ ____
ROOT
ATOM      1  C   UNL     1       2.707  -4.698  -7.978  0.00  0.00    +0.057 A 
ATOM      2  C   UNL     1       1.528  -4.671  -8.652  0.00  0.00    +0.032 A 
ATOM      3  C   UNL     1       1.503  -5.102 -10.035  0.00  0.00    +0.048 A 
ATOM      4  C   UNL     1       0.409  -5.168 -10.945  0.00  0.00    +0.134 A 
ATOM      5  N   UNL     1       0.622  -5.600 -12.178  0.00  0.00    -0.220 NA
ATOM      6  C   UNL     1       1.819  -5.973 -12.596  0.00  0.00    +0.224 A 
ATOM      7  N   UNL     1       2.870  -5.935 -11.800  0.00  0.00    -0.228 NA
ATOM      8  C   UNL     1       2.750  -5.518 -10.555  0.00  0.00    +0.114 A 
ATOM      9  S   UNL     1       3.864  -5.306  -9.192  0.00  0.00    -0.065 S 
ATOM     10  N   UNL     1      -0.859  -4.786 -10.546  0.00  0.00    -0.299 N 
ATOM     11  H   UNL     1      -1.025  -4.548  -9.621  0.00  0.00    +0.154 HD
ENDROOT
BRANCH  10  12
ATOM     12  C   UNL     1      -1.903  -4.743 -11.478  0.00  0.00    +0.034 A 
ATOM     13  C   UNL     1      -3.201  -5.037 -11.081  0.00  0.00    +0.027 A 
ATOM     14  C   UNL     1      -4.231  -4.995 -12.000  0.00  0.00    +0.049 A 
ATOM     15  C   UNL     1      -3.969  -4.660 -13.320  0.00  0.00    +0.139 A 
ATOM     16  C   UNL     1      -2.672  -4.366 -13.719  0.00  0.00    +0.084 A 
ATOM     17  C   UNL     1      -1.642  -4.402 -12.798  0.00  0.00    +0.047 A 
ATOM     18 CL   UNL     1      -2.346  -3.947 -15.371  0.00  0.00    -0.080 Cl
BRANCH  15  19
ATOM     19  O   UNL     1      -4.984  -4.619 -14.225  0.00  0.00    -0.486 OA
BRANCH  19  20
ATOM     20  C   UNL     1      -6.293  -4.933 -13.746  0.00  0.00    +0.264 C 
BRANCH  20  21
ATOM     21  C   UNL     1      -7.280  -4.837 -14.881  0.00  0.00    -0.008 A 
ATOM     22  C   UNL     1      -7.911  -3.636 -15.148  0.00  0.00    +0.007 A 
ATOM     23  C   UNL     1      -8.816  -3.546 -16.189  0.00  0.00    +0.003 A 
ATOM     24  C   UNL     1      -9.091  -4.657 -16.964  0.00  0.00    +0.038 A 
ATOM     25  C   UNL     1      -8.460  -5.860 -16.698  0.00  0.00    +0.124 A 
ATOM     26  C   UNL     1      -7.549  -5.947 -15.659  0.00  0.00    +0.045 A 
ATOM     27  F   UNL     1      -8.729  -6.946 -17.454  0.00  0.00    -0.205 F 
ENDBRANCH  20  21
ENDBRANCH  19  20
ENDBRANCH  15  19
ENDBRANCH  10  12
BRANCH   1  31
ATOM     28  C   UNL     1       2.654  -3.604  -4.527  0.00  0.00    +0.089 A 
ATOM     29  C   UNL     1       3.965  -3.897  -4.638  0.00  0.00    +0.043 A 
ATOM     30  C   UNL     1       4.177  -4.352  -5.954  0.00  0.00    +0.050 A 
ATOM     31  C   UNL     1       2.969  -4.311  -6.583  0.00  0.00    +0.142 A 
ATOM     32  O   UNL     1       2.054  -3.860  -5.702  0.00  0.00    -0.461 OA
BRANCH  28  33
ATOM     33  C   UNL     1       1.973  -3.082  -3.289  0.00  0.00    -0.007 C 
BRANCH  33  34
ATOM     34  N   UNL     1       2.001  -1.613  -3.297  0.00  0.00    +0.385 N 
ATOM     35  H   UNL     1       1.519  -1.272  -4.115  0.00  0.00    -0.085 HD
ATOM     36  H   UNL     1       2.959  -1.295  -3.313  0.00  0.00    -0.085 HD
BRANCH  34  37
ATOM     37  C   UNL     1       1.337  -1.104  -2.090  0.00  0.00    -0.059 C 
BRANCH  37  38
ATOM     38  C   UNL     1       1.367   0.426  -2.098  0.00  0.00    +0.146 C 
BRANCH  38  40
ATOM     39  C   UNL     1       0.684   2.853  -0.802  0.00  0.00    +0.193 C 
ATOM     40  S   UNL     1       0.546   1.055  -0.607  0.00  0.00    -0.036 S 
ATOM     41  O   UNL     1       1.312   0.665   0.525  0.00  0.00    -0.175 OA
ATOM     42  O   UNL     1      -0.828   0.700  -0.667  0.00  0.00    -0.175 OA
ENDBRANCH  38  40
ENDBRANCH  37  38
ENDBRANCH  34  37
ENDBRANCH  33  34
ENDBRANCH  28  33
ENDBRANCH   1  31
TORSDOF 10
