REMARK  Name = CHEMBL144842
REMARK  16 active torsions:
REMARK  status: ('A' for Active; 'I' for Inactive)
REMARK    1  A    between atoms: C_2  and  C_9
REMARK    2  A    between atoms: C_4  and  O_8
REMARK    3  A    between atoms: C_5  and  O_7
REMARK    4  A    between atoms: C_10  and  C_11
REMARK    5  A    between atoms: C_10  and  C_34
REMARK    6  A    between atoms: N_13  and  C_14
REMARK    7  A    between atoms: C_14  and  C_15
REMARK    8  A    between atoms: C_15  and  C_16
REMARK    9  A    between atoms: C_16  and  C_17
REMARK   10  A    between atoms: C_17  and  C_18
REMARK   11  A    between atoms: C_18  and  N_19
REMARK   12  A    between atoms: C_20  and  C_22
REMARK   13  A    between atoms: C_22  and  C_32
REMARK   14  A    between atoms: C_23  and  C_24
REMARK   15  A    between atoms: C_26  and  O_31
REMARK   16  A    between atoms: C_27  and  O_30
REMARK                            x       y       z     vdW  Elec       q    Type
REMARK                         _______ _______ _______ _____ _____    ______ ____
ROOT
ATOM      1  C   UNL     1      -2.697   9.806  -0.725  0.00  0.00    +0.003 C 
ENDROOT
BRANCH   1   2
ATOM      2  C   UNL     1      -4.136  10.310  -0.856  0.00  0.00    +0.019 C 
BRANCH   2   3
ATOM      3  C   UNL     1      -4.143  11.840  -0.847  0.00  0.00    +0.104 C 
BRANCH   3   4
ATOM      4  N   UNL     1      -5.520  12.322  -0.973  0.00  0.00    -0.311 N 
ATOM      5  C   UNL     1      -5.772  13.646  -0.988  0.00  0.00    +0.254 C 
ATOM      6  O   UNL     1      -4.855  14.441  -0.897  0.00  0.00    -0.269 OA
ATOM      7  H   UNL     1      -6.251  11.689  -1.045  0.00  0.00    +0.149 HD
BRANCH   5   8
ATOM      8  C   UNL     1      -7.155  14.131  -1.113  0.00  0.00    +0.114 C 
ATOM      9  C   UNL     1      -7.412  15.485  -1.129  0.00  0.00    +0.032 C 
BRANCH   9  10
ATOM     10  C   UNL     1      -8.794  15.968  -1.100  0.00  0.00    -0.020 A 
ATOM     11  C   UNL     1      -9.790  15.214  -0.463  0.00  0.00    +0.057 A 
ATOM     12  C   UNL     1     -11.090  15.675  -0.440  0.00  0.00    +0.159 A 
ATOM     13  C   UNL     1     -11.412  16.889  -1.049  0.00  0.00    +0.158 A 
ATOM     14  C   UNL     1     -10.426  17.637  -1.681  0.00  0.00    +0.050 A 
ATOM     15  C   UNL     1      -9.125  17.189  -1.704  0.00  0.00    +0.012 A 
BRANCH  12  16
ATOM     16  O   UNL     1     -12.059  14.946   0.176  0.00  0.00    -0.503 OA
ATOM     17  H   UNL     1     -12.176  15.159   1.112  0.00  0.00    +0.292 HD
ENDBRANCH  12  16
BRANCH  13  18
ATOM     18  O   UNL     1     -12.692  17.339  -1.025  0.00  0.00    -0.503 OA
ATOM     19  H   UNL     1     -12.900  17.893  -0.260  0.00  0.00    +0.292 HD
ENDBRANCH  13  18
ENDBRANCH   9  10
BRANCH   8  20
ATOM     20  C   UNL     1      -8.234  13.196  -1.220  0.00  0.00    +0.104 C 
ATOM     21  N   UNL     1      -9.091  12.454  -1.305  0.00  0.00    -0.191 NA
ENDBRANCH   8  20
ENDBRANCH   5   8
ENDBRANCH   3   4
ENDBRANCH   2   3
ENDBRANCH   1   2
BRANCH   1  22
ATOM     22  C   UNL     1      -2.690   8.276  -0.735  0.00  0.00    +0.019 C 
BRANCH  22  23
ATOM     23  C   UNL     1      -1.251   7.771  -0.604  0.00  0.00    +0.104 C 
BRANCH  23  26
ATOM     24  C   UNL     1      -0.079   5.638  -0.508  0.00  0.00    +0.254 C 
ATOM     25  O   UNL     1       0.967   6.250  -0.406  0.00  0.00    -0.269 OA
ATOM     26  N   UNL     1      -1.244   6.306  -0.612  0.00  0.00    -0.311 N 
ATOM     27  H   UNL     1      -2.079   5.818  -0.693  0.00  0.00    +0.149 HD
BRANCH  24  29
ATOM     28  C   UNL     1       1.119   3.482  -0.410  0.00  0.00    +0.032 C 
ATOM     29  C   UNL     1      -0.072   4.166  -0.517  0.00  0.00    +0.114 C 
BRANCH  28  31
ATOM     30  C   UNL     1       2.108   1.263   0.109  0.00  0.00    +0.012 A 
ATOM     31  C   UNL     1       1.144   2.026  -0.565  0.00  0.00    -0.020 A 
ATOM     32  C   UNL     1       0.203   1.390  -1.388  0.00  0.00    +0.057 A 
ATOM     33  C   UNL     1       0.232   0.018  -1.530  0.00  0.00    +0.159 A 
ATOM     34  C   UNL     1       1.195  -0.734  -0.855  0.00  0.00    +0.158 A 
ATOM     35  C   UNL     1       2.128  -0.105  -0.039  0.00  0.00    +0.050 A 
BRANCH  34  36
ATOM     36  O   UNL     1       1.221  -2.083  -0.996  0.00  0.00    -0.503 OA
ATOM     37  H   UNL     1       1.775  -2.392  -1.726  0.00  0.00    +0.292 HD
ENDBRANCH  34  36
BRANCH  33  38
ATOM     38  O   UNL     1      -0.679  -0.602  -2.326  0.00  0.00    -0.503 OA
ATOM     39  H   UNL     1      -0.396  -0.699  -3.246  0.00  0.00    +0.292 HD
ENDBRANCH  33  38
ENDBRANCH  28  31
BRANCH  29  40
ATOM     40  C   UNL     1      -1.304   3.445  -0.636  0.00  0.00    +0.104 C 
ATOM     41  N   UNL     1      -2.280   2.873  -0.731  0.00  0.00    -0.191 NA
ENDBRANCH  29  40
ENDBRANCH  24  29
ENDBRANCH  23  26
ENDBRANCH  22  23
ENDBRANCH   1  22
TORSDOF 16
