REMARK  Name = CHEMBL182254
REMARK  4 active torsions:
REMARK  status: ('A' for Active; 'I' for Inactive)
REMARK    1  A    between atoms: N_14  and  C_15
REMARK    2  A    between atoms: C_18  and  O_22
REMARK    3  A    between atoms: O_22  and  C_23
REMARK    4  A    between atoms: C_23  and  C_24
REMARK                            x       y       z     vdW  Elec       q    Type
REMARK                         _______ _______ _______ _____ _____    ______ ____
ROOT
ATOM      1  C   UNL     1      -1.193  -4.464   0.081  0.00  0.00    +0.034 A 
ATOM      2  C   UNL     1      -0.459  -5.639   0.168  0.00  0.00    +0.027 A 
ATOM      3  C   UNL     1      -1.109  -6.855   0.257  0.00  0.00    +0.049 A 
ATOM      4  C   UNL     1      -2.495  -6.902   0.260  0.00  0.00    +0.139 A 
ATOM      5  C   UNL     1      -3.230  -5.727   0.172  0.00  0.00    +0.084 A 
ATOM      6  C   UNL     1      -2.580  -4.510   0.088  0.00  0.00    +0.047 A 
ATOM      7 CL   UNL     1      -4.965  -5.787   0.174  0.00  0.00    -0.080 Cl
ENDROOT
BRANCH   1  21
ATOM      8  C   UNL     1       2.545  -0.226  -1.700  0.00  0.00    +0.004 A 
ATOM      9  C   UNL     1       2.586   1.152  -1.454  0.00  0.00    +0.020 A 
ATOM     10  C   UNL     1       1.662   1.728  -0.650  0.00  0.00    +0.113 A 
ATOM     11  N   UNL     1       0.683   0.985  -0.069  0.00  0.00    -0.237 N 
ATOM     12  C   UNL     1       0.620  -0.361  -0.292  0.00  0.00    +0.079 A 
ATOM     13  C   UNL     1       1.564  -0.980  -1.120  0.00  0.00    +0.028 A 
ATOM     14  C   UNL     1      -0.483  -0.849   0.432  0.00  0.00    +0.086 A 
ATOM     15  C   UNL     1      -1.073   0.263   1.095  0.00  0.00    +0.187 A 
ATOM     16  N   UNL     1      -0.369   1.340   0.787  0.00  0.00    -0.146 NA
ATOM     17  N   UNL     1      -2.159   0.046   1.861  0.00  0.00    -0.214 NA
ATOM     18  C   UNL     1      -2.656  -1.160   1.989  0.00  0.00    +0.225 A 
ATOM     19  N   UNL     1      -2.137  -2.219   1.389  0.00  0.00    -0.220 NA
ATOM     20  C   UNL     1      -1.065  -2.118   0.611  0.00  0.00    +0.138 A 
ATOM     21  N   UNL     1      -0.534  -3.232  -0.010  0.00  0.00    -0.299 N 
ATOM     22  H   UNL     1       0.295  -3.161  -0.507  0.00  0.00    +0.154 HD
ENDBRANCH   1  21
BRANCH   4  23
ATOM     23  O   UNL     1      -3.134  -8.099   0.348  0.00  0.00    -0.486 OA
BRANCH  23  24
ATOM     24  C   UNL     1      -2.316  -9.267   0.435  0.00  0.00    +0.264 C 
BRANCH  24  25
ATOM     25  C   UNL     1      -3.192 -10.489   0.524  0.00  0.00    -0.008 A 
ATOM     26  C   UNL     1      -3.600 -10.958   1.760  0.00  0.00    +0.007 A 
ATOM     27  C   UNL     1      -4.404 -12.079   1.843  0.00  0.00    +0.003 A 
ATOM     28  C   UNL     1      -4.801 -12.733   0.692  0.00  0.00    +0.038 A 
ATOM     29  C   UNL     1      -4.394 -12.265  -0.545  0.00  0.00    +0.124 A 
ATOM     30  C   UNL     1      -3.593 -11.138  -0.628  0.00  0.00    +0.045 A 
ATOM     31  F   UNL     1      -4.781 -12.903  -1.671  0.00  0.00    -0.205 F 
ENDBRANCH  24  25
ENDBRANCH  23  24
ENDBRANCH   4  23
TORSDOF 4
