REMARK  Name = CHEMBL172652
REMARK  1 active torsions:
REMARK  status: ('A' for Active; 'I' for Inactive)
REMARK    1  A    between atoms: C_3  and  N_8
REMARK                            x       y       z     vdW  Elec       q    Type
REMARK                         _______ _______ _______ _____ _____    ______ ____
ROOT
ATOM      1  N   UNL     1       3.583   2.124  -0.021  0.00  0.00    -0.299 N 
ATOM      2  C   UNL     1       4.785   1.453   0.068  0.00  0.00    +0.134 A 
ATOM      3  C   UNL     1       6.009   2.163   0.173  0.00  0.00    +0.043 A 
ATOM      4  C   UNL     1       6.047   3.557   0.192  0.00  0.00    +0.042 A 
ATOM      5  C   UNL     1       7.263   4.202   0.297  0.00  0.00    +0.087 A 
ATOM      6  C   UNL     1       8.464   3.459   0.385  0.00  0.00    +0.115 A 
ATOM      7  C   UNL     1       8.435   2.071   0.367  0.00  0.00    +0.060 A 
ATOM      8  C   UNL     1       7.211   1.412   0.261  0.00  0.00    +0.078 A 
ATOM      9  N   UNL     1       7.135   0.069   0.241  0.00  0.00    -0.235 NA
ATOM     10  C   UNL     1       5.973  -0.529   0.142  0.00  0.00    +0.223 A 
ATOM     11  N   UNL     1       4.826   0.128   0.063  0.00  0.00    -0.220 NA
ATOM     12  N   UNL     1       9.453   4.384   0.475  0.00  0.00    -0.130 NA
ATOM     13  H   UNL     1       7.062   6.291   0.305  0.00  0.00    +0.191 HD
ATOM     14  N   UNL     1       8.936   5.561   0.447  0.00  0.00    -0.067 NA
ATOM     15  N   UNL     1       7.653   5.522   0.343  0.00  0.00    -0.257 N 
ATOM     16  H   UNL     1       3.571   3.091  -0.094  0.00  0.00    +0.154 HD
ENDROOT
BRANCH   1  19
ATOM     17  C   UNL     1       1.088  -0.465   0.744  0.00  0.00    +0.003 A 
ATOM     18  C   UNL     1       2.277   0.238   0.731  0.00  0.00    +0.023 A 
ATOM     19  C   UNL     1       2.381   1.410  -0.007  0.00  0.00    +0.033 A 
ATOM     20  C   UNL     1       1.289   1.871  -0.730  0.00  0.00    +0.038 A 
ATOM     21  C   UNL     1       0.102   1.163  -0.713  0.00  0.00    +0.020 A 
ATOM     22  C   UNL     1       0.002  -0.004   0.024  0.00  0.00    +0.015 A 
ATOM     23 BR   UNL     1      -1.386   1.790  -1.696  0.00  0.00    -0.050 Br
ENDBRANCH   1  19
TORSDOF 1
