REMARK  Name = CHEMBL251700
REMARK  4 active torsions:
REMARK  status: ('A' for Active; 'I' for Inactive)
REMARK    1  A    between atoms: C_6  and  C_7
REMARK    2  A    between atoms: C_8  and  C_9
REMARK    3  A    between atoms: C_9  and  N_10
REMARK    4  A    between atoms: N_20  and  C_21
REMARK                            x       y       z     vdW  Elec       q    Type
REMARK                         _______ _______ _______ _____ _____    ______ ____
ROOT
ATOM      1  C   UNL     1       0.051   1.402   0.664  0.00  0.00    +0.019 A 
ATOM      2  C   UNL     1       1.185   2.115   0.427  0.00  0.00    +0.030 A 
ATOM      3  C   UNL     1       2.396   1.448   0.191  0.00  0.00    +0.076 A 
ATOM      4  C   UNL     1       2.428   0.031   0.201  0.00  0.00    +0.042 A 
ATOM      5  C   UNL     1       1.256  -0.689   0.446  0.00  0.00    +0.030 A 
ATOM      6  C   UNL     1       0.072  -0.002   0.676  0.00  0.00    +0.026 A 
ATOM      7  C   UNL     1       3.667  -0.613  -0.041  0.00  0.00    +0.134 A 
ATOM      8  N   UNL     1       4.733   0.144  -0.264  0.00  0.00    -0.220 NA
ATOM      9  C   UNL     1       4.654   1.465  -0.264  0.00  0.00    +0.223 A 
ATOM     10  N   UNL     1       3.535   2.114  -0.046  0.00  0.00    -0.235 NA
ATOM     11  N   UNL     1       3.762  -1.989  -0.043  0.00  0.00    -0.299 N 
ATOM     12  H   UNL     1       2.962  -2.530   0.038  0.00  0.00    +0.154 HD
ENDROOT
BRANCH  11  13
ATOM     13  C   UNL     1       5.013  -2.603  -0.164  0.00  0.00    +0.034 A 
ATOM     14  C   UNL     1       5.139  -3.791  -0.872  0.00  0.00    +0.026 A 
ATOM     15  C   UNL     1       6.375  -4.396  -0.991  0.00  0.00    +0.041 A 
ATOM     16  C   UNL     1       7.489  -3.820  -0.403  0.00  0.00    +0.142 A 
ATOM     17  C   UNL     1       7.366  -2.635   0.305  0.00  0.00    +0.078 A 
ATOM     18  C   UNL     1       6.132  -2.023   0.420  0.00  0.00    +0.046 A 
ATOM     19 CL   UNL     1       8.763  -1.915   1.042  0.00  0.00    -0.081 Cl
ATOM     20  F   UNL     1       8.697  -4.414  -0.520  0.00  0.00    -0.204 F 
ENDBRANCH  11  13
BRANCH   6  21
ATOM     21  C   UNL     1      -1.135  -0.729   0.928  0.00  0.00    -0.068 C 
ATOM     22  C   UNL     1      -2.125  -1.325   1.135  0.00  0.00    -0.116 C 
BRANCH  22  23
ATOM     23  C   UNL     1      -3.366  -2.073   1.394  0.00  0.00    +0.013 C 
BRANCH  23  24
ATOM     24  N   UNL     1      -3.087  -3.515   1.355  0.00  0.00    +0.387 N 
ATOM     25  C   UNL     1      -2.671  -3.894  -0.001  0.00  0.00    -0.078 C 
ATOM     26  C   UNL     1      -2.301  -5.378  -0.029  0.00  0.00    -0.019 C 
ATOM     27  C   UNL     1      -3.518  -6.210   0.385  0.00  0.00    -0.004 C 
ATOM     28  C   UNL     1      -3.988  -5.755   1.770  0.00  0.00    -0.019 C 
ATOM     29  C   UNL     1      -4.296  -4.256   1.731  0.00  0.00    -0.078 C 
ATOM     30  H   UNL     1      -2.345  -3.731   2.004  0.00  0.00    -0.080 HD
ENDBRANCH  23  24
ENDBRANCH  22  23
ENDBRANCH   6  21
TORSDOF 4
