REMARK  Name = CHEMBL294034
REMARK  7 active torsions:
REMARK  status: ('A' for Active; 'I' for Inactive)
REMARK    1  A    between atoms: C_1  and  O_2
REMARK    2  A    between atoms: O_2  and  C_3
REMARK    3  A    between atoms: C_8  and  O_9
REMARK    4  A    between atoms: O_9  and  C_10
REMARK    5  A    between atoms: C_10  and  C_11
REMARK    6  A    between atoms: C_11  and  N_12
REMARK    7  A    between atoms: N_21  and  C_22
REMARK                            x       y       z     vdW  Elec       q    Type
REMARK                         _______ _______ _______ _____ _____    ______ ____
ROOT
ATOM      1  C   UNL     1      -1.267  -0.635  -0.666  0.00  0.00    +0.164 A 
ATOM      2  C   UNL     1      -2.406   0.106  -0.442  0.00  0.00    +0.078 A 
ATOM      3  C   UNL     1      -3.621  -0.550  -0.211  0.00  0.00    +0.080 A 
ATOM      4  C   UNL     1      -3.660  -1.966  -0.213  0.00  0.00    +0.044 A 
ATOM      5  C   UNL     1      -2.487  -2.696  -0.444  0.00  0.00    +0.062 A 
ATOM      6  C   UNL     1      -1.313  -2.036  -0.672  0.00  0.00    +0.163 A 
ATOM      7  C   UNL     1      -4.902  -2.601   0.023  0.00  0.00    +0.134 A 
ATOM      8  N   UNL     1      -5.967  -1.838   0.233  0.00  0.00    -0.220 NA
ATOM      9  C   UNL     1      -5.883  -0.517   0.225  0.00  0.00    +0.223 A 
ATOM     10  N   UNL     1      -4.760   0.126   0.013  0.00  0.00    -0.235 NA
ATOM     11  N   UNL     1      -5.004  -3.978   0.033  0.00  0.00    -0.299 N 
ATOM     12  H   UNL     1      -4.206  -4.524  -0.038  0.00  0.00    +0.154 HD
ENDROOT
BRANCH  11  13
ATOM     13  C   UNL     1      -6.259  -4.585   0.147  0.00  0.00    +0.034 A 
ATOM     14  C   UNL     1      -7.372  -3.998  -0.441  0.00  0.00    +0.026 A 
ATOM     15  C   UNL     1      -8.611  -4.599  -0.328  0.00  0.00    +0.041 A 
ATOM     16  C   UNL     1      -8.743  -5.787   0.370  0.00  0.00    +0.142 A 
ATOM     17  C   UNL     1      -7.635  -6.375   0.957  0.00  0.00    +0.078 A 
ATOM     18  C   UNL     1      -6.393  -5.779   0.842  0.00  0.00    +0.046 A 
ATOM     19 CL   UNL     1      -7.805  -7.865   1.832  0.00  0.00    -0.081 Cl
ATOM     20  F   UNL     1      -9.956  -6.373   0.479  0.00  0.00    -0.204 F 
ENDBRANCH  11  13
BRANCH   1  22
ATOM     21  C   UNL     1      -0.104   1.428  -0.872  0.00  0.00    +0.277 C 
ATOM     22  O   UNL     1      -0.086  -0.001  -0.890  0.00  0.00    -0.491 OA
ENDBRANCH   1  22
BRANCH   6  23
ATOM     23  O   UNL     1      -0.177  -2.745  -0.902  0.00  0.00    -0.487 OA
BRANCH  23  24
ATOM     24  C   UNL     1      -0.288  -4.170  -0.896  0.00  0.00    +0.250 C 
BRANCH  24  25
ATOM     25  C   UNL     1       1.083  -4.790  -1.171  0.00  0.00    +0.163 C 
BRANCH  25  26
ATOM     26  N   UNL     1       0.968  -6.251  -1.164  0.00  0.00    -0.335 N 
ATOM     27  C   UNL     1       1.110  -7.072  -0.078  0.00  0.00    +0.104 A 
ATOM     28  C   UNL     1       0.926  -8.332  -0.515  0.00  0.00    +0.101 A 
ATOM     29  N   UNL     1       0.678  -8.282  -1.833  0.00  0.00    -0.352 N 
ATOM     30  C   UNL     1       0.696  -7.038  -2.227  0.00  0.00    +0.173 A 
ATOM     31  H   UNL     1       0.507  -9.049  -2.401  0.00  0.00    +0.166 HD
ENDBRANCH  25  26
ENDBRANCH  24  25
ENDBRANCH  23  24
ENDBRANCH   6  23
TORSDOF 6
