REMARK  Name = CHEMBL1081849
REMARK  12 active torsions:
REMARK  status: ('A' for Active; 'I' for Inactive)
REMARK    1  A    between atoms: C_1  and  C_2
REMARK    2  A    between atoms: C_8  and  N_9
REMARK    3  A    between atoms: N_9  and  C_10
REMARK    4  A    between atoms: C_13  and  O_17
REMARK    5  A    between atoms: O_17  and  C_18
REMARK    6  A    between atoms: C_18  and  C_19
REMARK    7  A    between atoms: C_28  and  C_29
REMARK    8  A    between atoms: N_31  and  C_32
REMARK    9  A    between atoms: C_32  and  C_33
REMARK   10  A    between atoms: C_33  and  C_34
REMARK   11  A    between atoms: C_34  and  N_35
REMARK   12  A    between atoms: N_38  and  C_41
REMARK                            x       y       z     vdW  Elec       q    Type
REMARK                         _______ _______ _______ _____ _____    ______ ____
ROOT
ATOM      1  C   UNL     1      -0.607   1.475  -0.039  0.00  0.00    +0.047 C 
ATOM      2  C   UNL     1      -0.485  -0.027  -0.039  0.00  0.00    -0.010 A 
ATOM      3  C   UNL     1      -0.224  -0.841  -1.159  0.00  0.00    +0.047 A 
ATOM      4  C   UNL     1      -0.195  -2.177  -0.703  0.00  0.00    +0.071 A 
ATOM      5  C   UNL     1       0.050  -3.178  -1.642  0.00  0.00    +0.161 A 
ATOM      6  N   UNL     1       0.242  -2.853  -2.903  0.00  0.00    -0.154 NA
ATOM      7  N   UNL     1       0.217  -1.644  -3.328  0.00  0.00    -0.133 NA
ATOM      8  C   UNL     1      -0.005  -0.610  -2.531  0.00  0.00    +0.155 A 
ATOM      9  N   UNL     1      -0.430  -2.154   0.644  0.00  0.00    -0.349 N 
ATOM     10  H   UNL     1      -0.467  -2.931   1.224  0.00  0.00    +0.166 HD
ATOM     11  C   UNL     1      -0.601  -0.843   1.045  0.00  0.00    +0.106 A 
ENDROOT
BRANCH  11  12
ATOM     12  C   UNL     1      -0.870  -0.399   2.421  0.00  0.00    +0.261 C 
ATOM     13  O   UNL     1      -1.007   0.785   2.663  0.00  0.00    -0.269 OA
ATOM     14  N   UNL     1      -0.963  -1.305   3.415  0.00  0.00    -0.310 N 
ATOM     15  H   UNL     1      -0.854  -2.249   3.222  0.00  0.00    +0.149 HD
BRANCH  14  16
ATOM     16  C   UNL     1      -1.230  -0.863   4.786  0.00  0.00    +0.103 C 
BRANCH  16  17
ATOM     17  C   UNL     1      -1.288  -2.080   5.712  0.00  0.00    +0.000 C 
BRANCH  17  18
ATOM     18  C   UNL     1      -1.567  -1.619   7.144  0.00  0.00    -0.077 C 
BRANCH  18  19
ATOM     19  N   UNL     1      -1.621  -2.787   8.032  0.00  0.00    +0.381 N 
ATOM     20  C   UNL     1      -2.767  -3.629   7.664  0.00  0.00    -0.063 C 
ATOM     21  C   UNL     1      -2.813  -4.856   8.577  0.00  0.00    +0.065 C 
ATOM     22  N   UNL     1      -2.935  -4.418   9.975  0.00  0.00    -0.309 NA
ATOM     23  C   UNL     1      -1.808  -3.553  10.351  0.00  0.00    +0.065 C 
ATOM     24  C   UNL     1      -1.770  -2.337   9.423  0.00  0.00    -0.063 C 
ATOM     25  C   UNL     1      -3.040  -5.570  10.880  0.00  0.00    +0.104 C 
ATOM     26  H   UNL     1      -0.769  -3.319   7.940  0.00  0.00    -0.082 HD
ENDBRANCH  18  19
ENDBRANCH  17  18
ENDBRANCH  16  17
ENDBRANCH  14  16
ENDBRANCH  11  12
BRANCH   8  27
ATOM     27  N   UNL     1      -0.023   0.680  -3.039  0.00  0.00    -0.297 N 
ATOM     28  H   UNL     1      -0.101   1.437  -2.437  0.00  0.00    +0.154 HD
BRANCH  27  29
ATOM     29  C   UNL     1       0.073   0.889  -4.419  0.00  0.00    +0.034 A 
ATOM     30  C   UNL     1      -0.515  -0.009  -5.301  0.00  0.00    +0.027 A 
ATOM     31  C   UNL     1      -0.420   0.198  -6.663  0.00  0.00    +0.049 A 
ATOM     32  C   UNL     1       0.263   1.303  -7.151  0.00  0.00    +0.139 A 
ATOM     33  C   UNL     1       0.851   2.201  -6.271  0.00  0.00    +0.084 A 
ATOM     34  C   UNL     1       0.751   1.998  -4.908  0.00  0.00    +0.047 A 
ATOM     35 CL   UNL     1       1.706   3.582  -6.883  0.00  0.00    -0.080 Cl
BRANCH  32  36
ATOM     36  O   UNL     1       0.355   1.506  -8.493  0.00  0.00    -0.486 OA
BRANCH  36  37
ATOM     37  C   UNL     1      -0.273   0.542  -9.340  0.00  0.00    +0.264 C 
BRANCH  37  38
ATOM     38  C   UNL     1      -0.067   0.929 -10.782  0.00  0.00    -0.008 A 
ATOM     39  C   UNL     1      -0.983   1.749 -11.415  0.00  0.00    +0.007 A 
ATOM     40  C   UNL     1      -0.794   2.105 -12.737  0.00  0.00    +0.003 A 
ATOM     41  C   UNL     1       0.309   1.642 -13.428  0.00  0.00    +0.038 A 
ATOM     42  C   UNL     1       1.227   0.821 -12.795  0.00  0.00    +0.124 A 
ATOM     43  C   UNL     1       1.040   0.469 -11.469  0.00  0.00    +0.045 A 
ATOM     44  F   UNL     1       2.306   0.367 -13.470  0.00  0.00    -0.205 F 
ENDBRANCH  37  38
ENDBRANCH  36  37
ENDBRANCH  32  36
ENDBRANCH  27  29
ENDBRANCH   8  27
TORSDOF 10
