REMARK  Name = CHEMBL233325
REMARK  6 active torsions:
REMARK  status: ('A' for Active; 'I' for Inactive)
REMARK    1  A    between atoms: C_3  and  C_8
REMARK    2  A    between atoms: C_8  and  N_9
REMARK    3  A    between atoms: C_13  and  N_18
REMARK    4  A    between atoms: C_21  and  C_28
REMARK    5  A    between atoms: C_28  and  N_29
REMARK    6  A    between atoms: C_34  and  O_37
REMARK                            x       y       z     vdW  Elec       q    Type
REMARK                         _______ _______ _______ _____ _____    ______ ____
ROOT
ATOM      1  N   UNL     1       3.079   7.127   4.884  0.00  0.00    -0.298 N 
ATOM      2  C   UNL     1       2.361   8.304   4.949  0.00  0.00    +0.151 A 
ATOM      3  C   UNL     1       2.337   9.062   6.143  0.00  0.00    +0.107 A 
ATOM      4  C   UNL     1       2.911   8.903   7.389  0.00  0.00    -0.034 A 
ATOM      5  C   UNL     1       2.514   9.997   8.160  0.00  0.00    +0.023 A 
ATOM      6  C   UNL     1       1.722  10.787   7.388  0.00  0.00    +0.113 A 
ATOM      7  N   UNL     1       1.606  10.235   6.166  0.00  0.00    -0.235 N 
ATOM      8  N   UNL     1       0.924  10.616   5.002  0.00  0.00    -0.155 NA
ATOM      9  C   UNL     1       0.988   9.870   3.933  0.00  0.00    +0.245 A 
ATOM     10  N   UNL     1       1.692   8.741   3.894  0.00  0.00    -0.217 NA
ATOM     11  H   UNL     1       3.533   6.791   5.672  0.00  0.00    +0.154 HD
ENDROOT
BRANCH   1  16
ATOM     12  N   UNL     1       3.599   4.240   0.205  0.00  0.00    -0.259 N 
ATOM     13  C   UNL     1       3.259   5.023   1.280  0.00  0.00    +0.069 A 
ATOM     14  C   UNL     1       2.148   5.805   1.587  0.00  0.00    +0.030 A 
ATOM     15  C   UNL     1       2.097   6.489   2.767  0.00  0.00    +0.025 A 
ATOM     16  C   UNL     1       3.151   6.417   3.679  0.00  0.00    +0.033 A 
ATOM     17  C   UNL     1       4.264   5.649   3.400  0.00  0.00    +0.034 A 
ATOM     18  C   UNL     1       4.328   4.943   2.192  0.00  0.00    +0.021 A 
ATOM     19  C   UNL     1       5.320   4.061   1.587  0.00  0.00    +0.143 A 
ATOM     20  N   UNL     1       4.856   3.671   0.435  0.00  0.00    -0.178 NA
BRANCH  12  21
ATOM     21  C   UNL     1       2.775   4.029  -0.988  0.00  0.00    +0.179 C 
BRANCH  21  24
ATOM     22  C   UNL     1      -0.210   1.929  -0.021  0.00  0.00    +0.003 A 
ATOM     23  C   UNL     1       0.619   3.018  -0.219  0.00  0.00    +0.005 A 
ATOM     24  C   UNL     1       1.873   2.842  -0.772  0.00  0.00    -0.023 A 
ATOM     25  C   UNL     1       2.301   1.576  -1.127  0.00  0.00    +0.043 A 
ATOM     26  C   UNL     1       1.472   0.485  -0.929  0.00  0.00    +0.124 A 
ATOM     27  C   UNL     1       0.215   0.663  -0.375  0.00  0.00    +0.038 A 
ATOM     28  F   UNL     1       1.889  -0.752  -1.276  0.00  0.00    -0.205 F 
ENDBRANCH  21  24
ENDBRANCH  12  21
ENDBRANCH   1  16
BRANCH   4  29
ATOM     29  C   UNL     1       3.795   7.766   7.832  0.00  0.00    -0.041 C 
BRANCH  29  30
ATOM     30  N   UNL     1       2.963   6.611   8.196  0.00  0.00    +0.385 N 
ATOM     31  C   UNL     1       1.926   7.055   9.148  0.00  0.00    -0.063 C 
ATOM     32  C   UNL     1       0.775   6.083   9.085  0.00  0.00    +0.062 C 
ATOM     33  N   UNL     1       0.874   5.047  10.136  0.00  0.00    -0.315 NA
ATOM     34  C   UNL     1       2.250   4.541  10.342  0.00  0.00    +0.110 C 
ATOM     35  C   UNL     1       2.992   4.328   9.048  0.00  0.00    +0.112 C 
ATOM     36  C   UNL     1       3.789   5.606   8.710  0.00  0.00    -0.045 C 
ATOM     37  H   UNL     1       0.475   5.373  11.004  0.00  0.00    +0.122 HD
ATOM     38  H   UNL     1       2.510   6.264   7.364  0.00  0.00    -0.081 HD
BRANCH  35  39
ATOM     39  O   UNL     1       3.890   3.225   9.188  0.00  0.00    -0.392 OA
ATOM     40  H   UNL     1       3.456   2.389   9.407  0.00  0.00    +0.210 HD
ENDBRANCH  35  39
ENDBRANCH  29  30
ENDBRANCH   4  29
TORSDOF 6
