REMARK  Name = CHEMBL172652
REMARK  1 active torsions:
REMARK  status: ('A' for Active; 'I' for Inactive)
REMARK    1  A    between atoms: C_3  and  N_8
REMARK                            x       y       z     vdW  Elec       q    Type
REMARK                         _______ _______ _______ _____ _____    ______ ____
ROOT
ATOM      1  N   UNL     1       3.583   2.124  -0.021  0.00  0.00    -0.299 N 
ATOM      2  C   UNL     1       4.783   1.454   0.068  0.00  0.00    +0.134 A 
ATOM      3  C   UNL     1       6.054   2.178   0.177  0.00  0.00    +0.043 A 
ATOM      4  C   UNL     1       6.111   3.560   0.196  0.00  0.00    +0.045 A 
ATOM      5  C   UNL     1       7.354   4.192   0.303  0.00  0.00    +0.113 A 
ATOM      6  C   UNL     1       8.584   3.389   0.393  0.00  0.00    +0.115 A 
ATOM      7  C   UNL     1       8.514   1.992   0.374  0.00  0.00    +0.060 A 
ATOM      8  C   UNL     1       7.279   1.373   0.267  0.00  0.00    +0.078 A 
ATOM      9  N   UNL     1       7.155   0.031   0.243  0.00  0.00    -0.235 NA
ATOM     10  C   UNL     1       5.979  -0.531   0.143  0.00  0.00    +0.223 A 
ATOM     11  N   UNL     1       4.835   0.129   0.063  0.00  0.00    -0.220 NA
ATOM     12  N   UNL     1       9.563   4.283   0.481  0.00  0.00    -0.155 NA
ATOM     13  H   UNL     1       9.581   6.276   0.503  0.00  0.00    +0.213 HD
ATOM     14  N   UNL     1       9.053   5.463   0.453  0.00  0.00    -0.196 N 
ATOM     15  N   UNL     1       7.771   5.453   0.350  0.00  0.00    -0.155 NA
ATOM     16  H   UNL     1       3.558   3.089   0.073  0.00  0.00    +0.154 HD
ENDROOT
BRANCH   1  19
ATOM     17  C   UNL     1       0.042   1.142   0.095  0.00  0.00    +0.003 A 
ATOM     18  C   UNL     1       1.209   1.846   0.320  0.00  0.00    +0.023 A 
ATOM     19  C   UNL     1       2.401   1.413  -0.247  0.00  0.00    +0.033 A 
ATOM     20  C   UNL     1       2.415   0.272  -1.039  0.00  0.00    +0.038 A 
ATOM     21  C   UNL     1       1.245  -0.428  -1.260  0.00  0.00    +0.020 A 
ATOM     22  C   UNL     1       0.059   0.006  -0.693  0.00  0.00    +0.015 A 
ATOM     23 BR   UNL     1       1.262  -1.982  -2.338  0.00  0.00    -0.050 Br
ENDBRANCH   1  19
TORSDOF 1
