REMARK  Name = CHEMBL243839
REMARK  13 active torsions:
REMARK  status: ('A' for Active; 'I' for Inactive)
REMARK    1  A    between atoms: C_1  and  C_2
REMARK    2  A    between atoms: C_2  and  O_3
REMARK    3  A    between atoms: O_3  and  C_4
REMARK    4  A    between atoms: C_9  and  N_10
REMARK    5  A    between atoms: C_11  and  C_13
REMARK    6  A    between atoms: C_14  and  C_15
REMARK    7  A    between atoms: C_15  and  N_16
REMARK    8  A    between atoms: N_16  and  C_17
REMARK    9  A    between atoms: N_16  and  C_18
REMARK   10  A    between atoms: C_19  and  N_23
REMARK   11  A    between atoms: C_28  and  O_32
REMARK   12  A    between atoms: O_32  and  C_33
REMARK   13  A    between atoms: C_33  and  C_34
REMARK                            x       y       z     vdW  Elec       q    Type
REMARK                         _______ _______ _______ _____ _____    ______ ____
ROOT
ATOM      1  C   UNL     1       0.796  -1.801   1.329  0.00  0.00    +0.144 A 
ATOM      2  C   UNL     1       0.251  -2.631   0.391  0.00  0.00    +0.076 A 
ATOM      3  C   UNL     1       0.357  -4.020   0.544  0.00  0.00    +0.080 A 
ATOM      4  C   UNL     1       1.032  -4.550   1.677  0.00  0.00    +0.047 A 
ATOM      5  C   UNL     1       1.583  -3.685   2.626  0.00  0.00    +0.040 A 
ATOM      6  C   UNL     1       1.469  -2.322   2.447  0.00  0.00    +0.077 A 
ATOM      7  C   UNL     1       1.122  -5.960   1.802  0.00  0.00    +0.164 A 
ATOM      8  N   UNL     1       0.569  -6.711   0.852  0.00  0.00    -0.216 NA
ATOM      9  C   UNL     1      -0.048  -6.168  -0.182  0.00  0.00    +0.224 A 
ATOM     10  N   UNL     1      -0.161  -4.871  -0.350  0.00  0.00    -0.235 NA
ENDROOT
BRANCH   7  11
ATOM     11  N   UNL     1       1.756  -6.529   2.863  0.00  0.00    -0.228 NA
ATOM     12  C   UNL     1       1.071  -6.902   3.908  0.00  0.00    +0.098 C 
ATOM     13  C   UNL     1       1.713  -7.637   5.074  0.00  0.00    +0.142 C 
ATOM     14  C   UNL     1       1.285  -6.919   6.336  0.00  0.00    +0.203 C 
ATOM     15  O   UNL     1       2.073  -6.745   7.235  0.00  0.00    -0.288 OA
ATOM     16  C   UNL     1      -0.103  -6.435   6.459  0.00  0.00    +0.167 C 
ATOM     17  C   UNL     1      -0.897  -6.287   5.370  0.00  0.00    +0.102 C 
ATOM     18  C   UNL     1      -0.387  -6.629   4.036  0.00  0.00    +0.204 C 
ATOM     19  O   UNL     1      -1.130  -6.690   3.075  0.00  0.00    -0.286 OA
BRANCH  16  20
ATOM     20  O   UNL     1      -0.595  -6.133   7.683  0.00  0.00    -0.483 OA
BRANCH  20  21
ATOM     21  C   UNL     1      -1.945  -5.668   7.744  0.00  0.00    +0.271 C 
BRANCH  21  22
ATOM     22  C   UNL     1      -2.314  -5.385   9.177  0.00  0.00    +0.027 A 
ATOM     23  C   UNL     1      -2.193  -4.231   9.877  0.00  0.00    +0.014 A 
ATOM     24  C   UNL     1      -2.603  -4.201  11.197  0.00  0.00    +0.008 A 
ATOM     25  C   UNL     1      -3.115  -5.327  11.752  0.00  0.00    +0.045 A 
ATOM     26  S   UNL     1      -3.034  -6.479  10.390  0.00  0.00    -0.098 S 
ENDBRANCH  21  22
ENDBRANCH  20  21
ENDBRANCH  16  20
ENDBRANCH   7  11
BRANCH   6  27
ATOM     27  N   UNL     1       2.023  -1.452   3.389  0.00  0.00    -0.279 N 
ATOM     28  C   UNL     1       3.053  -1.857   4.158  0.00  0.00    +0.241 C 
ATOM     29  O   UNL     1       3.566  -2.943   3.964  0.00  0.00    -0.271 OA
ATOM     30  H   UNL     1       1.666  -0.555   3.491  0.00  0.00    +0.155 HD
BRANCH  28  31
ATOM     31  C   UNL     1       3.557  -0.987   5.231  0.00  0.00    +0.064 C 
ATOM     32  C   UNL     1       4.574  -1.388   5.990  0.00  0.00    -0.007 C 
BRANCH  32  33
ATOM     33  C   UNL     1       5.090  -0.496   7.090  0.00  0.00    +0.111 C 
BRANCH  33  34
ATOM     34  N   UNL     1       5.072  -1.229   8.363  0.00  0.00    -0.305 NA
ATOM     35  C   UNL     1       6.027  -2.346   8.341  0.00  0.00    +0.104 C 
ATOM     36  C   UNL     1       5.341  -0.329   9.492  0.00  0.00    +0.104 C 
ENDBRANCH  33  34
ENDBRANCH  32  33
ENDBRANCH  28  31
ENDBRANCH   6  27
BRANCH   1  37
ATOM     37  O   UNL     1       0.692  -0.456   1.176  0.00  0.00    -0.490 OA
BRANCH  37  39
ATOM     38  C   UNL     1      -0.019   1.544   0.018  0.00  0.00    +0.048 C 
ATOM     39  C   UNL     1      -0.004   0.014   0.019  0.00  0.00    +0.226 C 
ENDBRANCH  37  39
ENDBRANCH   1  37
TORSDOF 10
