REMARK  Name = CHEMBL234580
REMARK  5 active torsions:
REMARK  status: ('A' for Active; 'I' for Inactive)
REMARK    1  A    between atoms: C_3  and  C_8
REMARK    2  A    between atoms: C_8  and  N_9
REMARK    3  A    between atoms: C_13  and  N_18
REMARK    4  A    between atoms: C_21  and  C_28
REMARK    5  A    between atoms: C_28  and  N_29
REMARK                            x       y       z     vdW  Elec       q    Type
REMARK                         _______ _______ _______ _____ _____    ______ ____
ROOT
ATOM      1  N   UNL     1       3.262   6.401   5.100  0.00  0.00    -0.298 N 
ATOM      2  C   UNL     1       2.567   7.560   4.814  0.00  0.00    +0.151 A 
ATOM      3  C   UNL     1       2.481   8.596   5.772  0.00  0.00    +0.107 A 
ATOM      4  C   UNL     1       2.967   8.757   7.055  0.00  0.00    -0.034 A 
ATOM      5  C   UNL     1       2.544  10.012   7.494  0.00  0.00    +0.023 A 
ATOM      6  C   UNL     1       1.823  10.584   6.493  0.00  0.00    +0.113 A 
ATOM      7  N   UNL     1       1.776   9.739   5.446  0.00  0.00    -0.235 N 
ATOM      8  N   UNL     1       1.181   9.815   4.179  0.00  0.00    -0.155 NA
ATOM      9  C   UNL     1       1.299   8.822   3.341  0.00  0.00    +0.245 A 
ATOM     10  N   UNL     1       1.979   7.716   3.639  0.00  0.00    -0.217 NA
ATOM     11  H   UNL     1       3.759   6.325   5.929  0.00  0.00    +0.154 HD
ENDROOT
BRANCH   1  16
ATOM     12  N   UNL     1       2.956   2.252   1.468  0.00  0.00    -0.259 N 
ATOM     13  C   UNL     1       3.257   3.213   2.401  0.00  0.00    +0.069 A 
ATOM     14  C   UNL     1       4.406   3.524   3.125  0.00  0.00    +0.030 A 
ATOM     15  C   UNL     1       4.399   4.568   4.004  0.00  0.00    +0.025 A 
ATOM     16  C   UNL     1       3.248   5.335   4.192  0.00  0.00    +0.033 A 
ATOM     17  C   UNL     1       2.096   5.048   3.487  0.00  0.00    +0.034 A 
ATOM     18  C   UNL     1       2.091   3.980   2.582  0.00  0.00    +0.021 A 
ATOM     19  C   UNL     1       1.082   3.409   1.696  0.00  0.00    +0.143 A 
ATOM     20  N   UNL     1       1.627   2.410   1.063  0.00  0.00    -0.178 NA
BRANCH  12  21
ATOM     21  C   UNL     1       3.880   1.229   0.973  0.00  0.00    +0.179 C 
BRANCH  21  24
ATOM     22  C   UNL     1       6.491   2.916  -1.171  0.00  0.00    +0.003 A 
ATOM     23  C   UNL     1       5.814   2.430  -0.068  0.00  0.00    +0.005 A 
ATOM     24  C   UNL     1       4.617   1.758  -0.230  0.00  0.00    -0.023 A 
ATOM     25  C   UNL     1       4.096   1.570  -1.497  0.00  0.00    +0.043 A 
ATOM     26  C   UNL     1       4.773   2.056  -2.602  0.00  0.00    +0.124 A 
ATOM     27  C   UNL     1       5.972   2.730  -2.438  0.00  0.00    +0.038 A 
ATOM     28  F   UNL     1       4.265   1.873  -3.841  0.00  0.00    -0.205 F 
ENDBRANCH  21  24
ENDBRANCH  12  21
ENDBRANCH   1  16
BRANCH   4  29
ATOM     29  C   UNL     1       3.795   7.766   7.832  0.00  0.00    -0.040 C 
BRANCH  29  30
ATOM     30  N   UNL     1       5.196   7.850   7.396  0.00  0.00    +0.388 N 
ATOM     31  C   UNL     1       5.927   6.726   7.975  0.00  0.00    -0.062 C 
ATOM     32  C   UNL     1       6.951   6.348   6.935  0.00  0.00    +0.063 C 
ATOM     33  N   UNL     1       8.280   6.904   7.310  0.00  0.00    -0.311 NA
ATOM     34  C   UNL     1       8.143   8.258   7.909  0.00  0.00    +0.153 C 
ATOM     35  C   UNL     1       7.160   9.160   7.263  0.00  0.00    +0.131 C 
ATOM     36  O   UNL     1       7.499   9.909   6.379  0.00  0.00    -0.298 OA
ATOM     37  C   UNL     1       5.693   9.122   7.742  0.00  0.00    -0.001 C 
ATOM     38  H   UNL     1       8.771   6.281   7.933  0.00  0.00    +0.122 HD
ATOM     39  H   UNL     1       5.221   7.760   6.391  0.00  0.00    -0.081 HD
ENDBRANCH  29  30
ENDBRANCH   4  29
TORSDOF 5
