REMARK  Name = CHEMBL207037
REMARK  6 active torsions:
REMARK  status: ('A' for Active; 'I' for Inactive)
REMARK    1  A    between atoms: C_1  and  O_2
REMARK    2  A    between atoms: O_2  and  C_3
REMARK    3  A    between atoms: C_8  and  C_9
REMARK    4  A    between atoms: C_9  and  N_10
REMARK    5  A    between atoms: C_12  and  C_14
REMARK    6  A    between atoms: N_21  and  C_22
REMARK                            x       y       z     vdW  Elec       q    Type
REMARK                         _______ _______ _______ _____ _____    ______ ____
ROOT
ATOM      1  C   UNL     1       1.562  -0.742  -0.551  0.00  0.00    +0.127 A 
ATOM      2  C   UNL     1       2.199   0.023  -1.505  0.00  0.00    +0.074 A 
ATOM      3  C   UNL     1       2.599  -0.569  -2.708  0.00  0.00    +0.079 A 
ATOM      4  C   UNL     1       2.342  -1.946  -2.924  0.00  0.00    +0.041 A 
ATOM      5  C   UNL     1       1.693  -2.697  -1.938  0.00  0.00    +0.022 A 
ATOM      6  C   UNL     1       1.317  -2.100  -0.772  0.00  0.00    +0.009 A 
ATOM      7  C   UNL     1       2.758  -2.518  -4.150  0.00  0.00    +0.134 A 
ATOM      8  N   UNL     1       3.367  -1.736  -5.033  0.00  0.00    -0.220 NA
ATOM      9  C   UNL     1       3.586  -0.455  -4.786  0.00  0.00    +0.223 A 
ATOM     10  N   UNL     1       3.223   0.130  -3.669  0.00  0.00    -0.235 NA
ATOM     11  N   UNL     1       2.537  -3.853  -4.420  0.00  0.00    -0.297 N 
ATOM     12  H   UNL     1       2.008  -4.390  -3.809  0.00  0.00    +0.154 HD
ENDROOT
BRANCH  11  13
ATOM     13  C   UNL     1       3.075  -4.431  -5.574  0.00  0.00    +0.070 A 
ATOM     14  C   UNL     1       4.127  -3.814  -6.237  0.00  0.00    +0.026 A 
ATOM     15  C   UNL     1       4.657  -4.387  -7.376  0.00  0.00    +0.003 A 
ATOM     16  C   UNL     1       4.142  -5.576  -7.859  0.00  0.00    +0.023 A 
ATOM     17  C   UNL     1       3.093  -6.196  -7.203  0.00  0.00    +0.078 A 
ATOM     18  C   UNL     1       2.561  -5.630  -6.058  0.00  0.00    +0.163 A 
ATOM     19  F   UNL     1       1.540  -6.237  -5.413  0.00  0.00    -0.202 F 
ATOM     20 CL   UNL     1       2.449  -7.688  -7.813  0.00  0.00    -0.081 Cl
ENDBRANCH  11  13
BRANCH   1  22
ATOM     21  C   UNL     1       1.450   1.220   0.784  0.00  0.00    +0.277 C 
ATOM     22  O   UNL     1       1.173  -0.172   0.618  0.00  0.00    -0.495 OA
ENDBRANCH   1  22
BRANCH   6  23
ATOM     23  C   UNL     1       0.624  -2.914   0.290  0.00  0.00    +0.123 C 
BRANCH  23  24
ATOM     24  N   UNL     1      -0.824  -2.675   0.223  0.00  0.00    -0.297 NA
ATOM     25  C   UNL     1      -1.228  -1.607   1.156  0.00  0.00    +0.098 C 
ATOM     26  C   UNL     1      -2.456  -2.458   1.509  0.00  0.00    +0.103 C 
ATOM     27  C   UNL     1      -1.557  -3.625   1.080  0.00  0.00    +0.098 C 
BRANCH  26  28
ATOM     28  C   UNL     1      -3.644  -2.231   0.610  0.00  0.00    +0.216 C 
ATOM     29  O   UNL     1      -3.572  -1.431  -0.299  0.00  0.00    -0.276 OA
ATOM     30  N   UNL     1      -4.786  -2.917   0.815  0.00  0.00    -0.329 N 
ATOM     31  H   UNL     1      -4.843  -3.557   1.542  0.00  0.00    +0.145 HD
ATOM     32  H   UNL     1      -5.550  -2.771   0.236  0.00  0.00    +0.145 HD
ENDBRANCH  26  28
ENDBRANCH  23  24
ENDBRANCH   6  23
TORSDOF 5
