REMARK  Name = CHEMBL284326
REMARK  9 active torsions:
REMARK  status: ('A' for Active; 'I' for Inactive)
REMARK    1  A    between atoms: C_1  and  N_2
REMARK    2  A    between atoms: N_5  and  C_8
REMARK    3  A    between atoms: C_8  and  C_9
REMARK    4  A    between atoms: C_9  and  C_10
REMARK    5  A    between atoms: C_10  and  O_11
REMARK    6  A    between atoms: O_11  and  C_12
REMARK    7  A    between atoms: N_20  and  C_21
REMARK    8  A    between atoms: C_30  and  N_31
REMARK    9  A    between atoms: C_32  and  C_34
REMARK                            x       y       z     vdW  Elec       q    Type
REMARK                         _______ _______ _______ _____ _____    ______ ____
ROOT
ATOM      1  C   UNL     1       1.073  -7.868   3.778  0.00  0.00    +0.162 A 
ATOM      2  C   UNL     1       0.456  -8.706   2.889  0.00  0.00    +0.079 A 
ATOM      3  C   UNL     1       0.335 -10.064   3.231  0.00  0.00    +0.098 A 
ATOM      4  C   UNL     1       0.851 -10.510   4.471  0.00  0.00    +0.131 A 
ATOM      5  C   UNL     1       0.714 -11.884   4.790  0.00  0.00    +0.152 A 
ATOM      6  N   UNL     1       0.112 -12.676   3.913  0.00  0.00    -0.218 NA
ATOM      7  C   UNL     1      -0.354 -12.211   2.765  0.00  0.00    +0.224 A 
ATOM      8  N   UNL     1      -0.256 -10.950   2.417  0.00  0.00    -0.234 NA
ATOM      9  N   UNL     1       1.195 -12.385   5.983  0.00  0.00    -0.298 N 
ATOM     10  N   UNL     1       1.443  -9.652   5.302  0.00  0.00    -0.223 NA
ATOM     11  C   UNL     1       1.568  -8.379   4.992  0.00  0.00    +0.168 A 
ATOM     12  H   UNL     1       1.558 -11.783   6.651  0.00  0.00    +0.154 HD
ENDROOT
BRANCH   9  13
ATOM     13  C   UNL     1       1.160 -13.762   6.229  0.00  0.00    +0.034 A 
ATOM     14  C   UNL     1       0.917 -14.233   7.512  0.00  0.00    +0.026 A 
ATOM     15  C   UNL     1       0.882 -15.593   7.753  0.00  0.00    +0.041 A 
ATOM     16  C   UNL     1       1.088 -16.486   6.716  0.00  0.00    +0.142 A 
ATOM     17  C   UNL     1       1.331 -16.019   5.434  0.00  0.00    +0.078 A 
ATOM     18  C   UNL     1       1.362 -14.659   5.188  0.00  0.00    +0.046 A 
ATOM     19 CL   UNL     1       1.591 -17.142   4.136  0.00  0.00    -0.081 Cl
ATOM     20  F   UNL     1       1.054 -17.816   6.954  0.00  0.00    -0.204 F 
ENDBRANCH   9  13
BRANCH  11  21
ATOM     21  N   UNL     1       2.199  -7.519   5.886  0.00  0.00    -0.264 N 
ATOM     22  C   UNL     1       2.679  -7.994   7.053  0.00  0.00    +0.242 C 
ATOM     23  O   UNL     1       2.560  -9.173   7.324  0.00  0.00    -0.270 OA
ATOM     24  H   UNL     1       2.293  -6.578   5.670  0.00  0.00    +0.157 HD
BRANCH  22  25
ATOM     25  C   UNL     1       3.345  -7.085   7.998  0.00  0.00    +0.060 C 
ATOM     26  C   UNL     1       3.818  -7.554   9.150  0.00  0.00    +0.013 C 
ENDBRANCH  22  25
ENDBRANCH  11  21
BRANCH   1  27
ATOM     27  O   UNL     1       1.212  -6.549   3.487  0.00  0.00    -0.488 OA
BRANCH  27  28
ATOM     28  C   UNL     1       0.685  -6.101   2.237  0.00  0.00    +0.230 C 
BRANCH  28  29
ATOM     29  C   UNL     1       0.934  -4.599   2.087  0.00  0.00    +0.056 C 
BRANCH  29  30
ATOM     30  C   UNL     1       0.369  -4.120   0.748  0.00  0.00    +0.087 C 
BRANCH  30  35
ATOM     31  C   UNL     1       1.757   1.099  -0.860  0.00  0.00    -0.096 C 
ATOM     32  N   UNL     1       1.541  -0.351  -0.765  0.00  0.00    +0.379 N 
ATOM     33  C   UNL     1       0.105  -0.624  -0.630  0.00  0.00    -0.064 C 
ATOM     34  C   UNL     1      -0.122  -2.135  -0.551  0.00  0.00    +0.066 C 
ATOM     35  N   UNL     1       0.608  -2.677   0.604  0.00  0.00    -0.306 NA
ATOM     36  C   UNL     1       2.045  -2.389   0.495  0.00  0.00    +0.066 C 
ATOM     37  C   UNL     1       2.254  -0.876   0.407  0.00  0.00    -0.064 C 
ATOM     38  H   UNL     1       1.891  -0.797  -1.600  0.00  0.00    -0.082 HD
ENDBRANCH  30  35
ENDBRANCH  29  30
ENDBRANCH  28  29
ENDBRANCH  27  28
ENDBRANCH   1  27
TORSDOF 8
