REMARK  Name = CHEMBL412367
REMARK  10 active torsions:
REMARK  status: ('A' for Active; 'I' for Inactive)
REMARK    1  A    between atoms: C_1  and  C_2
REMARK    2  A    between atoms: C_2  and  C_3
REMARK    3  A    between atoms: C_4  and  N_29
REMARK    4  A    between atoms: N_12  and  C_13
REMARK    5  A    between atoms: N_21  and  C_22
REMARK    6  A    between atoms: C_22  and  C_23
REMARK    7  A    between atoms: C_30  and  O_32
REMARK    8  A    between atoms: O_32  and  C_33
REMARK    9  A    between atoms: C_33  and  C_34
REMARK   10  A    between atoms: C_34  and  N_35
REMARK                            x       y       z     vdW  Elec       q    Type
REMARK                         _______ _______ _______ _____ _____    ______ ____
ROOT
ATOM      1  C   UNL     1      -1.463  -0.653  -0.022  0.00  0.00    +0.004 A 
ATOM      2  C   UNL     1      -2.073  -1.305   1.056  0.00  0.00    +0.060 A 
ATOM      3  C   UNL     1      -2.921  -2.246   0.549  0.00  0.00    +0.136 A 
ATOM      4  N   UNL     1      -2.864  -2.205  -0.802  0.00  0.00    -0.233 N 
ATOM      5  C   UNL     1      -1.970  -1.220  -1.175  0.00  0.00    +0.110 A 
ATOM      6  C   UNL     1      -1.752  -0.992  -2.553  0.00  0.00    +0.151 A 
ATOM      7  N   UNL     1      -2.409  -1.722  -3.440  0.00  0.00    -0.217 NA
ATOM      8  C   UNL     1      -3.271  -2.666  -3.066  0.00  0.00    +0.245 A 
ATOM      9  N   UNL     1      -3.511  -2.933  -1.811  0.00  0.00    -0.155 NA
ATOM     10  N   UNL     1      -0.864  -0.019  -2.969  0.00  0.00    -0.298 N 
ATOM     11  H   UNL     1      -0.327   0.458  -2.317  0.00  0.00    +0.154 HD
ENDROOT
BRANCH  10  12
ATOM     12  C   UNL     1      -0.740   0.280  -4.331  0.00  0.00    +0.033 A 
ATOM     13  C   UNL     1      -1.854   0.186  -5.167  0.00  0.00    +0.025 A 
ATOM     14  C   UNL     1      -1.754   0.472  -6.498  0.00  0.00    +0.030 A 
ATOM     15  C   UNL     1      -0.532   0.863  -7.038  0.00  0.00    +0.069 A 
ATOM     16  C   UNL     1       0.598   0.961  -6.205  0.00  0.00    +0.021 A 
ATOM     17  C   UNL     1       0.482   0.671  -4.840  0.00  0.00    +0.034 A 
ATOM     18  C   UNL     1       1.703   1.387  -7.059  0.00  0.00    +0.143 A 
ATOM     19  N   UNL     1       1.242   1.518  -8.270  0.00  0.00    -0.178 NA
ATOM     20  N   UNL     1      -0.121   1.207  -8.302  0.00  0.00    -0.259 N 
BRANCH  20  21
ATOM     21  C   UNL     1      -0.974   1.244  -9.492  0.00  0.00    +0.179 C 
BRANCH  21  22
ATOM     22  C   UNL     1      -1.583   2.615  -9.633  0.00  0.00    -0.026 A 
ATOM     23  C   UNL     1      -2.795   2.897  -9.033  0.00  0.00    +0.005 A 
ATOM     24  C   UNL     1      -3.354   4.155  -9.162  0.00  0.00    +0.000 A 
ATOM     25  C   UNL     1      -2.699   5.131  -9.890  0.00  0.00    +0.000 A 
ATOM     26  C   UNL     1      -1.486   4.849 -10.489  0.00  0.00    +0.000 A 
ATOM     27  C   UNL     1      -0.925   3.592 -10.357  0.00  0.00    +0.005 A 
ENDBRANCH  21  22
ENDBRANCH  20  21
ENDBRANCH  10  12
BRANCH   2  28
ATOM     28  N   UNL     1      -1.850  -1.039   2.419  0.00  0.00    -0.249 N 
ATOM     29  C   UNL     1      -2.507  -1.746   3.360  0.00  0.00    +0.405 C 
ATOM     30  O   UNL     1      -3.292  -2.613   3.030  0.00  0.00    -0.226 OA
ATOM     31  H   UNL     1      -1.224  -0.347   2.682  0.00  0.00    +0.158 HD
BRANCH  29  32
ATOM     32  O   UNL     1      -2.294  -1.491   4.665  0.00  0.00    -0.448 OA
BRANCH  32  33
ATOM     33  C   UNL     1      -3.025  -2.278   5.607  0.00  0.00    +0.255 C 
BRANCH  33  34
ATOM     34  C   UNL     1      -2.654  -1.847   7.028  0.00  0.00    +0.163 C 
BRANCH  34  35
ATOM     35  N   UNL     1      -3.403  -2.654   7.994  0.00  0.00    -0.335 N 
ATOM     36  C   UNL     1      -4.635  -2.363   8.513  0.00  0.00    +0.104 A 
ATOM     37  C   UNL     1      -4.950  -3.365   9.356  0.00  0.00    +0.101 A 
ATOM     38  N   UNL     1      -3.937  -4.244   9.352  0.00  0.00    -0.352 N 
ATOM     39  C   UNL     1      -3.009  -3.828   8.534  0.00  0.00    +0.173 A 
ATOM     40  H   UNL     1      -3.901  -5.062   9.872  0.00  0.00    +0.166 HD
ENDBRANCH  34  35
ENDBRANCH  33  34
ENDBRANCH  32  33
ENDBRANCH  29  32
ENDBRANCH   2  28
BRANCH   1  42
ATOM     41  C   UNL     1      -1.164   1.808  -0.062  0.00  0.00    +0.009 C 
ATOM     42  C   UNL     1      -0.451   0.460   0.060  0.00  0.00    +0.036 C 
ENDBRANCH   1  42
TORSDOF 9
