REMARK  Name = CHEMBL402294
REMARK  8 active torsions:
REMARK  status: ('A' for Active; 'I' for Inactive)
REMARK    1  A    between atoms: C_1  and  C_2
REMARK    2  A    between atoms: C_2  and  O_3
REMARK    3  A    between atoms: O_3  and  N_4
REMARK    4  A    between atoms: C_5  and  C_6
REMARK    5  A    between atoms: C_11  and  N_12
REMARK    6  A    between atoms: N_12  and  C_13
REMARK    7  A    between atoms: N_21  and  C_22
REMARK    8  A    between atoms: C_22  and  C_23
REMARK                            x       y       z     vdW  Elec       q    Type
REMARK                         _______ _______ _______ _____ _____    ______ ____
ROOT
ATOM      1  C   UNL     1      -6.524  -4.189  -0.143  0.00  0.00    +0.033 A 
ATOM      2  C   UNL     1      -6.667  -5.567  -0.314  0.00  0.00    +0.025 A 
ATOM      3  C   UNL     1      -7.901  -6.126  -0.474  0.00  0.00    +0.030 A 
ATOM      4  C   UNL     1      -9.038  -5.322  -0.469  0.00  0.00    +0.069 A 
ATOM      5  C   UNL     1      -8.906  -3.931  -0.297  0.00  0.00    +0.021 A 
ATOM      6  C   UNL     1      -7.635  -3.370  -0.128  0.00  0.00    +0.034 A 
ATOM      7  C   UNL     1     -10.258  -3.381  -0.338  0.00  0.00    +0.143 A 
ATOM      8  N   UNL     1     -11.085  -4.372  -0.517  0.00  0.00    -0.178 NA
ATOM      9  N   UNL     1     -10.380  -5.577  -0.602  0.00  0.00    -0.259 N 
ENDROOT
BRANCH   1  10
ATOM     10  N   UNL     1      -5.248  -3.636   0.019  0.00  0.00    -0.299 N 
ATOM     11  H   UNL     1      -4.486  -4.033  -0.431  0.00  0.00    +0.154 HD
BRANCH  10  17
ATOM     12  C   UNL     1      -3.820  -1.891   0.907  0.00  0.00    +0.076 A 
ATOM     13  C   UNL     1      -3.707  -0.759   1.736  0.00  0.00    +0.130 A 
ATOM     14  N   UNL     1      -4.781  -0.343   2.401  0.00  0.00    -0.220 NA
ATOM     15  C   UNL     1      -5.934  -0.971   2.293  0.00  0.00    +0.225 A 
ATOM     16  N   UNL     1      -6.088  -2.034   1.530  0.00  0.00    -0.220 NA
ATOM     17  C   UNL     1      -5.074  -2.523   0.822  0.00  0.00    +0.137 A 
ATOM     18  N   UNL     1      -2.502  -0.093   1.857  0.00  0.00    -0.342 N 
ATOM     19  H   UNL     1      -1.750  -0.347   1.300  0.00  0.00    +0.144 HD
ATOM     20  H   UNL     1      -2.409   0.628   2.499  0.00  0.00    +0.144 HD
BRANCH  12  22
ATOM     21  N   UNL     1      -1.547  -1.738   0.159  0.00  0.00    -0.092 NA
ATOM     22  C   UNL     1      -2.663  -2.394   0.149  0.00  0.00    +0.167 C 
BRANCH  21  23
ATOM     23  O   UNL     1      -0.434  -2.222  -0.571  0.00  0.00    -0.394 OA
BRANCH  23  25
ATOM     24  C   UNL     1       1.863  -2.015  -1.293  0.00  0.00    +0.051 C 
ATOM     25  C   UNL     1       0.730  -1.399  -0.469  0.00  0.00    +0.259 C 
ENDBRANCH  23  25
ENDBRANCH  21  23
ENDBRANCH  12  22
ENDBRANCH  10  17
ENDBRANCH   1  10
BRANCH   9  26
ATOM     26  C   UNL     1     -10.978  -6.899  -0.803  0.00  0.00    +0.179 C 
BRANCH  26  27
ATOM     27  C   UNL     1     -11.292  -7.517   0.535  0.00  0.00    -0.023 A 
ATOM     28  C   UNL     1     -10.345  -8.292   1.178  0.00  0.00    +0.005 A 
ATOM     29  C   UNL     1     -10.632  -8.859   2.405  0.00  0.00    +0.003 A 
ATOM     30  C   UNL     1     -11.866  -8.652   2.991  0.00  0.00    +0.038 A 
ATOM     31  C   UNL     1     -12.815  -7.876   2.349  0.00  0.00    +0.124 A 
ATOM     32  C   UNL     1     -12.525  -7.303   1.122  0.00  0.00    +0.043 A 
ATOM     33  F   UNL     1     -14.022  -7.673   2.921  0.00  0.00    -0.205 F 
ENDBRANCH  26  27
ENDBRANCH   9  26
TORSDOF 7
