REMARK  Name = CHEMBL352583
REMARK  10 active torsions:
REMARK  status: ('A' for Active; 'I' for Inactive)
REMARK    1  A    between atoms: C_4  and  C_7
REMARK    2  A    between atoms: C_7  and  O_8
REMARK    3  A    between atoms: O_8  and  C_9
REMARK    4  A    between atoms: C_9  and  C_11
REMARK    5  A    between atoms: C_13  and  N_18
REMARK    6  A    between atoms: C_16  and  O_17
REMARK    7  A    between atoms: N_18  and  C_19
REMARK    8  A    between atoms: C_19  and  C_20
REMARK    9  A    between atoms: C_22  and  O_27
REMARK   10  A    between atoms: C_25  and  O_26
REMARK                            x       y       z     vdW  Elec       q    Type
REMARK                         _______ _______ _______ _____ _____    ______ ____
ROOT
ATOM      1  C   UNL     1       5.815  -1.881   2.821  0.00  0.00    +0.102 A 
ATOM      2  C   UNL     1       5.083  -1.478   3.941  0.00  0.00    +0.041 A 
ATOM      3  C   UNL     1       5.565  -1.746   5.211  0.00  0.00    +0.028 A 
ATOM      4  C   UNL     1       6.774  -2.415   5.372  0.00  0.00    +0.026 A 
ATOM      5  C   UNL     1       7.502  -2.816   4.271  0.00  0.00    +0.048 A 
ATOM      6  C   UNL     1       7.029  -2.560   2.992  0.00  0.00    +0.131 A 
ENDROOT
BRANCH   1   7
ATOM      7  C   UNL     1       5.309  -1.599   1.465  0.00  0.00    +0.343 C 
ATOM      8  O   UNL     1       5.944  -1.956   0.493  0.00  0.00    -0.245 OA
BRANCH   7   9
ATOM      9  O   UNL     1       4.141  -0.946   1.304  0.00  0.00    -0.456 OA
BRANCH   9  10
ATOM     10  C   UNL     1       3.711  -0.707  -0.038  0.00  0.00    +0.268 C 
BRANCH  10  14
ATOM     11  C   UNL     1      -0.017   1.378   0.010  0.00  0.00    +0.000 A 
ATOM     12  C   UNL     1       1.171   2.086   0.002  0.00  0.00    +0.000 A 
ATOM     13  C   UNL     1       2.377   1.411  -0.013  0.00  0.00    +0.007 A 
ATOM     14  C   UNL     1       2.396   0.029  -0.020  0.00  0.00    -0.010 A 
ATOM     15  C   UNL     1       1.208  -0.679  -0.012  0.00  0.00    +0.007 A 
ATOM     16  C   UNL     1       0.002  -0.004   0.002  0.00  0.00    +0.000 A 
ENDBRANCH  10  14
ENDBRANCH   9  10
ENDBRANCH   7   9
ENDBRANCH   1   7
BRANCH   6  17
ATOM     17  O   UNL     1       7.743  -2.961   1.910  0.00  0.00    -0.506 OA
ATOM     18  H   UNL     1       8.381  -2.306   1.595  0.00  0.00    +0.292 HD
ENDBRANCH   6  17
BRANCH   3  19
ATOM     19  N   UNL     1       4.834  -1.343   6.334  0.00  0.00    -0.340 N 
ATOM     20  H   UNL     1       3.991  -0.876   6.223  0.00  0.00    +0.146 HD
BRANCH  19  21
ATOM     21  C   UNL     1       5.342  -1.626   7.679  0.00  0.00    +0.140 C 
BRANCH  21  22
ATOM     22  C   UNL     1       4.375  -1.092   8.704  0.00  0.00    +0.014 A 
ATOM     23  C   UNL     1       4.623   0.118   9.323  0.00  0.00    +0.054 A 
ATOM     24  C   UNL     1       3.733   0.610  10.266  0.00  0.00    +0.117 A 
ATOM     25  C   UNL     1       2.594  -0.114  10.588  0.00  0.00    +0.049 A 
ATOM     26  C   UNL     1       2.346  -1.323   9.969  0.00  0.00    +0.049 A 
ATOM     27  C   UNL     1       3.234  -1.812   9.021  0.00  0.00    +0.122 A 
BRANCH  27  28
ATOM     28  O   UNL     1       2.987  -3.000   8.408  0.00  0.00    -0.506 OA
ATOM     29  H   UNL     1       3.358  -3.765   8.868  0.00  0.00    +0.292 HD
ENDBRANCH  27  28
BRANCH  24  30
ATOM     30  O   UNL     1       3.978   1.800  10.876  0.00  0.00    -0.507 OA
ATOM     31  H   UNL     1       3.603   2.563  10.415  0.00  0.00    +0.292 HD
ENDBRANCH  24  30
ENDBRANCH  21  22
ENDBRANCH  19  21
ENDBRANCH   3  19
TORSDOF 10
