REMARK  Name = CHEMBL355982
REMARK  1 active torsions:
REMARK  status: ('A' for Active; 'I' for Inactive)
REMARK    1  A    between atoms: C_3  and  N_8
REMARK                            x       y       z     vdW  Elec       q    Type
REMARK                         _______ _______ _______ _____ _____    ______ ____
ROOT
ATOM      1  N   UNL     1       3.583   2.124  -0.021  0.00  0.00    -0.299 N 
ATOM      2  C   UNL     1       4.789   1.451   0.068  0.00  0.00    +0.134 A 
ATOM      3  C   UNL     1       6.010   2.172   0.173  0.00  0.00    +0.048 A 
ATOM      4  C   UNL     1       6.242   3.606   0.207  0.00  0.00    +0.021 A 
ATOM      5  C   UNL     1       7.499   4.063   0.313  0.00  0.00    +0.048 A 
ATOM      6  S   UNL     1       8.480   2.576   0.376  0.00  0.00    -0.077 S 
ATOM      7  C   UNL     1       7.176   1.380   0.259  0.00  0.00    +0.113 A 
ATOM      8  N   UNL     1       7.115   0.063   0.240  0.00  0.00    -0.228 NA
ATOM      9  C   UNL     1       5.951  -0.550   0.139  0.00  0.00    +0.224 A 
ATOM     10  N   UNL     1       4.820   0.128   0.062  0.00  0.00    -0.220 NA
ATOM     11  H   UNL     1       3.571   3.091  -0.094  0.00  0.00    +0.154 HD
ENDROOT
BRANCH   1  14
ATOM     12  C   UNL     1       1.087  -0.464   0.746  0.00  0.00    +0.003 A 
ATOM     13  C   UNL     1       2.276   0.239   0.734  0.00  0.00    +0.023 A 
ATOM     14  C   UNL     1       2.381   1.410  -0.007  0.00  0.00    +0.033 A 
ATOM     15  C   UNL     1       1.290   1.870  -0.733  0.00  0.00    +0.038 A 
ATOM     16  C   UNL     1       0.103   1.162  -0.716  0.00  0.00    +0.020 A 
ATOM     17  C   UNL     1       0.002  -0.004   0.023  0.00  0.00    +0.015 A 
ATOM     18 BR   UNL     1      -1.384   1.786  -1.703  0.00  0.00    -0.050 Br
ENDBRANCH   1  14
TORSDOF 1
