REMARK  Name = CHEMBL472746
REMARK  6 active torsions:
REMARK  status: ('A' for Active; 'I' for Inactive)
REMARK    1  A    between atoms: C_2  and  C_3
REMARK    2  A    between atoms: N_5  and  C_6
REMARK    3  A    between atoms: N_15  and  C_16
REMARK    4  A    between atoms: C_19  and  O_22
REMARK    5  A    between atoms: O_22  and  C_23
REMARK    6  A    between atoms: C_23  and  C_24
REMARK                            x       y       z     vdW  Elec       q    Type
REMARK                         _______ _______ _______ _____ _____    ______ ____
ROOT
ATOM      1  C   UNL     1      -2.067  -2.883  -0.379  0.00  0.00    +0.027 C 
ATOM      2  C   UNL     1      -2.988  -1.901  -0.449  0.00  0.00    +0.022 C 
ATOM      3  C   UNL     1      -4.207  -2.297   0.152  0.00  0.00    +0.026 C 
ATOM      4  C   UNL     1      -4.069  -3.466   0.776  0.00  0.00    +0.059 C 
ATOM      5  C   UNL     1      -2.744  -4.050   0.280  0.00  0.00    +0.145 C 
ATOM      6  C   UNL     1      -2.041  -4.544   1.518  0.00  0.00    +0.116 C 
ATOM      7  N   UNL     1      -2.794  -4.952   2.518  0.00  0.00    -0.224 NA
ATOM      8  C   UNL     1      -4.130  -4.906   2.510  0.00  0.00    +0.223 C 
ATOM      9  N   UNL     1      -4.809  -4.156   1.662  0.00  0.00    -0.239 NA
ATOM     10  N   UNL     1      -0.682  -4.568   1.598  0.00  0.00    -0.302 N 
ATOM     11  H   UNL     1      -0.146  -4.188   0.884  0.00  0.00    +0.153 HD
ENDROOT
BRANCH  10  12
ATOM     12  C   UNL     1      -0.057  -5.142   2.711  0.00  0.00    +0.032 A 
ATOM     13  C   UNL     1      -0.618  -6.253   3.327  0.00  0.00    +0.027 A 
ATOM     14  C   UNL     1      -0.001  -6.819   4.425  0.00  0.00    +0.047 A 
ATOM     15  C   UNL     1       1.179  -6.278   4.914  0.00  0.00    +0.121 A 
ATOM     16  C   UNL     1       1.740  -5.168   4.299  0.00  0.00    +0.047 A 
ATOM     17  C   UNL     1       1.128  -4.604   3.197  0.00  0.00    +0.027 A 
BRANCH  15  18
ATOM     18  O   UNL     1       1.786  -6.835   5.995  0.00  0.00    -0.487 OA
BRANCH  18  19
ATOM     19  C   UNL     1       2.998  -6.226   6.445  0.00  0.00    +0.264 C 
BRANCH  19  20
ATOM     20  C   UNL     1       3.521  -6.974   7.644  0.00  0.00    -0.010 A 
ATOM     21  C   UNL     1       3.128  -6.603   8.916  0.00  0.00    +0.007 A 
ATOM     22  C   UNL     1       3.609  -7.289  10.015  0.00  0.00    +0.000 A 
ATOM     23  C   UNL     1       4.481  -8.347   9.843  0.00  0.00    +0.000 A 
ATOM     24  C   UNL     1       4.873  -8.719   8.571  0.00  0.00    +0.000 A 
ATOM     25  C   UNL     1       4.390  -8.036   7.471  0.00  0.00    +0.007 A 
ENDBRANCH  19  20
ENDBRANCH  18  19
ENDBRANCH  15  18
ENDBRANCH  10  12
BRANCH   1  28
ATOM     26  C   UNL     1      -0.291  -1.702  -1.405  0.00  0.00    +0.240 C 
ATOM     27  O   UNL     1      -1.018  -0.734  -1.528  0.00  0.00    -0.271 OA
ATOM     28  N   UNL     1      -0.759  -2.828  -0.830  0.00  0.00    -0.285 N 
ATOM     29  H   UNL     1      -0.179  -3.599  -0.733  0.00  0.00    +0.155 HD
BRANCH  26  31
ATOM     30  C   UNL     1       1.560  -0.532  -2.452  0.00  0.00    +0.013 C 
ATOM     31  C   UNL     1       1.098  -1.644  -1.884  0.00  0.00    +0.060 C 
ENDBRANCH  26  31
ENDBRANCH   1  28
TORSDOF 6
