REMARK  Name = CHEMBL126192
REMARK  8 active torsions:
REMARK  status: ('A' for Active; 'I' for Inactive)
REMARK    1  A    between atoms: C_1  and  C_2
REMARK    2  A    between atoms: C_2  and  O_3
REMARK    3  A    between atoms: O_3  and  C_4
REMARK    4  A    between atoms: C_9  and  O_10
REMARK    5  A    between atoms: O_10  and  C_11
REMARK    6  A    between atoms: C_11  and  C_12
REMARK    7  A    between atoms: N_17  and  C_18
REMARK    8  A    between atoms: C_22  and  C_24
REMARK                            x       y       z     vdW  Elec       q    Type
REMARK                         _______ _______ _______ _____ _____    ______ ____
ROOT
ATOM      1  C   UNL     1       0.214  -1.897   1.627  0.00  0.00    +0.163 A 
ATOM      2  C   UNL     1      -0.137  -2.702   0.580  0.00  0.00    +0.062 A 
ATOM      3  C   UNL     1       0.187  -4.063   0.613  0.00  0.00    +0.044 A 
ATOM      4  C   UNL     1       0.876  -4.599   1.730  0.00  0.00    +0.080 A 
ATOM      5  C   UNL     1       1.226  -3.756   2.792  0.00  0.00    +0.078 A 
ATOM      6  C   UNL     1       0.901  -2.419   2.732  0.00  0.00    +0.164 A 
ATOM      7  N   UNL     1       1.176  -5.907   1.736  0.00  0.00    -0.235 NA
ATOM      8  C   UNL     1       0.835  -6.672   0.726  0.00  0.00    +0.223 A 
ATOM      9  N   UNL     1       0.192  -6.216  -0.337  0.00  0.00    -0.220 NA
ATOM     10  C   UNL     1      -0.152  -4.940  -0.445  0.00  0.00    +0.134 A 
ATOM     11  N   UNL     1      -0.824  -4.479  -1.559  0.00  0.00    -0.299 N 
ATOM     12  H   UNL     1      -0.996  -3.530  -1.663  0.00  0.00    +0.154 HD
ENDROOT
BRANCH  11  13
ATOM     13  C   UNL     1      -1.256  -5.379  -2.537  0.00  0.00    +0.033 A 
ATOM     14  C   UNL     1      -1.233  -5.013  -3.878  0.00  0.00    +0.023 A 
ATOM     15  C   UNL     1      -1.659  -5.900  -4.848  0.00  0.00    +0.002 A 
ATOM     16  C   UNL     1      -2.112  -7.155  -4.493  0.00  0.00    +0.010 A 
ATOM     17  C   UNL     1      -2.139  -7.532  -3.149  0.00  0.00    +0.009 A 
ATOM     18  C   UNL     1      -1.704  -6.639  -2.170  0.00  0.00    +0.033 A 
BRANCH  17  19
ATOM     19  C   UNL     1      -2.623  -8.875  -2.765  0.00  0.00    +0.108 A 
ATOM     20  N   UNL     1      -2.733  -9.418  -1.561  0.00  0.00    -0.247 NA
ATOM     21  C   UNL     1      -3.189 -10.638  -1.402  0.00  0.00    +0.119 A 
ATOM     22  C   UNL     1      -3.558 -11.369  -2.486  0.00  0.00    +0.067 A 
ATOM     23  S   UNL     1      -3.225 -10.203  -3.800  0.00  0.00    -0.076 S 
ENDBRANCH  17  19
ENDBRANCH  11  13
BRANCH   1  24
ATOM     24  O   UNL     1      -0.102  -0.575   1.594  0.00  0.00    -0.489 OA
BRANCH  24  26
ATOM     25  C   UNL     1      -1.067   1.396   0.583  0.00  0.00    +0.048 C 
ATOM     26  C   UNL     1      -0.802  -0.104   0.441  0.00  0.00    +0.226 C 
ENDBRANCH  24  26
ENDBRANCH   1  24
BRANCH   6  27
ATOM     27  O   UNL     1       1.244  -1.597   3.759  0.00  0.00    -0.489 OA
BRANCH  27  28
ATOM     28  C   UNL     1       1.942  -2.188   4.857  0.00  0.00    +0.226 C 
ATOM     29  C   UNL     1       2.242  -1.116   5.907  0.00  0.00    +0.048 C 
ENDBRANCH  27  28
ENDBRANCH   6  27
TORSDOF 6
