REMARK  Name = CHEMBL177053
REMARK  1 active torsions:
REMARK  status: ('A' for Active; 'I' for Inactive)
REMARK    1  A    between atoms: C_3  and  N_8
REMARK                            x       y       z     vdW  Elec       q    Type
REMARK                         _______ _______ _______ _____ _____    ______ ____
ROOT
ATOM      1  N   UNL     1       3.583   2.124  -0.021  0.00  0.00    -0.299 N 
ATOM      2  C   UNL     1       4.785   1.453   0.068  0.00  0.00    +0.134 A 
ATOM      3  C   UNL     1       6.007   2.161   0.173  0.00  0.00    +0.042 A 
ATOM      4  C   UNL     1       6.053   3.558   0.192  0.00  0.00    +0.030 A 
ATOM      5  C   UNL     1       7.263   4.181   0.295  0.00  0.00    +0.040 A 
ATOM      6  C   UNL     1       8.492   3.473   0.387  0.00  0.00    +0.080 A 
ATOM      7  C   UNL     1       8.437   2.072   0.368  0.00  0.00    +0.057 A 
ATOM      8  C   UNL     1       7.213   1.417   0.262  0.00  0.00    +0.078 A 
ATOM      9  N   UNL     1       7.137   0.073   0.242  0.00  0.00    -0.235 NA
ATOM     10  C   UNL     1       5.976  -0.527   0.143  0.00  0.00    +0.223 A 
ATOM     11  N   UNL     1       4.827   0.127   0.063  0.00  0.00    -0.220 NA
ATOM     12  N   UNL     1       9.567   4.285   0.481  0.00  0.00    -0.247 NA
ATOM     13  C   UNL     1       9.459   5.581   0.486  0.00  0.00    +0.157 A 
ATOM     14  S   UNL     1       7.807   5.870   0.357  0.00  0.00    -0.075 S 
ATOM     15  H   UNL     1       3.571   3.091  -0.094  0.00  0.00    +0.154 HD
ENDROOT
BRANCH   1  18
ATOM     16  C   UNL     1       1.088  -0.466   0.744  0.00  0.00    +0.003 A 
ATOM     17  C   UNL     1       2.277   0.238   0.731  0.00  0.00    +0.023 A 
ATOM     18  C   UNL     1       2.381   1.410  -0.007  0.00  0.00    +0.033 A 
ATOM     19  C   UNL     1       1.289   1.872  -0.730  0.00  0.00    +0.038 A 
ATOM     20  C   UNL     1       0.102   1.163  -0.713  0.00  0.00    +0.020 A 
ATOM     21  C   UNL     1       0.002  -0.004   0.023  0.00  0.00    +0.015 A 
ATOM     22 BR   UNL     1      -1.386   1.790  -1.696  0.00  0.00    -0.050 Br
ENDBRANCH   1  18
TORSDOF 1
