REMARK  Name = CHEMBL475768
REMARK  12 active torsions:
REMARK  status: ('A' for Active; 'I' for Inactive)
REMARK    1  A    between atoms: C_1  and  S_2
REMARK    2  A    between atoms: S_2  and  C_5
REMARK    3  A    between atoms: C_5  and  C_6
REMARK    4  A    between atoms: C_6  and  N_7
REMARK    5  A    between atoms: N_7  and  C_8
REMARK    6  A    between atoms: C_8  and  C_9
REMARK    7  A    between atoms: C_12  and  C_14
REMARK    8  A    between atoms: C_19  and  N_23
REMARK    9  A    between atoms: N_23  and  C_24
REMARK   10  A    between atoms: C_27  and  O_31
REMARK   11  A    between atoms: O_31  and  C_32
REMARK   12  A    between atoms: C_32  and  C_33
REMARK                            x       y       z     vdW  Elec       q    Type
REMARK                         _______ _______ _______ _____ _____    ______ ____
ROOT
ATOM      1  C   UNL     1       2.726  -4.019  -8.124  0.00  0.00    +0.057 A 
ATOM      2  C   UNL     1       1.536  -4.222  -8.758  0.00  0.00    +0.047 A 
ATOM      3  C   UNL     1       1.519  -4.711 -10.071  0.00  0.00    +0.084 A 
ATOM      4  C   UNL     1       2.787  -4.960 -10.645  0.00  0.00    +0.078 A 
ATOM      5  S   UNL     1       3.920  -4.505  -9.359  0.00  0.00    -0.080 S 
ATOM      6  C   UNL     1       2.905  -5.443 -11.935  0.00  0.00    +0.141 A 
ATOM      7  N   UNL     1       1.788  -5.670 -12.630  0.00  0.00    -0.219 NA
ATOM      8  C   UNL     1       0.609  -5.434 -12.084  0.00  0.00    +0.224 A 
ATOM      9  N   UNL     1       0.453  -4.977 -10.868  0.00  0.00    -0.235 NA
ENDROOT
BRANCH   1  13
ATOM     10  C   UNL     1       2.610  -2.756  -4.734  0.00  0.00    +0.089 A 
ATOM     11  C   UNL     1       3.947  -2.842  -4.884  0.00  0.00    +0.043 A 
ATOM     12  C   UNL     1       4.186  -3.330  -6.183  0.00  0.00    +0.050 A 
ATOM     13  C   UNL     1       2.967  -3.518  -6.762  0.00  0.00    +0.142 A 
ATOM     14  O   UNL     1       2.021  -3.171  -5.868  0.00  0.00    -0.461 OA
BRANCH  10  15
ATOM     15  C   UNL     1       1.893  -2.279  -3.497  0.00  0.00    -0.007 C 
BRANCH  15  16
ATOM     16  N   UNL     1       1.684  -0.828  -3.581  0.00  0.00    +0.385 N 
ATOM     17  H   UNL     1       1.127  -0.615  -4.395  0.00  0.00    -0.085 HD
ATOM     18  H   UNL     1       2.577  -0.363  -3.653  0.00  0.00    -0.085 HD
BRANCH  16  19
ATOM     19  C   UNL     1       0.987  -0.363  -2.374  0.00  0.00    -0.059 C 
BRANCH  19  20
ATOM     20  C   UNL     1       0.769   1.149  -2.462  0.00  0.00    +0.146 C 
BRANCH  20  22
ATOM     21  C   UNL     1      -0.254   3.506  -1.264  0.00  0.00    +0.193 C 
ATOM     22  S   UNL     1      -0.093   1.722  -0.972  0.00  0.00    -0.036 S 
ATOM     23  O   UNL     1       0.761   1.525   0.146  0.00  0.00    -0.175 OA
ATOM     24  O   UNL     1      -1.394   1.151  -0.957  0.00  0.00    -0.175 OA
ENDBRANCH  20  22
ENDBRANCH  19  20
ENDBRANCH  16  19
ENDBRANCH  15  16
ENDBRANCH  10  15
ENDBRANCH   1  13
BRANCH   6  25
ATOM     25  N   UNL     1       4.151  -5.685 -12.493  0.00  0.00    -0.298 N 
ATOM     26  H   UNL     1       4.950  -5.596 -11.951  0.00  0.00    +0.154 HD
BRANCH  25  27
ATOM     27  C   UNL     1       4.255  -6.058 -13.838  0.00  0.00    +0.034 A 
ATOM     28  C   UNL     1       5.237  -6.956 -14.236  0.00  0.00    +0.027 A 
ATOM     29  C   UNL     1       5.340  -7.324 -15.563  0.00  0.00    +0.049 A 
ATOM     30  C   UNL     1       4.463  -6.797 -16.499  0.00  0.00    +0.139 A 
ATOM     31  C   UNL     1       3.481  -5.899 -16.103  0.00  0.00    +0.084 A 
ATOM     32  C   UNL     1       3.373  -5.535 -14.774  0.00  0.00    +0.047 A 
ATOM     33 CL   UNL     1       2.384  -5.239 -17.276  0.00  0.00    -0.080 Cl
BRANCH  30  34
ATOM     34  O   UNL     1       4.565  -7.159 -17.806  0.00  0.00    -0.486 OA
BRANCH  34  35
ATOM     35  C   UNL     1       5.599  -8.086 -18.143  0.00  0.00    +0.264 C 
BRANCH  35  36
ATOM     36  C   UNL     1       5.558  -8.368 -19.623  0.00  0.00    -0.008 A 
ATOM     37  C   UNL     1       4.782  -9.404 -20.109  0.00  0.00    +0.007 A 
ATOM     38  C   UNL     1       4.744  -9.663 -21.466  0.00  0.00    +0.003 A 
ATOM     39  C   UNL     1       5.483  -8.887 -22.339  0.00  0.00    +0.038 A 
ATOM     40  C   UNL     1       6.260  -7.850 -21.854  0.00  0.00    +0.124 A 
ATOM     41  C   UNL     1       6.293  -7.587 -20.495  0.00  0.00    +0.045 A 
ATOM     42  F   UNL     1       6.983  -7.091 -22.707  0.00  0.00    -0.205 F 
ENDBRANCH  35  36
ENDBRANCH  34  35
ENDBRANCH  30  34
ENDBRANCH  25  27
ENDBRANCH   6  25
TORSDOF 11
