REMARK  Name = CHEMBL153206
REMARK  4 active torsions:
REMARK  status: ('A' for Active; 'I' for Inactive)
REMARK    1  A    between atoms: C_1  and  O_2
REMARK    2  A    between atoms: O_2  and  C_3
REMARK    3  A    between atoms: C_16  and  N_17
REMARK    4  A    between atoms: N_17  and  C_18
REMARK                            x       y       z     vdW  Elec       q    Type
REMARK                         _______ _______ _______ _____ _____    ______ ____
ROOT
ATOM      1  C   UNL     1      -1.206  -0.716  -0.849  0.00  0.00    +0.121 A 
ATOM      2  C   UNL     1      -2.382   0.014  -0.980  0.00  0.00    +0.047 A 
ATOM      3  C   UNL     1      -3.607  -0.606  -0.861  0.00  0.00    +0.030 A 
ATOM      4  C   UNL     1      -3.677  -1.972  -0.609  0.00  0.00    +0.049 A 
ATOM      5  C   UNL     1      -2.490  -2.710  -0.477  0.00  0.00    +0.016 A 
ATOM      6  C   UNL     1      -1.256  -2.075  -0.604  0.00  0.00    +0.056 A 
ATOM      7  C   UNL     1      -2.896  -4.100  -0.219  0.00  0.00    +0.066 A 
ATOM      8  C   UNL     1      -4.300  -4.114  -0.211  0.00  0.00    +0.144 A 
ATOM      9  N   UNL     1      -4.748  -2.837  -0.445  0.00  0.00    -0.339 N 
ATOM     10  H   UNL     1      -5.682  -2.577  -0.489  0.00  0.00    +0.167 HD
ATOM     11  N   UNL     1      -4.923  -5.272   0.005  0.00  0.00    -0.218 NA
ATOM     12  C   UNL     1      -4.238  -6.378   0.206  0.00  0.00    +0.225 A 
ATOM     13  N   UNL     1      -2.919  -6.408   0.207  0.00  0.00    -0.220 NA
ATOM     14  C   UNL     1      -2.210  -5.300  -0.001  0.00  0.00    +0.136 A 
ENDROOT
BRANCH   1  16
ATOM     15  C   UNL     1      -0.025   1.314  -1.222  0.00  0.00    +0.277 C 
ATOM     16  O   UNL     1      -0.004  -0.092  -0.969  0.00  0.00    -0.495 OA
ENDBRANCH   1  16
BRANCH  14  17
ATOM     17  N   UNL     1      -0.826  -5.335  -0.000  0.00  0.00    -0.299 N 
ATOM     18  H   UNL     1      -0.320  -4.510  -0.069  0.00  0.00    +0.154 HD
BRANCH  17  19
ATOM     19  C   UNL     1      -0.158  -6.559   0.099  0.00  0.00    +0.033 A 
ATOM     20  C   UNL     1      -0.694  -7.695  -0.495  0.00  0.00    +0.023 A 
ATOM     21  C   UNL     1      -0.031  -8.902  -0.396  0.00  0.00    +0.003 A 
ATOM     22  C   UNL     1       1.165  -8.982   0.294  0.00  0.00    +0.015 A 
ATOM     23  C   UNL     1       1.702  -7.853   0.886  0.00  0.00    +0.020 A 
ATOM     24  C   UNL     1       1.047  -6.640   0.785  0.00  0.00    +0.038 A 
ATOM     25 BR   UNL     1       3.337  -7.968   1.828  0.00  0.00    -0.050 Br
ENDBRANCH  17  19
ENDBRANCH  14  17
TORSDOF 3
