REMARK  Name = CHEMBL578255
REMARK  10 active torsions:
REMARK  status: ('A' for Active; 'I' for Inactive)
REMARK    1  A    between atoms: C_1  and  C_2
REMARK    2  A    between atoms: C_2  and  C_3
REMARK    3  A    between atoms: C_9  and  N_10
REMARK    4  A    between atoms: N_10  and  C_11
REMARK    5  A    between atoms: N_19  and  C_20
REMARK    6  A    between atoms: C_20  and  C_21
REMARK    7  A    between atoms: C_30  and  O_32
REMARK    8  A    between atoms: O_32  and  C_33
REMARK    9  A    between atoms: C_33  and  C_34
REMARK   10  A    between atoms: C_34  and  N_35
REMARK                            x       y       z     vdW  Elec       q    Type
REMARK                         _______ _______ _______ _____ _____    ______ ____
ROOT
ATOM      1  C   UNL     1       0.008   0.835  -0.313  0.00  0.00    +0.003 C 
ATOM      2  C   UNL     1       1.151   0.172  -0.230  0.00  0.00    +0.047 C 
ATOM      3  C   UNL     1       1.310  -0.566  -1.557  0.00  0.00    +0.258 C 
ATOM      4  N   UNL     1       2.695  -0.328  -1.964  0.00  0.00    -0.241 NA
ATOM      5  C   UNL     1       3.605  -0.140  -1.056  0.00  0.00    +0.220 C 
ATOM      6  N   UNL     1       3.422  -0.107   0.265  0.00  0.00    -0.219 NA
ATOM      7  C   UNL     1       2.200   0.053   0.792  0.00  0.00    +0.152 C 
ATOM      8  N   UNL     1       0.304   0.017  -2.431  0.00  0.00    -0.237 NA
ATOM      9  C   UNL     1      -0.474   0.770  -1.704  0.00  0.00    +0.129 C 
ATOM     10  N   UNL     1      -1.600   1.425  -2.179  0.00  0.00    -0.236 N 
ATOM     11  C   UNL     1      -1.958   1.301  -3.472  0.00  0.00    +0.406 C 
ATOM     12  O   UNL     1      -1.292   0.615  -4.223  0.00  0.00    -0.226 OA
ATOM     13  H   UNL     1      -2.131   1.972  -1.579  0.00  0.00    +0.160 HD
ENDROOT
BRANCH   1  15
ATOM     14  C   UNL     1      -0.299   3.014   0.831  0.00  0.00    +0.009 C 
ATOM     15  C   UNL     1      -0.688   1.534   0.827  0.00  0.00    +0.036 C 
ENDBRANCH   1  15
BRANCH   7  16
ATOM     16  N   UNL     1       1.954   0.101   2.142  0.00  0.00    -0.196 NA
BRANCH  16  17
ATOM     17  C   UNL     1       3.018   0.232   3.042  0.00  0.00    +0.056 A 
ATOM     18  C   UNL     1       2.898  -0.276   4.337  0.00  0.00    +0.027 A 
ATOM     19  C   UNL     1       3.923  -0.159   5.230  0.00  0.00    +0.030 A 
ATOM     20  C   UNL     1       5.107   0.473   4.855  0.00  0.00    +0.069 A 
ATOM     21  C   UNL     1       5.239   0.988   3.552  0.00  0.00    +0.022 A 
ATOM     22  C   UNL     1       4.183   0.857   2.643  0.00  0.00    +0.036 A 
ATOM     23  C   UNL     1       6.572   1.577   3.476  0.00  0.00    +0.143 A 
ATOM     24  N   UNL     1       7.147   1.411   4.633  0.00  0.00    -0.178 NA
ATOM     25  N   UNL     1       6.285   0.740   5.506  0.00  0.00    -0.259 N 
BRANCH  25  26
ATOM     26  C   UNL     1       6.590   0.380   6.893  0.00  0.00    +0.179 C 
BRANCH  26  27
ATOM     27  C   UNL     1       7.220  -0.988   6.929  0.00  0.00    -0.026 A 
ATOM     28  C   UNL     1       6.425  -2.112   7.051  0.00  0.00    +0.005 A 
ATOM     29  C   UNL     1       7.002  -3.368   7.084  0.00  0.00    +0.000 A 
ATOM     30  C   UNL     1       8.376  -3.499   6.996  0.00  0.00    +0.000 A 
ATOM     31  C   UNL     1       9.171  -2.375   6.874  0.00  0.00    +0.000 A 
ATOM     32  C   UNL     1       8.593  -1.120   6.836  0.00  0.00    +0.005 A 
ENDBRANCH  26  27
ENDBRANCH  25  26
ENDBRANCH  16  17
ENDBRANCH   7  16
BRANCH  11  33
ATOM     33  O   UNL     1      -3.051   1.936  -3.933  0.00  0.00    -0.449 OA
BRANCH  33  34
ATOM     34  C   UNL     1      -3.371   1.760  -5.314  0.00  0.00    +0.249 C 
BRANCH  34  35
ATOM     35  C   UNL     1      -4.636   2.553  -5.650  0.00  0.00    +0.125 C 
BRANCH  35  36
ATOM     36  N   UNL     1      -4.379   3.987  -5.465  0.00  0.00    -0.295 NA
ATOM     37  C   UNL     1      -5.637   4.734  -5.323  0.00  0.00    +0.112 C 
ATOM     38  C   UNL     1      -5.322   6.211  -5.073  0.00  0.00    +0.175 C 
ATOM     39  O   UNL     1      -4.515   6.709  -6.143  0.00  0.00    -0.377 OA
ATOM     40  C   UNL     1      -3.281   6.005  -6.309  0.00  0.00    +0.175 C 
ATOM     41  C   UNL     1      -3.575   4.526  -6.572  0.00  0.00    +0.112 C 
ENDBRANCH  35  36
ENDBRANCH  34  35
ENDBRANCH  33  34
ENDBRANCH  11  33
TORSDOF 9
