REMARK  Name = CHEMBL247709
REMARK  6 active torsions:
REMARK  status: ('A' for Active; 'I' for Inactive)
REMARK    1  A    between atoms: C_3  and  C_8
REMARK    2  A    between atoms: C_8  and  O_9
REMARK    3  A    between atoms: O_9  and  C_10
REMARK    4  A    between atoms: C_13  and  N_17
REMARK    5  A    between atoms: C_20  and  C_27
REMARK    6  A    between atoms: C_27  and  N_28
REMARK                            x       y       z     vdW  Elec       q    Type
REMARK                         _______ _______ _______ _____ _____    ______ ____
ROOT
ATOM      1  N   UNL     1       8.372   6.009   1.835  0.00  0.00    -0.298 N 
ATOM      2  C   UNL     1       8.791   6.214   3.134  0.00  0.00    +0.151 A 
ATOM      3  C   UNL     1      10.107   6.657   3.400  0.00  0.00    +0.110 A 
ATOM      4  C   UNL     1      11.191   6.970   2.602  0.00  0.00    -0.003 A 
ATOM      5  C   UNL     1      12.226   7.353   3.457  0.00  0.00    +0.027 A 
ATOM      6  C   UNL     1      11.766   7.269   4.733  0.00  0.00    +0.113 A 
ATOM      7  N   UNL     1      10.487   6.850   4.714  0.00  0.00    -0.235 N 
ATOM      8  N   UNL     1       9.546   6.595   5.722  0.00  0.00    -0.155 NA
ATOM      9  C   UNL     1       8.347   6.187   5.409  0.00  0.00    +0.245 A 
ATOM     10  N   UNL     1       7.965   6.003   4.146  0.00  0.00    -0.217 NA
ATOM     11  H   UNL     1       9.011   6.051   1.106  0.00  0.00    +0.154 HD
ENDROOT
BRANCH   1  15
ATOM     12  C   UNL     1       4.357   5.210   1.041  0.00  0.00    +0.139 A 
ATOM     13  C   UNL     1       5.126   5.893   0.110  0.00  0.00    +0.049 A 
ATOM     14  C   UNL     1       6.455   6.158   0.372  0.00  0.00    +0.027 A 
ATOM     15  C   UNL     1       7.024   5.741   1.569  0.00  0.00    +0.034 A 
ATOM     16  C   UNL     1       6.255   5.057   2.501  0.00  0.00    +0.047 A 
ATOM     17  C   UNL     1       4.923   4.797   2.239  0.00  0.00    +0.084 A 
ATOM     18 CL   UNL     1       3.958   3.948   3.407  0.00  0.00    -0.080 Cl
BRANCH  12  19
ATOM     19  O   UNL     1       3.048   4.949   0.781  0.00  0.00    -0.486 OA
BRANCH  19  20
ATOM     20  C   UNL     1       2.532   5.403  -0.471  0.00  0.00    +0.264 C 
BRANCH  20  23
ATOM     21  C   UNL     1      -1.233   5.554  -0.228  0.00  0.00    +0.003 A 
ATOM     22  C   UNL     1       0.102   5.897  -0.128  0.00  0.00    +0.007 A 
ATOM     23  C   UNL     1       1.077   5.028  -0.581  0.00  0.00    -0.008 A 
ATOM     24  C   UNL     1       0.716   3.814  -1.135  0.00  0.00    +0.045 A 
ATOM     25  C   UNL     1      -0.621   3.469  -1.236  0.00  0.00    +0.124 A 
ATOM     26  C   UNL     1      -1.596   4.341  -0.781  0.00  0.00    +0.038 A 
ATOM     27  F   UNL     1      -0.974   2.283  -1.778  0.00  0.00    -0.205 F 
ENDBRANCH  20  23
ENDBRANCH  19  20
ENDBRANCH  12  19
ENDBRANCH   1  15
BRANCH   4  28
ATOM     28  C   UNL     1      11.245   6.909   1.097  0.00  0.00    +0.121 C 
BRANCH  28  29
ATOM     29  N   UNL     1      11.601   5.548   0.675  0.00  0.00    -0.300 NA
ATOM     30  C   UNL     1      13.018   5.247   0.992  0.00  0.00    +0.083 C 
ATOM     31  C   UNL     1      13.174   3.752   1.109  0.00  0.00    -0.004 C 
ATOM     32  C   UNL     1      13.587   3.094  -0.217  0.00  0.00    -0.081 C 
ATOM     33  N   UNL     1      12.863   3.653  -1.381  0.00  0.00    +0.380 N 
ATOM     34  C   UNL     1      11.463   3.872  -1.100  0.00  0.00    -0.067 C 
ATOM     35  C   UNL     1      11.274   5.338  -0.668  0.00  0.00    +0.066 C 
ATOM     36  H   UNL     1      13.287   4.531  -1.639  0.00  0.00    -0.086 HD
ATOM     37  H   UNL     1      12.945   3.012  -2.156  0.00  0.00    -0.086 HD
ENDBRANCH  28  29
ENDBRANCH   4  28
TORSDOF 6
