REMARK  Name = CHEMBL168915
REMARK  9 active torsions:
REMARK  status: ('A' for Active; 'I' for Inactive)
REMARK    1  A    between atoms: C_10  and  O_11
REMARK    2  A    between atoms: O_11  and  C_12
REMARK    3  A    between atoms: C_12  and  C_14
REMARK    4  A    between atoms: C_16  and  N_21
REMARK    5  A    between atoms: C_19  and  O_20
REMARK    6  A    between atoms: N_21  and  C_22
REMARK    7  A    between atoms: C_22  and  C_23
REMARK    8  A    between atoms: C_25  and  O_30
REMARK    9  A    between atoms: C_28  and  O_29
REMARK                            x       y       z     vdW  Elec       q    Type
REMARK                         _______ _______ _______ _____ _____    ______ ____
ROOT
ATOM      1  C   UNL     1       7.273   0.102   0.154  0.00  0.00    +0.102 A 
ATOM      2  C   UNL     1       7.300   1.500   0.169  0.00  0.00    +0.041 A 
ATOM      3  C   UNL     1       8.509   2.164   0.270  0.00  0.00    +0.028 A 
ATOM      4  C   UNL     1       9.697   1.445   0.356  0.00  0.00    +0.026 A 
ATOM      5  C   UNL     1       9.678   0.065   0.342  0.00  0.00    +0.048 A 
ATOM      6  C   UNL     1       8.474  -0.615   0.247  0.00  0.00    +0.131 A 
ENDROOT
BRANCH   1   7
ATOM      7  C   UNL     1       5.989  -0.613   0.046  0.00  0.00    +0.348 C 
ATOM      8  O   UNL     1       5.970  -1.829   0.039  0.00  0.00    -0.244 OA
BRANCH   7   9
ATOM      9  O   UNL     1       4.837   0.080  -0.043  0.00  0.00    -0.422 OA
BRANCH   9  19
ATOM     10  C   UNL     1       1.970  -1.869   3.586  0.00  0.00    +0.001 A 
ATOM     11  C   UNL     1       3.167  -1.156   3.588  0.00  0.00    +0.001 A 
ATOM     12  C   UNL     1       3.736  -0.739   2.424  0.00  0.00    +0.012 A 
ATOM     13  C   UNL     1       3.111  -1.031   1.201  0.00  0.00    +0.025 A 
ATOM     14  C   UNL     1       1.894  -1.756   1.198  0.00  0.00    -0.014 A 
ATOM     15  C   UNL     1       1.335  -2.170   2.420  0.00  0.00    +0.008 A 
ATOM     16  C   UNL     1       1.269  -2.048  -0.026  0.00  0.00    +0.009 A 
ATOM     17  C   UNL     1       1.837  -1.633  -1.192  0.00  0.00    +0.004 A 
ATOM     18  C   UNL     1       3.032  -0.920  -1.194  0.00  0.00    +0.047 A 
ATOM     19  C   UNL     1       3.671  -0.617  -0.025  0.00  0.00    +0.140 A 
ENDBRANCH   9  19
ENDBRANCH   7   9
ENDBRANCH   1   7
BRANCH   6  20
ATOM     20  O   UNL     1       8.457  -1.972   0.239  0.00  0.00    -0.506 OA
ATOM     21  H   UNL     1       8.524  -2.361  -0.644  0.00  0.00    +0.292 HD
ENDBRANCH   6  20
BRANCH   3  22
ATOM     22  N   UNL     1       8.538   3.563   0.285  0.00  0.00    -0.340 N 
ATOM     23  H   UNL     1       7.710   4.066   0.225  0.00  0.00    +0.146 HD
BRANCH  22  24
ATOM     24  C   UNL     1       9.817   4.269   0.392  0.00  0.00    +0.140 C 
BRANCH  24  25
ATOM     25  C   UNL     1       9.573   5.756   0.387  0.00  0.00    +0.014 A 
ATOM     26  C   UNL     1       9.752   6.481  -0.775  0.00  0.00    +0.054 A 
ATOM     27  C   UNL     1       9.527   7.849  -0.781  0.00  0.00    +0.117 A 
ATOM     28  C   UNL     1       9.122   8.490   0.381  0.00  0.00    +0.049 A 
ATOM     29  C   UNL     1       8.943   7.765   1.543  0.00  0.00    +0.049 A 
ATOM     30  C   UNL     1       9.163   6.396   1.547  0.00  0.00    +0.122 A 
BRANCH  30  31
ATOM     31  O   UNL     1       8.981   5.681   2.689  0.00  0.00    -0.506 OA
ATOM     32  H   UNL     1       9.772   5.614   3.241  0.00  0.00    +0.292 HD
ENDBRANCH  30  31
BRANCH  27  33
ATOM     33  O   UNL     1       9.704   8.563  -1.925  0.00  0.00    -0.507 OA
ATOM     34  H   UNL     1       8.911   8.630  -2.473  0.00  0.00    +0.292 HD
ENDBRANCH  27  33
ENDBRANCH  24  25
ENDBRANCH  22  24
ENDBRANCH   3  22
TORSDOF 9
