REMARK  Name = CHEMBL204085
REMARK  6 active torsions:
REMARK  status: ('A' for Active; 'I' for Inactive)
REMARK    1  A    between atoms: C_6  and  N_7
REMARK    2  A    between atoms: C_8  and  C_10
REMARK    3  A    between atoms: C_11  and  C_12
REMARK    4  A    between atoms: C_12  and  C_13
REMARK    5  A    between atoms: C_13  and  N_14
REMARK    6  A    between atoms: N_24  and  C_25
REMARK                            x       y       z     vdW  Elec       q    Type
REMARK                         _______ _______ _______ _____ _____    ______ ____
ROOT
ATOM      1  C   UNL     1      -0.476   0.375   0.523  0.00  0.00    +0.025 A 
ATOM      2  C   UNL     1       0.172   1.568   0.626  0.00  0.00    +0.030 A 
ATOM      3  C   UNL     1       1.442   1.723   0.055  0.00  0.00    +0.076 A 
ATOM      4  C   UNL     1       2.039   0.632  -0.624  0.00  0.00    +0.042 A 
ATOM      5  C   UNL     1       1.357  -0.585  -0.718  0.00  0.00    +0.036 A 
ATOM      6  C   UNL     1       0.107  -0.705  -0.145  0.00  0.00    +0.035 A 
ATOM      7  C   UNL     1       3.325   0.819  -1.191  0.00  0.00    +0.134 A 
ATOM      8  N   UNL     1       3.902   2.005  -1.056  0.00  0.00    -0.220 NA
ATOM      9  C   UNL     1       3.305   2.996  -0.412  0.00  0.00    +0.223 A 
ATOM     10  N   UNL     1       2.117   2.880   0.132  0.00  0.00    -0.235 NA
ATOM     11  N   UNL     1       3.958  -0.205  -1.864  0.00  0.00    -0.299 N 
ATOM     12  H   UNL     1       3.492  -1.040  -2.027  0.00  0.00    +0.154 HD
ENDROOT
BRANCH  11  13
ATOM     13  C   UNL     1       5.273  -0.040  -2.312  0.00  0.00    +0.034 A 
ATOM     14  C   UNL     1       5.691  -0.656  -3.484  0.00  0.00    +0.026 A 
ATOM     15  C   UNL     1       6.990  -0.492  -3.925  0.00  0.00    +0.041 A 
ATOM     16  C   UNL     1       7.875   0.287  -3.199  0.00  0.00    +0.142 A 
ATOM     17  C   UNL     1       7.461   0.903  -2.029  0.00  0.00    +0.078 A 
ATOM     18  C   UNL     1       6.160   0.746  -1.588  0.00  0.00    +0.046 A 
ATOM     19 CL   UNL     1       8.573   1.878  -1.121  0.00  0.00    -0.081 Cl
ATOM     20  F   UNL     1       9.145   0.446  -3.632  0.00  0.00    -0.204 F 
ENDBRANCH  11  13
BRANCH   6  21
ATOM     21  N   UNL     1      -0.582  -1.919  -0.235  0.00  0.00    -0.275 N 
ATOM     22  C   UNL     1      -1.926  -1.926  -0.331  0.00  0.00    +0.293 C 
ATOM     23  O   UNL     1      -2.534  -0.877  -0.429  0.00  0.00    -0.260 OA
ATOM     24  H   UNL     1      -0.092  -2.757  -0.228  0.00  0.00    +0.156 HD
BRANCH  22  25
ATOM     25  C   UNL     1      -2.639  -3.168  -0.316  0.00  0.00    -0.008 C 
ATOM     26  C   UNL     1      -3.224  -4.186  -0.304  0.00  0.00    -0.094 C 
BRANCH  26  27
ATOM     27  C   UNL     1      -3.956  -5.462  -0.289  0.00  0.00    +0.071 C 
BRANCH  27  28
ATOM     28  C   UNL     1      -5.457  -5.190  -0.411  0.00  0.00    -0.066 C 
BRANCH  28  29
ATOM     29  N   UNL     1      -6.189  -6.464  -0.396  0.00  0.00    +0.383 N 
ATOM     30  C   UNL     1      -5.838  -7.244  -1.591  0.00  0.00    -0.050 C 
ATOM     31  C   UNL     1      -6.601  -8.571  -1.573  0.00  0.00    +0.141 C 
ATOM     32  O   UNL     1      -8.005  -8.307  -1.512  0.00  0.00    -0.383 OA
ATOM     33  C   UNL     1      -8.393  -7.528  -0.377  0.00  0.00    +0.141 C 
ATOM     34  C   UNL     1      -7.634  -6.199  -0.392  0.00  0.00    -0.050 C 
ATOM     35  H   UNL     1      -5.940  -6.985   0.431  0.00  0.00    -0.082 HD
ENDBRANCH  28  29
ENDBRANCH  27  28
ENDBRANCH  26  27
ENDBRANCH  22  25
ENDBRANCH   6  21
TORSDOF 6
