REMARK  Name = CHEMBL329867
REMARK  5 active torsions:
REMARK  status: ('A' for Active; 'I' for Inactive)
REMARK    1  A    between atoms: C_1  and  O_2
REMARK    2  A    between atoms: O_2  and  C_3
REMARK    3  A    between atoms: C_8  and  O_9
REMARK    4  A    between atoms: O_9  and  C_10
REMARK    5  A    between atoms: N_15  and  C_16
REMARK                            x       y       z     vdW  Elec       q    Type
REMARK                         _______ _______ _______ _____ _____    ______ ____
ROOT
ATOM      1  C   UNL     1      -1.200  -0.635  -0.054  0.00  0.00    +0.162 A 
ATOM      2  C   UNL     1      -2.352   0.100  -0.024  0.00  0.00    +0.062 A 
ATOM      3  C   UNL     1      -3.590  -0.552  -0.004  0.00  0.00    +0.044 A 
ATOM      4  C   UNL     1      -3.643  -1.968  -0.015  0.00  0.00    +0.080 A 
ATOM      5  C   UNL     1      -2.450  -2.702  -0.046  0.00  0.00    +0.078 A 
ATOM      6  C   UNL     1      -1.245  -2.036  -0.071  0.00  0.00    +0.164 A 
ATOM      7  N   UNL     1      -4.843  -2.569   0.004  0.00  0.00    -0.235 NA
ATOM      8  C   UNL     1      -5.943  -1.855   0.032  0.00  0.00    +0.223 A 
ATOM      9  N   UNL     1      -5.943  -0.532   0.043  0.00  0.00    -0.220 NA
ATOM     10  C   UNL     1      -4.812   0.161   0.027  0.00  0.00    +0.134 A 
ATOM     11  N   UNL     1      -4.826   1.541   0.039  0.00  0.00    -0.297 N 
ATOM     12  H   UNL     1      -3.994   2.034   0.115  0.00  0.00    +0.154 HD
ENDROOT
BRANCH  11  13
ATOM     13  C   UNL     1      -6.037   2.227  -0.057  0.00  0.00    +0.059 A 
ATOM     14  C   UNL     1      -7.136   1.640  -0.649  0.00  0.00    +0.134 A 
ATOM     15  N   UNL     1      -8.293   2.277  -0.749  0.00  0.00    -0.261 NA
ATOM     16  C   UNL     1      -8.477   3.495  -0.297  0.00  0.00    +0.119 A 
ATOM     17  C   UNL     1      -7.424   4.185   0.324  0.00  0.00    +0.002 A 
ATOM     18  C   UNL     1      -6.169   3.537   0.456  0.00  0.00    +0.006 A 
ATOM     19  C   UNL     1      -5.106   4.205   1.077  0.00  0.00    +0.010 A 
ATOM     20  C   UNL     1      -5.294   5.469   1.551  0.00  0.00    +0.001 A 
ATOM     21  C   UNL     1      -6.528   6.106   1.428  0.00  0.00    +0.001 A 
ATOM     22  C   UNL     1      -7.579   5.489   0.819  0.00  0.00    +0.010 A 
ENDBRANCH  11  13
BRANCH   1  24
ATOM     23  C   UNL     1      -0.018   1.429  -0.055  0.00  0.00    +0.277 C 
ATOM     24  O   UNL     1       0.002  -0.000  -0.074  0.00  0.00    -0.491 OA
ENDBRANCH   1  24
BRANCH   6  25
ATOM     25  O   UNL     1      -0.086  -2.744  -0.107  0.00  0.00    -0.491 OA
ATOM     26  C   UNL     1      -0.198  -4.169  -0.123  0.00  0.00    +0.277 C 
ENDBRANCH   6  25
TORSDOF 3
