REMARK  Name = CHEMBL204268
REMARK  5 active torsions:
REMARK  status: ('A' for Active; 'I' for Inactive)
REMARK    1  A    between atoms: C_1  and  O_2
REMARK    2  A    between atoms: O_2  and  C_3
REMARK    3  A    between atoms: C_7  and  O_9
REMARK    4  A    between atoms: O_9  and  C_10
REMARK    5  A    between atoms: N_19  and  C_20
REMARK                            x       y       z     vdW  Elec       q    Type
REMARK                         _______ _______ _______ _____ _____    ______ ____
ROOT
ATOM      1  C   UNL     1      -1.111  -1.086  -1.111  0.00  0.00    +0.126 A 
ATOM      2  C   UNL     1      -2.252  -0.340  -1.330  0.00  0.00    +0.074 A 
ATOM      3  C   UNL     1      -3.505  -0.887  -1.035  0.00  0.00    +0.083 A 
ATOM      4  C   UNL     1      -3.587  -2.203  -0.514  0.00  0.00    +0.082 A 
ATOM      5  C   UNL     1      -2.413  -2.944  -0.299  0.00  0.00    +0.137 A 
ATOM      6  C   UNL     1      -1.191  -2.383  -0.604  0.00  0.00    +0.092 A 
ATOM      7  C   UNL     1      -4.866  -2.728  -0.226  0.00  0.00    +0.137 A 
ATOM      8  N   UNL     1      -5.926  -1.963  -0.458  0.00  0.00    -0.220 NA
ATOM      9  C   UNL     1      -5.802  -0.739  -0.945  0.00  0.00    +0.223 A 
ATOM     10  N   UNL     1      -4.641  -0.200  -1.231  0.00  0.00    -0.235 NA
ATOM     11  N   UNL     1      -5.011  -4.003   0.282  0.00  0.00    -0.299 N 
ATOM     12  H   UNL     1      -4.233  -4.491   0.595  0.00  0.00    +0.154 HD
ENDROOT
BRANCH  11  13
ATOM     13  C   UNL     1      -6.278  -4.591   0.347  0.00  0.00    +0.034 A 
ATOM     14  C   UNL     1      -7.412  -3.792   0.422  0.00  0.00    +0.026 A 
ATOM     15  C   UNL     1      -8.663  -4.374   0.486  0.00  0.00    +0.041 A 
ATOM     16  C   UNL     1      -8.788  -5.753   0.475  0.00  0.00    +0.142 A 
ATOM     17  C   UNL     1      -7.658  -6.552   0.401  0.00  0.00    +0.078 A 
ATOM     18  C   UNL     1      -6.405  -5.973   0.330  0.00  0.00    +0.046 A 
ATOM     19 CL   UNL     1      -7.818  -8.281   0.388  0.00  0.00    -0.081 Cl
ATOM     20  F   UNL     1     -10.012  -6.320   0.538  0.00  0.00    -0.204 F 
ENDBRANCH  11  13
BRANCH   1  22
ATOM     21  C   UNL     1       0.121   0.780  -1.915  0.00  0.00    +0.277 C 
ATOM     22  O   UNL     1       0.104  -0.552  -1.399  0.00  0.00    -0.495 OA
ENDBRANCH   1  22
BRANCH   5  23
ATOM     23  O   UNL     1      -2.481  -4.204   0.200  0.00  0.00    -0.486 OA
BRANCH  23  24
ATOM     24  C   UNL     1      -1.248  -4.910   0.350  0.00  0.00    +0.201 C 
ATOM     25  C   UNL     1      -1.426  -6.141   1.280  0.00  0.00    +0.075 C 
ATOM     26  C   UNL     1      -0.318  -7.080   0.741  0.00  0.00    +0.163 C 
ATOM     27  O   UNL     1      -0.301  -6.864  -0.679  0.00  0.00    -0.376 OA
ATOM     28  C   UNL     1      -0.824  -5.565  -0.982  0.00  0.00    +0.204 C 
ENDBRANCH  23  24
ENDBRANCH   5  23
TORSDOF 4
