REMARK  Name = CHEMBL203599
REMARK  6 active torsions:
REMARK  status: ('A' for Active; 'I' for Inactive)
REMARK    1  A    between atoms: C_1  and  N_2
REMARK    2  A    between atoms: N_5  and  C_8
REMARK    3  A    between atoms: C_8  and  C_9
REMARK    4  A    between atoms: C_9  and  C_10
REMARK    5  A    between atoms: C_11  and  C_12
REMARK    6  A    between atoms: N_25  and  C_26
REMARK                            x       y       z     vdW  Elec       q    Type
REMARK                         _______ _______ _______ _____ _____    ______ ____
ROOT
ATOM      1  C   UNL     1      -0.199  -8.609   2.729  0.00  0.00    +0.294 C 
ATOM      2  O   UNL     1       0.328  -9.186   3.662  0.00  0.00    -0.260 OA
ATOM      3  N   UNL     1      -0.661  -9.312   1.676  0.00  0.00    -0.260 N 
ATOM      4  C   UNL     1      -0.443 -10.688   1.606  0.00  0.00    +0.126 A 
ATOM      5  C   UNL     1      -0.824 -11.377   0.468  0.00  0.00    +0.057 A 
ATOM      6  C   UNL     1      -0.596 -12.753   0.419  0.00  0.00    +0.045 A 
ATOM      7  C   UNL     1       0.015 -13.385   1.532  0.00  0.00    +0.094 A 
ATOM      8  C   UNL     1       0.366 -12.601   2.639  0.00  0.00    +0.141 A 
ATOM      9  N   UNL     1       0.133 -11.308   2.630  0.00  0.00    -0.238 NA
ATOM     10  N   UNL     1       0.232 -14.706   1.479  0.00  0.00    -0.234 NA
ATOM     11  C   UNL     1      -0.112 -15.402   0.424  0.00  0.00    +0.224 A 
ATOM     12  N   UNL     1      -0.684 -14.881  -0.650  0.00  0.00    -0.220 NA
ATOM     13  C   UNL     1      -0.955 -13.583  -0.727  0.00  0.00    +0.134 A 
ATOM     14  N   UNL     1      -1.553 -13.041  -1.846  0.00  0.00    -0.299 N 
ATOM     15  H   UNL     1      -1.145  -8.861   0.967  0.00  0.00    +0.157 HD
ATOM     16  H   UNL     1      -1.673 -12.081  -1.915  0.00  0.00    +0.154 HD
ENDROOT
BRANCH  14  17
ATOM     17  C   UNL     1      -1.986 -13.876  -2.882  0.00  0.00    +0.034 A 
ATOM     18  C   UNL     1      -2.449 -15.154  -2.597  0.00  0.00    +0.026 A 
ATOM     19  C   UNL     1      -2.877 -15.976  -3.621  0.00  0.00    +0.041 A 
ATOM     20  C   UNL     1      -2.844 -15.528  -4.930  0.00  0.00    +0.142 A 
ATOM     21  C   UNL     1      -2.381 -14.254  -5.217  0.00  0.00    +0.078 A 
ATOM     22  C   UNL     1      -1.958 -13.426  -4.195  0.00  0.00    +0.046 A 
ATOM     23 CL   UNL     1      -2.340 -13.696  -6.861  0.00  0.00    -0.081 Cl
ATOM     24  F   UNL     1      -3.262 -16.335  -5.930  0.00  0.00    -0.204 F 
ENDBRANCH  14  17
BRANCH   1  26
ATOM     25  C   UNL     1      -0.435  -6.014   2.769  0.00  0.00    -0.091 C 
ATOM     26  C   UNL     1      -0.329  -7.183   2.751  0.00  0.00    -0.008 C 
BRANCH  25  27
ATOM     27  C   UNL     1      -0.568  -4.548   2.792  0.00  0.00    +0.104 C 
BRANCH  27  28
ATOM     28  C   UNL     1      -1.261  -4.079   1.511  0.00  0.00    +0.097 C 
BRANCH  28  33
ATOM     29  C   UNL     1      -1.256   1.467   0.517  0.00  0.00    -0.096 C 
ATOM     30  N   UNL     1      -1.099   0.008   0.445  0.00  0.00    +0.379 N 
ATOM     31  C   UNL     1      -2.419  -0.631   0.535  0.00  0.00    -0.064 C 
ATOM     32  C   UNL     1      -2.259  -2.150   0.441  0.00  0.00    +0.066 C 
ATOM     33  N   UNL     1      -1.394  -2.617   1.533  0.00  0.00    -0.305 NA
ATOM     34  C   UNL     1      -0.077  -1.967   1.470  0.00  0.00    +0.066 C 
ATOM     35  C   UNL     1      -0.255  -0.450   1.556  0.00  0.00    -0.064 C 
ATOM     36  H   UNL     1      -0.665  -0.241  -0.432  0.00  0.00    -0.082 HD
ENDBRANCH  28  33
ENDBRANCH  27  28
ENDBRANCH  25  27
ENDBRANCH   1  26
TORSDOF 5
