REMARK  Name = CHEMBL542891
REMARK  11 active torsions:
REMARK  status: ('A' for Active; 'I' for Inactive)
REMARK    1  A    between atoms: C_1  and  C_2
REMARK    2  A    between atoms: C_2  and  O_3
REMARK    3  A    between atoms: O_3  and  C_4
REMARK    4  A    between atoms: C_4  and  C_6
REMARK    5  A    between atoms: N_9  and  C_12
REMARK    6  A    between atoms: C_12  and  C_13
REMARK    7  A    between atoms: C_13  and  C_14
REMARK    8  A    between atoms: C_14  and  C_16
REMARK    9  A    between atoms: C_19  and  O_22
REMARK   10  A    between atoms: O_22  and  C_23
REMARK   11  A    between atoms: C_23  and  C_24
REMARK                            x       y       z     vdW  Elec       q    Type
REMARK                         _______ _______ _______ _____ _____    ______ ____
ROOT
ATOM      1  C   UNL     1       2.279  -6.734  -7.342  0.00  0.00    +0.161 C 
ATOM      2  O   UNL     1       2.791  -6.032  -8.188  0.00  0.00    -0.292 OA
ENDROOT
BRANCH   1   3
ATOM      3  C   UNL     1       2.223  -8.190  -7.532  0.00  0.00    +0.018 A 
ATOM      4  C   UNL     1       1.627  -9.002  -6.560  0.00  0.00    +0.015 A 
ATOM      5  C   UNL     1       1.576 -10.360  -6.742  0.00  0.00    +0.046 A 
ATOM      6  C   UNL     1       2.117 -10.931  -7.890  0.00  0.00    +0.121 A 
ATOM      7  C   UNL     1       2.710 -10.128  -8.858  0.00  0.00    +0.046 A 
ATOM      8  C   UNL     1       2.760  -8.768  -8.688  0.00  0.00    +0.015 A 
BRANCH   6   9
ATOM      9  O   UNL     1       2.065 -12.275  -8.065  0.00  0.00    -0.487 OA
BRANCH   9  10
ATOM     10  C   UNL     1       2.639 -12.796  -9.266  0.00  0.00    +0.264 C 
BRANCH  10  11
ATOM     11  C   UNL     1       2.489 -14.295  -9.286  0.00  0.00    -0.010 A 
ATOM     12  C   UNL     1       3.473 -15.095  -8.737  0.00  0.00    +0.007 A 
ATOM     13  C   UNL     1       3.336 -16.471  -8.755  0.00  0.00    +0.000 A 
ATOM     14  C   UNL     1       2.213 -17.046  -9.322  0.00  0.00    +0.000 A 
ATOM     15  C   UNL     1       1.229 -16.245  -9.870  0.00  0.00    +0.000 A 
ATOM     16  C   UNL     1       1.364 -14.870  -9.848  0.00  0.00    +0.007 A 
ENDBRANCH  10  11
ENDBRANCH   9  10
ENDBRANCH   6   9
ENDBRANCH   1   3
BRANCH   1  17
ATOM     17  C   UNL     1       1.700  -6.114  -6.097  0.00  0.00    +0.061 C 
BRANCH  17  18
ATOM     18  C   UNL     1       1.887  -4.596  -6.149  0.00  0.00    -0.071 C 
BRANCH  18  22
ATOM     19  C   UNL     1       1.468  -2.353  -2.550  0.00  0.00    +0.094 C 
ATOM     20  C   UNL     1       0.736  -1.893  -3.814  0.00  0.00    -0.004 C 
ATOM     21  C   UNL     1       1.396  -2.529  -5.039  0.00  0.00    -0.078 C 
ATOM     22  N   UNL     1       1.323  -3.992  -4.935  0.00  0.00    +0.380 N 
ATOM     23  C   UNL     1       2.084  -4.446  -3.764  0.00  0.00    -0.078 C 
ATOM     24  C   UNL     1       1.450  -3.884  -2.490  0.00  0.00    -0.004 C 
ATOM     25  H   UNL     1       0.359  -4.273  -4.838  0.00  0.00    -0.082 HD
BRANCH  19  26
ATOM     26  C   UNL     1       0.775  -1.794  -1.334  0.00  0.00    +0.310 C 
ATOM     27  O   UNL     1       0.314  -2.540  -0.504  0.00  0.00    -0.251 OA
BRANCH  26  28
ATOM     28  O   UNL     1       0.671  -0.465  -1.174  0.00  0.00    -0.465 OA
BRANCH  28  30
ATOM     29  C   UNL     1      -0.019   1.526   0.010  0.00  0.00    +0.048 C 
ATOM     30  C   UNL     1       0.002  -0.004   0.002  0.00  0.00    +0.229 C 
ENDBRANCH  28  30
ENDBRANCH  26  28
ENDBRANCH  19  26
ENDBRANCH  18  22
ENDBRANCH  17  18
ENDBRANCH   1  17
TORSDOF 10
