REMARK  Name = CHEMBL51028
REMARK  7 active torsions:
REMARK  status: ('A' for Active; 'I' for Inactive)
REMARK    1  A    between atoms: C_1  and  N_2
REMARK    2  A    between atoms: N_5  and  C_8
REMARK    3  A    between atoms: C_8  and  C_9
REMARK    4  A    between atoms: C_9  and  C_10
REMARK    5  A    between atoms: C_10  and  N_11
REMARK    6  A    between atoms: C_17  and  C_32
REMARK    7  A    between atoms: N_25  and  C_26
REMARK                            x       y       z     vdW  Elec       q    Type
REMARK                         _______ _______ _______ _____ _____    ______ ____
ROOT
ATOM      1  N   UNL     1       0.659  -6.640   3.486  0.00  0.00    -0.313 N 
ATOM      2  C   UNL     1       0.806  -8.003   3.666  0.00  0.00    +0.217 A 
ATOM      3  N   UNL     1       0.423  -8.821   2.688  0.00  0.00    -0.222 NA
ATOM      4  C   UNL     1       0.538 -10.128   2.802  0.00  0.00    +0.126 A 
ATOM      5  C   UNL     1       1.079 -10.653   3.989  0.00  0.00    +0.038 A 
ATOM      6  C   UNL     1       1.235 -12.035   4.186  0.00  0.00    +0.025 A 
ATOM      7  C   UNL     1       1.778 -12.462   5.387  0.00  0.00    +0.026 A 
ATOM      8  C   UNL     1       2.151 -11.508   6.358  0.00  0.00    +0.136 A 
ATOM      9  N   UNL     1       1.995 -10.217   6.150  0.00  0.00    -0.212 NA
ATOM     10  C   UNL     1       1.478  -9.752   5.011  0.00  0.00    +0.167 A 
ATOM     11  N   UNL     1       1.325  -8.439   4.798  0.00  0.00    -0.195 NA
ATOM     12  N   UNL     1       2.695 -11.941   7.559  0.00  0.00    -0.254 N 
ATOM     13  C   UNL     1       3.056 -11.043   8.497  0.00  0.00    +0.305 C 
ATOM     14  O   UNL     1       2.906  -9.854   8.291  0.00  0.00    -0.252 OA
ATOM     15  N   UNL     1       3.584 -11.463   9.664  0.00  0.00    -0.296 N 
ATOM     16  H   UNL     1       0.936  -6.026   4.185  0.00  0.00    +0.149 HD
ATOM     17  H   UNL     1       2.814 -12.889   7.724  0.00  0.00    +0.158 HD
ATOM     18  H   UNL     1       3.704 -12.411   9.829  0.00  0.00    +0.151 HD
ENDROOT
BRANCH   7  19
ATOM     19  C   UNL     1       1.965 -13.909   5.650  0.00  0.00    +0.022 A 
ATOM     20  C   UNL     1       0.946 -14.650   6.249  0.00  0.00    +0.050 A 
ATOM     21  C   UNL     1       1.126 -15.998   6.490  0.00  0.00    +0.021 A 
ATOM     22  C   UNL     1       2.314 -16.613   6.140  0.00  0.00    +0.003 A 
ATOM     23  C   UNL     1       3.329 -15.884   5.546  0.00  0.00    +0.021 A 
ATOM     24  C   UNL     1       3.159 -14.537   5.294  0.00  0.00    +0.050 A 
ATOM     25 CL   UNL     1       4.431 -13.626   4.543  0.00  0.00    -0.083 Cl
ATOM     26 CL   UNL     1      -0.545 -13.879   6.690  0.00  0.00    -0.083 Cl
ENDBRANCH   7  19
BRANCH  15  27
ATOM     27  C   UNL     1       3.977 -10.486  10.684  0.00  0.00    +0.074 C 
ATOM     28  C   UNL     1       2.759 -10.120  11.535  0.00  0.00    +0.022 C 
ATOM     29  C   UNL     1       3.170  -9.101  12.600  0.00  0.00    +0.002 C 
ATOM     30  C   UNL     1       4.254  -9.706  13.494  0.00  0.00    +0.000 C 
ATOM     31  C   UNL     1       5.471 -10.072  12.643  0.00  0.00    +0.002 C 
ATOM     32  C   UNL     1       5.061 -11.091  11.578  0.00  0.00    +0.022 C 
ENDBRANCH  15  27
BRANCH   1  33
ATOM     33  C   UNL     1       0.087  -6.124   2.241  0.00  0.00    +0.102 C 
BRANCH  33  34
ATOM     34  C   UNL     1       0.036  -4.596   2.298  0.00  0.00    +0.000 C 
BRANCH  34  35
ATOM     35  C   UNL     1      -0.562  -4.056   0.998  0.00  0.00    -0.077 C 
BRANCH  35  40
ATOM     36  C   UNL     1      -0.018   1.465   0.010  0.00  0.00    +0.104 C 
ATOM     37  N   UNL     1       0.002  -0.004   0.002  0.00  0.00    -0.309 NA
ATOM     38  C   UNL     1      -1.361  -0.549  -0.076  0.00  0.00    +0.065 C 
ATOM     39  C   UNL     1      -1.293  -2.076  -0.143  0.00  0.00    -0.063 C 
ATOM     40  N   UNL     1      -0.611  -2.589   1.053  0.00  0.00    +0.381 N 
ATOM     41  C   UNL     1       0.757  -2.055   1.104  0.00  0.00    -0.063 C 
ATOM     42  C   UNL     1       0.707  -0.528   1.181  0.00  0.00    +0.065 C 
ATOM     43  H   UNL     1      -1.115  -2.300   1.878  0.00  0.00    -0.082 HD
ENDBRANCH  35  40
ENDBRANCH  34  35
ENDBRANCH  33  34
ENDBRANCH   1  33
TORSDOF 6
