REMARK  Name = CHEMBL25579
REMARK  9 active torsions:
REMARK  status: ('A' for Active; 'I' for Inactive)
REMARK    1  A    between atoms: C_1  and  N_2
REMARK    2  A    between atoms: N_2  and  C_3
REMARK    3  A    between atoms: N_2  and  C_27
REMARK    4  A    between atoms: C_3  and  C_4
REMARK    5  A    between atoms: C_4  and  O_5
REMARK    6  A    between atoms: O_5  and  C_6
REMARK    7  A    between atoms: C_11  and  O_12
REMARK    8  A    between atoms: O_12  and  C_13
REMARK    9  A    between atoms: N_18  and  C_19
REMARK                            x       y       z     vdW  Elec       q    Type
REMARK                         _______ _______ _______ _____ _____    ______ ____
ROOT
ATOM      1  C   UNL     1      -3.768  -1.474   0.399  0.00  0.00    +0.164 A 
ATOM      2  C   UNL     1      -4.428  -0.914   1.471  0.00  0.00    +0.078 A 
ATOM      3  C   UNL     1      -5.654  -1.450   1.882  0.00  0.00    +0.080 A 
ATOM      4  C   UNL     1      -6.197  -2.559   1.188  0.00  0.00    +0.044 A 
ATOM      5  C   UNL     1      -5.507  -3.110   0.102  0.00  0.00    +0.062 A 
ATOM      6  C   UNL     1      -4.314  -2.568  -0.286  0.00  0.00    +0.162 A 
ATOM      7  C   UNL     1      -7.439  -3.078   1.626  0.00  0.00    +0.134 A 
ATOM      8  N   UNL     1      -8.030  -2.499   2.663  0.00  0.00    -0.220 NA
ATOM      9  C   UNL     1      -7.485  -1.464   3.281  0.00  0.00    +0.223 A 
ATOM     10  N   UNL     1      -6.337  -0.941   2.919  0.00  0.00    -0.235 NA
ATOM     11  N   UNL     1      -8.020  -4.157   0.991  0.00  0.00    -0.297 N 
ATOM     12  H   UNL     1      -7.535  -4.630   0.296  0.00  0.00    +0.154 HD
ENDROOT
BRANCH  11  13
ATOM     13  C   UNL     1      -9.308  -4.570   1.350  0.00  0.00    +0.068 A 
ATOM     14  C   UNL     1     -10.151  -3.705   2.034  0.00  0.00    +0.027 A 
ATOM     15  C   UNL     1     -11.422  -4.114   2.387  0.00  0.00    +0.022 A 
ATOM     16  C   UNL     1     -11.857  -5.386   2.059  0.00  0.00    +0.044 A 
ATOM     17  C   UNL     1     -11.021  -6.252   1.377  0.00  0.00    +0.060 A 
ATOM     18  C   UNL     1      -9.749  -5.846   1.016  0.00  0.00    +0.146 A 
ATOM     19  F   UNL     1      -8.934  -6.690   0.345  0.00  0.00    -0.203 F 
ATOM     20 CL   UNL     1     -13.455  -5.897   2.505  0.00  0.00    -0.083 Cl
ENDBRANCH  11  13
BRANCH   6  21
ATOM     21  O   UNL     1      -3.646  -3.100  -1.344  0.00  0.00    -0.491 OA
ATOM     22  C   UNL     1      -4.254  -4.214  -2.001  0.00  0.00    +0.277 C 
ENDBRANCH   6  21
BRANCH   1  23
ATOM     23  O   UNL     1      -2.577  -0.956  -0.002  0.00  0.00    -0.487 OA
BRANCH  23  24
ATOM     24  C   UNL     1      -2.073   0.159   0.736  0.00  0.00    +0.248 C 
BRANCH  24  25
ATOM     25  C   UNL     1      -0.734   0.600   0.142  0.00  0.00    +0.145 C 
BRANCH  25  27
ATOM     26  C   UNL     1      -1.233   2.519  -1.442  0.00  0.00    +0.129 C 
ATOM     27  N   UNL     1      -0.945   1.100  -1.219  0.00  0.00    -0.330 N 
BRANCH  27  28
ATOM     28  C   UNL     1      -0.871   0.227  -2.300  0.00  0.00    +0.032 A 
ATOM     29  C   UNL     1      -0.604  -1.129  -2.108  0.00  0.00    +0.040 A 
ATOM     30  C   UNL     1      -0.540  -1.961  -3.205  0.00  0.00    +0.084 A 
ATOM     31  N   UNL     1      -0.728  -1.490  -4.424  0.00  0.00    -0.367 N 
ATOM     32  C   UNL     1      -0.983  -0.214  -4.647  0.00  0.00    +0.084 A 
ATOM     33  C   UNL     1      -1.069   0.683  -3.603  0.00  0.00    +0.040 A 
ATOM     34  H   UNL     1      -0.677  -2.099  -5.177  0.00  0.00    +0.165 HD
ENDBRANCH  27  28
ENDBRANCH  25  27
ENDBRANCH  24  25
ENDBRANCH  23  24
ENDBRANCH   1  23
TORSDOF 7
