REMARK  Name = CHEMBL473944
REMARK  9 active torsions:
REMARK  status: ('A' for Active; 'I' for Inactive)
REMARK    1  A    between atoms: C_2  and  C_3
REMARK    2  A    between atoms: N_5  and  C_6
REMARK    3  A    between atoms: C_11  and  O_12
REMARK    4  A    between atoms: O_12  and  C_13
REMARK    5  A    between atoms: C_13  and  C_14
REMARK    6  A    between atoms: C_14  and  C_15
REMARK    7  A    between atoms: C_15  and  N_16
REMARK    8  A    between atoms: C_24  and  C_25
REMARK    9  A    between atoms: C_25  and  C_26
REMARK                            x       y       z     vdW  Elec       q    Type
REMARK                         _______ _______ _______ _____ _____    ______ ____
ROOT
ATOM      1  C   UNL     1      -2.413  -2.865   0.100  0.00  0.00    +0.077 A 
ATOM      2  C   UNL     1      -3.628  -2.239   0.103  0.00  0.00    +0.038 A 
ATOM      3  C   UNL     1      -4.799  -3.005   0.201  0.00  0.00    +0.024 A 
ATOM      4  C   UNL     1      -4.711  -4.419   0.295  0.00  0.00    +0.078 A 
ATOM      5  C   UNL     1      -3.451  -5.033   0.290  0.00  0.00    +0.076 A 
ATOM      6  C   UNL     1      -2.326  -4.265   0.189  0.00  0.00    +0.144 A 
ATOM      7  N   UNL     1      -5.843  -5.129   0.387  0.00  0.00    -0.235 NA
ATOM      8  C   UNL     1      -7.005  -4.521   0.389  0.00  0.00    +0.222 A 
ATOM      9  N   UNL     1      -7.128  -3.205   0.302  0.00  0.00    -0.239 NA
ATOM     10  C   UNL     1      -6.075  -2.417   0.208  0.00  0.00    +0.057 A 
ENDROOT
BRANCH   1  13
ATOM     11  C   UNL     1      -1.178  -0.891   0.586  0.00  0.00    +0.241 C 
ATOM     12  O   UNL     1      -2.162  -0.422   1.125  0.00  0.00    -0.271 OA
ATOM     13  N   UNL     1      -1.243  -2.104   0.003  0.00  0.00    -0.279 N 
ATOM     14  H   UNL     1      -0.479  -2.450  -0.485  0.00  0.00    +0.155 HD
BRANCH  11  16
ATOM     15  C   UNL     1       0.147   1.064   1.144  0.00  0.00    +0.013 C 
ATOM     16  C   UNL     1       0.083  -0.134   0.569  0.00  0.00    +0.060 C 
ENDBRANCH  11  16
ENDBRANCH   1  13
BRANCH   6  17
ATOM     17  O   UNL     1      -1.106  -4.862   0.178  0.00  0.00    -0.490 OA
BRANCH  17  18
ATOM     18  C   UNL     1      -1.081  -6.287   0.271  0.00  0.00    +0.231 C 
BRANCH  18  19
ATOM     19  C   UNL     1       0.370  -6.775   0.244  0.00  0.00    +0.062 C 
BRANCH  19  20
ATOM     20  C   UNL     1       0.397  -8.301   0.343  0.00  0.00    +0.126 C 
BRANCH  20  21
ATOM     21  N   UNL     1       1.785  -8.768   0.318  0.00  0.00    -0.337 N 
ATOM     22  C   UNL     1       2.512  -9.093  -0.796  0.00  0.00    +0.106 A 
ATOM     23  C   UNL     1       3.732  -9.469  -0.368  0.00  0.00    +0.130 A 
ATOM     24  N   UNL     1       3.750  -9.376   0.970  0.00  0.00    -0.244 NA
ATOM     25  C   UNL     1       2.588  -8.951   1.387  0.00  0.00    +0.199 A 
ENDBRANCH  20  21
ENDBRANCH  19  20
ENDBRANCH  18  19
ENDBRANCH  17  18
ENDBRANCH   6  17
BRANCH  10  26
ATOM     26  C   UNL     1      -6.237  -0.921   0.111  0.00  0.00    +0.091 C 
BRANCH  26  27
ATOM     27  C   UNL     1      -6.343  -0.521  -1.338  0.00  0.00    -0.041 A 
ATOM     28  C   UNL     1      -5.202  -0.217  -2.057  0.00  0.00    +0.004 A 
ATOM     29  C   UNL     1      -5.300   0.150  -3.386  0.00  0.00    +0.001 A 
ATOM     30  C   UNL     1      -6.538   0.215  -3.996  0.00  0.00    +0.015 A 
ATOM     31  C   UNL     1      -7.680  -0.089  -3.277  0.00  0.00    +0.018 A 
ATOM     32  C   UNL     1      -7.582  -0.462  -1.949  0.00  0.00    +0.019 A 
ATOM     33 BR   UNL     1      -9.375   0.000  -4.112  0.00  0.00    -0.050 Br
ENDBRANCH  26  27
ENDBRANCH  10  26
TORSDOF 9
