REMARK  Name = CHEMBL122245
REMARK  6 active torsions:
REMARK  status: ('A' for Active; 'I' for Inactive)
REMARK    1  A    between atoms: C_1  and  O_2
REMARK    2  A    between atoms: O_2  and  C_3
REMARK    3  A    between atoms: C_6  and  C_9
REMARK    4  A    between atoms: C_9  and  N_10
REMARK    5  A    between atoms: C_17  and  N_18
REMARK    6  A    between atoms: N_18  and  C_19
REMARK                            x       y       z     vdW  Elec       q    Type
REMARK                         _______ _______ _______ _____ _____    ______ ____
ROOT
ATOM      1  N   UNL     1       1.706  -2.274   5.658  0.00  0.00    -0.323 N 
ATOM      2  C   UNL     1       2.101  -2.992   6.788  0.00  0.00    +0.153 A 
ATOM      3  C   UNL     1       1.219  -3.541   7.814  0.00  0.00    +0.100 A 
ATOM      4  C   UNL     1       2.051  -4.180   8.755  0.00  0.00    +0.163 A 
ATOM      5  N   UNL     1       1.489  -4.771   9.808  0.00  0.00    -0.216 NA
ATOM      6  C   UNL     1       0.183  -4.758   9.967  0.00  0.00    +0.225 A 
ATOM      7  N   UNL     1      -0.634  -4.171   9.111  0.00  0.00    -0.220 NA
ATOM      8  C   UNL     1      -0.169  -3.554   8.028  0.00  0.00    +0.139 A 
ATOM      9  N   UNL     1       3.332  -4.022   8.318  0.00  0.00    -0.258 N 
ATOM     10  N   UNL     1       3.328  -3.301   7.119  0.00  0.00    -0.156 NA
ATOM     11  H   UNL     1       4.123  -4.360   8.767  0.00  0.00    +0.191 HD
ATOM     12  H   UNL     1       0.765  -2.099   5.498  0.00  0.00    +0.148 HD
ENDROOT
BRANCH   8  13
ATOM     13  N   UNL     1      -1.030  -2.942   7.137  0.00  0.00    -0.299 N 
ATOM     14  H   UNL     1      -0.686  -2.569   6.310  0.00  0.00    +0.154 HD
BRANCH  13  15
ATOM     15  C   UNL     1      -2.395  -2.861   7.427  0.00  0.00    +0.034 A 
ATOM     16  C   UNL     1      -3.331  -2.966   6.405  0.00  0.00    +0.023 A 
ATOM     17  C   UNL     1      -4.679  -2.886   6.695  0.00  0.00    +0.003 A 
ATOM     18  C   UNL     1      -5.098  -2.702   7.999  0.00  0.00    +0.020 A 
ATOM     19  C   UNL     1      -4.169  -2.596   9.019  0.00  0.00    +0.043 A 
ATOM     20  C   UNL     1      -2.818  -2.681   8.737  0.00  0.00    +0.043 A 
ATOM     21 CL   UNL     1      -4.700  -2.364  10.656  0.00  0.00    -0.083 Cl
ENDBRANCH  13  15
ENDBRANCH   8  13
BRANCH   1  22
ATOM     22  C   UNL     1       2.712  -1.784   4.712  0.00  0.00    +0.138 C 
BRANCH  22  26
ATOM     23  C   UNL     1       0.778   0.307   1.527  0.00  0.00    +0.120 A 
ATOM     24  C   UNL     1       1.178   0.992   2.666  0.00  0.00    +0.046 A 
ATOM     25  C   UNL     1       1.803   0.313   3.694  0.00  0.00    +0.009 A 
ATOM     26  C   UNL     1       2.030  -1.047   3.589  0.00  0.00    -0.030 A 
ATOM     27  C   UNL     1       1.633  -1.731   2.455  0.00  0.00    +0.009 A 
ATOM     28  C   UNL     1       1.002  -1.058   1.427  0.00  0.00    +0.046 A 
BRANCH  23  30
ATOM     29  C   UNL     1      -0.035   2.377   0.687  0.00  0.00    +0.277 C 
ATOM     30  O   UNL     1       0.163   0.973   0.514  0.00  0.00    -0.495 OA
ENDBRANCH  23  30
ENDBRANCH  22  26
ENDBRANCH   1  22
TORSDOF 5
