REMARK  Name = CHEMBL510597
REMARK  8 active torsions:
REMARK  status: ('A' for Active; 'I' for Inactive)
REMARK    1  A    between atoms: C_2  and  C_3
REMARK    2  A    between atoms: C_3  and  C_5
REMARK    3  A    between atoms: C_5  and  C_6
REMARK    4  A    between atoms: C_5  and  C_15
REMARK    5  A    between atoms: C_6  and  C_7
REMARK    6  A    between atoms: C_7  and  C_8
REMARK    7  A    between atoms: C_8  and  N_9
REMARK    8  A    between atoms: N_25  and  C_26
REMARK                            x       y       z     vdW  Elec       q    Type
REMARK                         _______ _______ _______ _____ _____    ______ ____
ROOT
ATOM      1  C   UNL     1       1.776  -3.085   1.364  0.00  0.00    +0.053 A 
ATOM      2  C   UNL     1       2.189  -2.270   2.380  0.00  0.00    +0.037 A 
ATOM      3  C   UNL     1       1.900  -2.645   3.697  0.00  0.00    +0.044 A 
ATOM      4  C   UNL     1       1.193  -3.853   3.918  0.00  0.00    +0.094 A 
ATOM      5  C   UNL     1       0.814  -4.619   2.807  0.00  0.00    +0.139 A 
ATOM      6  N   UNL     1       1.112  -4.206   1.596  0.00  0.00    -0.257 NA
ATOM      7  N   UNL     1       0.914  -4.214   5.177  0.00  0.00    -0.234 NA
ATOM      8  C   UNL     1       1.291  -3.459   6.182  0.00  0.00    +0.224 A 
ATOM      9  N   UNL     1       1.953  -2.324   6.025  0.00  0.00    -0.220 NA
ATOM     10  C   UNL     1       2.282  -1.874   4.821  0.00  0.00    +0.134 A 
ATOM     11  N   UNL     1       2.973  -0.690   4.669  0.00  0.00    -0.299 N 
ATOM     12  H   UNL     1       3.131  -0.331   3.782  0.00  0.00    +0.154 HD
ENDROOT
BRANCH  11  13
ATOM     13  C   UNL     1       3.444  -0.007   5.793  0.00  0.00    +0.033 A 
ATOM     14  C   UNL     1       3.880  -0.715   6.906  0.00  0.00    +0.023 A 
ATOM     15  C   UNL     1       4.345  -0.038   8.016  0.00  0.00    +0.003 A 
ATOM     16  C   UNL     1       4.379   1.345   8.021  0.00  0.00    +0.015 A 
ATOM     17  C   UNL     1       3.946   2.054   6.914  0.00  0.00    +0.020 A 
ATOM     18  C   UNL     1       3.485   1.381   5.798  0.00  0.00    +0.038 A 
ATOM     19 BR   UNL     1       3.994   3.944   6.925  0.00  0.00    -0.050 Br
ENDBRANCH  11  13
BRANCH   1  20
ATOM     20  C   UNL     1       2.080  -2.693  -0.059  0.00  0.00    +0.108 C 
BRANCH  20  21
ATOM     21  C   UNL     1       2.015  -1.193  -0.192  0.00  0.00    +0.164 C 
ATOM     22  O   UNL     1       3.028  -0.532  -0.100  0.00  0.00    -0.292 OA
BRANCH  21  24
ATOM     23  C   UNL     1       0.674   0.793  -0.550  0.00  0.00    +0.012 C 
ATOM     24  C   UNL     1       0.731  -0.535  -0.433  0.00  0.00    +0.039 C 
ENDBRANCH  21  24
ENDBRANCH  20  21
BRANCH  20  25
ATOM     25  C   UNL     1       3.482  -3.178  -0.434  0.00  0.00    +0.019 C 
BRANCH  25  26
ATOM     26  C   UNL     1       3.742  -2.892  -1.914  0.00  0.00    +0.016 C 
BRANCH  26  27
ATOM     27  C   UNL     1       5.144  -3.377  -2.289  0.00  0.00    +0.084 C 
BRANCH  27  28
ATOM     28  N   UNL     1       5.394  -3.102  -3.710  0.00  0.00    -0.298 NA
ATOM     29  C   UNL     1       4.511  -3.908  -4.566  0.00  0.00    +0.112 C 
ATOM     30  C   UNL     1       4.763  -3.547  -6.032  0.00  0.00    +0.175 C 
ATOM     31  O   UNL     1       6.145  -3.749  -6.337  0.00  0.00    -0.377 OA
ATOM     32  C   UNL     1       7.033  -2.978  -5.523  0.00  0.00    +0.175 C 
ATOM     33  C   UNL     1       6.805  -3.334  -4.051  0.00  0.00    +0.112 C 
ENDBRANCH  27  28
ENDBRANCH  26  27
ENDBRANCH  25  26
ENDBRANCH  20  25
ENDBRANCH   1  20
TORSDOF 8
