REMARK  Name = CHEMBL516022
REMARK  4 active torsions:
REMARK  status: ('A' for Active; 'I' for Inactive)
REMARK    1  A    between atoms: C_1  and  C_2
REMARK    2  A    between atoms: C_6  and  N_8
REMARK    3  A    between atoms: N_8  and  C_9
REMARK    4  A    between atoms: C_19  and  C_21
REMARK                            x       y       z     vdW  Elec       q    Type
REMARK                         _______ _______ _______ _____ _____    ______ ____
ROOT
ATOM      1  C   UNL     1      -0.032  -4.157   2.384  0.00  0.00    +0.137 C 
ATOM      2  N   UNL     1      -0.025  -4.836   1.257  0.00  0.00    -0.222 NA
ATOM      3  C   UNL     1      -0.168  -6.163   1.181  0.00  0.00    +0.223 C 
ATOM      4  N   UNL     1      -0.648  -6.882   2.179  0.00  0.00    -0.238 NA
ATOM      5  C   UNL     1      -0.918  -6.204   3.306  0.00  0.00    +0.078 C 
ATOM      6  C   UNL     1      -1.825  -6.327   4.276  0.00  0.00    +0.137 C 
ATOM      7  N   UNL     1      -1.913  -5.205   5.014  0.00  0.00    -0.242 NA
ATOM      8  C   UNL     1      -1.013  -4.308   4.707  0.00  0.00    +0.118 C 
ATOM      9  C   UNL     1      -0.129  -4.941   3.664  0.00  0.00    +0.168 C 
ATOM     10  N   UNL     1      -0.893  -3.043   5.232  0.00  0.00    -0.269 N 
ATOM     11  C   UNL     1      -1.764  -2.616   6.168  0.00  0.00    +0.241 C 
ATOM     12  O   UNL     1      -2.656  -3.350   6.548  0.00  0.00    -0.270 OA
ATOM     13  H   UNL     1      -0.182  -2.457   4.929  0.00  0.00    +0.156 HD
ENDROOT
BRANCH  11  14
ATOM     14  C   UNL     1      -1.636  -1.263   6.729  0.00  0.00    +0.060 C 
ATOM     15  C   UNL     1      -2.496  -0.842   7.653  0.00  0.00    +0.013 C 
ENDBRANCH  11  14
BRANCH   1  16
ATOM     16  N   UNL     1       0.052  -2.797   2.391  0.00  0.00    -0.199 NA
BRANCH  16  22
ATOM     17  C   UNL     1      -2.278  -2.470  -1.924  0.00  0.00    +0.044 C 
ATOM     18  C   UNL     1      -1.361  -1.890  -0.878  0.00  0.00    -0.049 A 
ATOM     19  C   UNL     1      -0.803  -0.639  -1.067  0.00  0.00    +0.003 A 
ATOM     20  C   UNL     1       0.039  -0.103  -0.110  0.00  0.00    +0.002 A 
ATOM     21  C   UNL     1       0.325  -0.816   1.038  0.00  0.00    +0.025 A 
ATOM     22  C   UNL     1      -0.235  -2.073   1.231  0.00  0.00    +0.055 A 
ATOM     23  C   UNL     1      -1.084  -2.606   0.269  0.00  0.00    +0.028 A 
ENDBRANCH  16  22
ENDBRANCH   1  16
TORSDOF 3
