REMARK  Name = CHEMBL132466
REMARK  7 active torsions:
REMARK  status: ('A' for Active; 'I' for Inactive)
REMARK    1  A    between atoms: C_1  and  O_2
REMARK    2  A    between atoms: O_2  and  C_3
REMARK    3  A    between atoms: C_12  and  O_13
REMARK    4  A    between atoms: O_13  and  C_14
REMARK    5  A    between atoms: C_17  and  C_28
REMARK    6  A    between atoms: C_18  and  N_19
REMARK    7  A    between atoms: N_19  and  C_20
REMARK                            x       y       z     vdW  Elec       q    Type
REMARK                         _______ _______ _______ _____ _____    ______ ____
ROOT
ATOM      1  C   UNL     1       8.499  -0.631   2.720  0.00  0.00    +0.162 A 
ATOM      2  C   UNL     1       7.585   0.130   3.384  0.00  0.00    +0.058 A 
ATOM      3  C   UNL     1       6.564  -0.497   4.127  0.00  0.00    -0.013 A 
ATOM      4  C   UNL     1       5.612   0.253   4.818  0.00  0.00    +0.020 A 
ATOM      5  C   UNL     1       4.619  -0.398   5.541  0.00  0.00    +0.023 A 
ATOM      6  C   UNL     1       4.565  -1.861   5.582  0.00  0.00    +0.073 A 
ATOM      7  C   UNL     1       5.514  -2.611   4.894  0.00  0.00    +0.037 A 
ATOM      8  C   UNL     1       6.514  -1.962   4.166  0.00  0.00    -0.012 A 
ATOM      9  C   UNL     1       7.488  -2.695   3.458  0.00  0.00    +0.058 A 
ATOM     10  C   UNL     1       8.447  -2.033   2.753  0.00  0.00    +0.162 A 
ATOM     11  N   UNL     1       3.594  -2.470   6.288  0.00  0.00    -0.254 NA
ATOM     12  C   UNL     1       2.690  -1.793   6.944  0.00  0.00    +0.132 A 
ATOM     13  C   UNL     1       2.665  -0.388   6.960  0.00  0.00    +0.091 A 
ATOM     14  C   UNL     1       3.635   0.337   6.255  0.00  0.00    +0.060 A 
ENDROOT
BRANCH   1  16
ATOM     15  C   UNL     1       9.487   1.411   2.005  0.00  0.00    +0.277 C 
ATOM     16  O   UNL     1       9.480  -0.018   2.006  0.00  0.00    -0.491 OA
ENDBRANCH   1  16
BRANCH  10  17
ATOM     17  O   UNL     1       9.380  -2.748   2.070  0.00  0.00    -0.491 OA
ATOM     18  C   UNL     1       9.283  -4.172   2.136  0.00  0.00    +0.277 C 
ENDBRANCH  10  17
BRANCH  14  19
ATOM     19  N   UNL     1       3.634   1.715   6.254  0.00  0.00    -0.313 N 
ATOM     20  H   UNL     1       3.096   2.199   5.608  0.00  0.00    +0.152 HD
BRANCH  19  21
ATOM     21  C   UNL     1       4.408   2.415   7.185  0.00  0.00    +0.033 A 
ATOM     22  C   UNL     1       5.280   1.729   8.021  0.00  0.00    +0.026 A 
ATOM     23  C   UNL     1       6.043   2.422   8.939  0.00  0.00    +0.041 A 
ATOM     24  C   UNL     1       5.941   3.800   9.028  0.00  0.00    +0.142 A 
ATOM     25  C   UNL     1       5.072   4.487   8.195  0.00  0.00    +0.078 A 
ATOM     26  C   UNL     1       4.310   3.797   7.270  0.00  0.00    +0.046 A 
ATOM     27 CL   UNL     1       4.945   6.214   8.309  0.00  0.00    -0.081 Cl
ATOM     28  F   UNL     1       6.689   4.476   9.928  0.00  0.00    -0.204 F 
ENDBRANCH  19  21
ENDBRANCH  14  19
BRANCH  13  29
ATOM     29  C   UNL     1       1.649   0.302   7.696  0.00  0.00    +0.103 C 
ATOM     30  N   UNL     1       0.843   0.850   8.280  0.00  0.00    -0.191 NA
ENDBRANCH  13  29
TORSDOF 5
