REMARK  Name = CHEMBL175933
REMARK  13 active torsions:
REMARK  status: ('A' for Active; 'I' for Inactive)
REMARK    1  A    between atoms: C_1  and  N_2
REMARK    2  A    between atoms: N_2  and  C_3
REMARK    3  A    between atoms: N_2  and  C_4
REMARK    4  A    between atoms: C_4  and  C_5
REMARK    5  A    between atoms: C_6  and  C_7
REMARK    6  A    between atoms: N_9  and  C_10
REMARK    7  A    between atoms: C_15  and  O_16
REMARK    8  A    between atoms: O_16  and  C_17
REMARK    9  A    between atoms: C_20  and  C_37
REMARK   10  A    between atoms: C_21  and  N_22
REMARK   11  A    between atoms: N_22  and  C_23
REMARK   12  A    between atoms: C_26  and  S_30
REMARK   13  A    between atoms: S_30  and  C_31
REMARK                            x       y       z     vdW  Elec       q    Type
REMARK                         _______ _______ _______ _____ _____    ______ ____
ROOT
ATOM      1  C   UNL     1      -8.297   0.781  -5.723  0.00  0.00    +0.077 A 
ATOM      2  C   UNL     1      -7.125   1.482  -5.897  0.00  0.00    +0.039 A 
ATOM      3  C   UNL     1      -6.363   1.284  -7.058  0.00  0.00    +0.025 A 
ATOM      4  C   UNL     1      -6.800   0.365  -8.043  0.00  0.00    +0.076 A 
ATOM      5  C   UNL     1      -7.998  -0.337  -7.842  0.00  0.00    +0.076 A 
ATOM      6  C   UNL     1      -8.729  -0.134  -6.695  0.00  0.00    +0.143 A 
ATOM      7  N   UNL     1      -6.074   0.171  -9.154  0.00  0.00    -0.253 NA
ATOM      8  C   UNL     1      -4.953   0.810  -9.371  0.00  0.00    +0.132 A 
ATOM      9  C   UNL     1      -4.444   1.738  -8.449  0.00  0.00    +0.091 A 
ATOM     10  C   UNL     1      -5.154   1.990  -7.265  0.00  0.00    +0.060 A 
ENDROOT
BRANCH   1  13
ATOM     11  C   UNL     1      -8.488   1.506  -3.464  0.00  0.00    +0.241 C 
ATOM     12  O   UNL     1      -7.292   1.726  -3.445  0.00  0.00    -0.271 OA
ATOM     13  N   UNL     1      -9.059   0.978  -4.565  0.00  0.00    -0.279 N 
ATOM     14  H   UNL     1      -9.998   0.734  -4.555  0.00  0.00    +0.155 HD
BRANCH  11  16
ATOM     15  C   UNL     1      -8.749   2.340  -1.200  0.00  0.00    -0.040 C 
ATOM     16  C   UNL     1      -9.312   1.818  -2.286  0.00  0.00    +0.061 C 
BRANCH  15  17
ATOM     17  C   UNL     1      -9.593   2.659   0.007  0.00  0.00    -0.052 C 
BRANCH  17  19
ATOM     18  C   UNL     1      -7.708   2.531   1.485  0.00  0.00    -0.096 C 
ATOM     19  N   UNL     1      -9.037   1.982   1.186  0.00  0.00    +0.378 N 
ATOM     20  C   UNL     1      -9.925   2.194   2.337  0.00  0.00    -0.096 C 
ATOM     21  H   UNL     1      -8.958   0.993   1.000  0.00  0.00    -0.082 HD
ENDBRANCH  17  19
ENDBRANCH  15  17
ENDBRANCH  11  16
ENDBRANCH   1  13
BRANCH   6  22
ATOM     22  O   UNL     1      -9.885  -0.822  -6.503  0.00  0.00    -0.493 OA
ATOM     23  C   UNL     1     -10.271  -1.738  -7.529  0.00  0.00    +0.277 C 
ENDBRANCH   6  22
BRANCH  10  24
ATOM     24  N   UNL     1      -4.689   2.895  -6.333  0.00  0.00    -0.313 N 
ATOM     25  H   UNL     1      -4.117   2.595  -5.609  0.00  0.00    +0.152 HD
BRANCH  24  26
ATOM     26  C   UNL     1      -5.041   4.245  -6.433  0.00  0.00    +0.033 A 
ATOM     27  C   UNL     1      -5.982   4.650  -7.371  0.00  0.00    +0.024 A 
ATOM     28  C   UNL     1      -6.330   5.982  -7.470  0.00  0.00    +0.018 A 
ATOM     29  C   UNL     1      -5.739   6.919  -6.632  0.00  0.00    +0.034 A 
ATOM     30  C   UNL     1      -4.797   6.514  -5.693  0.00  0.00    +0.057 A 
ATOM     31  C   UNL     1      -4.453   5.181  -5.591  0.00  0.00    +0.044 A 
ATOM     32 CL   UNL     1      -4.057   7.685  -4.645  0.00  0.00    -0.082 Cl
BRANCH  29  33
ATOM     33  S   UNL     1      -6.183   8.619  -6.758  0.00  0.00    -0.049 S 
BRANCH  33  34
ATOM     34  C   UNL     1      -4.895   9.324  -7.733  0.00  0.00    +0.193 A 
ATOM     35  N   UNL     1      -3.963   8.533  -8.245  0.00  0.00    -0.230 NA
ATOM     36  C   UNL     1      -2.983   9.030  -8.980  0.00  0.00    +0.115 A 
ATOM     37  C   UNL     1      -2.939  10.396  -9.214  0.00  0.00    +0.039 A 
ATOM     38  C   UNL     1      -3.929  11.195  -8.664  0.00  0.00    +0.115 A 
ATOM     39  N   UNL     1      -4.885  10.633  -7.942  0.00  0.00    -0.230 NA
ENDBRANCH  33  34
ENDBRANCH  29  33
ENDBRANCH  24  26
ENDBRANCH  10  24
BRANCH   9  40
ATOM     40  C   UNL     1      -3.213   2.421  -8.713  0.00  0.00    +0.103 C 
ATOM     41  N   UNL     1      -2.237   2.962  -8.923  0.00  0.00    -0.191 NA
ENDBRANCH   9  40
TORSDOF 10
