REMARK  Name = CHEMBL428741
REMARK  13 active torsions:
REMARK  status: ('A' for Active; 'I' for Inactive)
REMARK    1  A    between atoms: C_1  and  C_2
REMARK    2  A    between atoms: C_2  and  O_3
REMARK    3  A    between atoms: O_3  and  C_4
REMARK    4  A    between atoms: C_9  and  N_10
REMARK    5  A    between atoms: C_11  and  C_13
REMARK    6  A    between atoms: C_14  and  C_15
REMARK    7  A    between atoms: C_15  and  N_16
REMARK    8  A    between atoms: N_16  and  C_17
REMARK    9  A    between atoms: N_16  and  C_18
REMARK   10  A    between atoms: C_19  and  N_23
REMARK   11  A    between atoms: C_28  and  O_32
REMARK   12  A    between atoms: O_32  and  C_33
REMARK   13  A    between atoms: C_33  and  C_34
REMARK                            x       y       z     vdW  Elec       q    Type
REMARK                         _______ _______ _______ _____ _____    ______ ____
ROOT
ATOM      1  C   UNL     1       0.799  -1.786  -1.343  0.00  0.00    +0.144 A 
ATOM      2  C   UNL     1       0.280  -2.626  -0.399  0.00  0.00    +0.076 A 
ATOM      3  C   UNL     1       0.395  -4.013  -0.563  0.00  0.00    +0.080 A 
ATOM      4  C   UNL     1       1.052  -4.531  -1.711  0.00  0.00    +0.047 A 
ATOM      5  C   UNL     1       1.576  -3.656  -2.666  0.00  0.00    +0.040 A 
ATOM      6  C   UNL     1       1.444  -2.295  -2.483  0.00  0.00    +0.077 A 
ATOM      7  C   UNL     1       1.151  -5.940  -1.847  0.00  0.00    +0.164 A 
ATOM      8  N   UNL     1       0.623  -6.700  -0.890  0.00  0.00    -0.216 NA
ATOM      9  C   UNL     1       0.022  -6.169   0.159  0.00  0.00    +0.224 A 
ATOM     10  N   UNL     1      -0.099  -4.873   0.336  0.00  0.00    -0.235 NA
ENDROOT
BRANCH   7  11
ATOM     11  N   UNL     1       1.767  -6.497  -2.924  0.00  0.00    -0.228 NA
ATOM     12  C   UNL     1       3.022  -6.838  -2.853  0.00  0.00    +0.098 C 
ATOM     13  C   UNL     1       3.730  -7.559  -3.989  0.00  0.00    +0.142 C 
ATOM     14  C   UNL     1       5.019  -6.810  -4.252  0.00  0.00    +0.203 C 
ATOM     15  O   UNL     1       5.399  -6.630  -5.384  0.00  0.00    -0.288 OA
ATOM     16  C   UNL     1       5.807  -6.302  -3.112  0.00  0.00    +0.167 C 
ATOM     17  C   UNL     1       5.256  -6.163  -1.881  0.00  0.00    +0.102 C 
ATOM     18  C   UNL     1       3.856  -6.540  -1.655  0.00  0.00    +0.204 C 
ATOM     19  O   UNL     1       3.396  -6.609  -0.530  0.00  0.00    -0.286 OA
BRANCH  16  20
ATOM     20  O   UNL     1       7.104  -5.968  -3.300  0.00  0.00    -0.484 OA
BRANCH  20  21
ATOM     21  C   UNL     1       7.820  -5.481  -2.163  0.00  0.00    +0.264 C 
BRANCH  21  22
ATOM     22  C   UNL     1       9.239  -5.164  -2.560  0.00  0.00    -0.008 A 
ATOM     23  C   UNL     1      10.215  -6.139  -2.475  0.00  0.00    +0.007 A 
ATOM     24  C   UNL     1      11.517  -5.848  -2.839  0.00  0.00    +0.003 A 
ATOM     25  C   UNL     1      11.843  -4.583  -3.288  0.00  0.00    +0.038 A 
ATOM     26  C   UNL     1      10.866  -3.606  -3.374  0.00  0.00    +0.124 A 
ATOM     27  C   UNL     1       9.562  -3.899  -3.015  0.00  0.00    +0.045 A 
ATOM     28  F   UNL     1      11.184  -2.368  -3.813  0.00  0.00    -0.205 F 
ENDBRANCH  21  22
ENDBRANCH  20  21
ENDBRANCH  16  20
ENDBRANCH   7  11
BRANCH   6  29
ATOM     29  N   UNL     1       1.962  -1.415  -3.437  0.00  0.00    -0.279 N 
ATOM     30  C   UNL     1       2.122  -1.821  -4.712  0.00  0.00    +0.241 C 
ATOM     31  O   UNL     1       1.725  -2.918  -5.055  0.00  0.00    -0.271 OA
ATOM     32  H   UNL     1       2.205  -0.511  -3.181  0.00  0.00    +0.155 HD
BRANCH  30  33
ATOM     33  C   UNL     1       2.778  -0.938  -5.688  0.00  0.00    +0.061 C 
ATOM     34  C   UNL     1       2.937  -1.339  -6.946  0.00  0.00    -0.040 C 
BRANCH  34  35
ATOM     35  C   UNL     1       3.608  -0.434  -7.946  0.00  0.00    -0.052 C 
BRANCH  35  36
ATOM     36  N   UNL     1       4.738  -1.141  -8.565  0.00  0.00    +0.378 N 
ATOM     37  C   UNL     1       5.319  -0.304  -9.623  0.00  0.00    -0.096 C 
ATOM     38  C   UNL     1       5.759  -1.419  -7.546  0.00  0.00    -0.096 C 
ATOM     39  H   UNL     1       4.414  -2.009  -8.963  0.00  0.00    -0.082 HD
ENDBRANCH  35  36
ENDBRANCH  34  35
ENDBRANCH  30  33
ENDBRANCH   6  29
BRANCH   1  40
ATOM     40  O   UNL     1       0.685  -0.443  -1.180  0.00  0.00    -0.490 OA
BRANCH  40  42
ATOM     41  C   UNL     1      -0.012   1.544   0.006  0.00  0.00    +0.048 C 
ATOM     42  C   UNL     1       0.019   0.014  -0.002  0.00  0.00    +0.226 C 
ENDBRANCH  40  42
ENDBRANCH   1  40
TORSDOF 10
