REMARK  Name = CHEMBL162719
REMARK  2 active torsions:
REMARK  status: ('A' for Active; 'I' for Inactive)
REMARK    1  A    between atoms: C_1  and  N_2
REMARK    2  A    between atoms: N_18  and  C_19
REMARK                            x       y       z     vdW  Elec       q    Type
REMARK                         _______ _______ _______ _____ _____    ______ ____
ROOT
ATOM      1  C   UNL     1      -0.066   1.505   0.025  0.00  0.00    -0.096 C 
ATOM      2  N   UNL     1      -0.035   0.037   0.024  0.00  0.00    +0.380 N 
ATOM      3  C   UNL     1      -1.409  -0.481   0.015  0.00  0.00    -0.060 C 
ATOM      4  C   UNL     1      -1.378  -2.008  -0.102  0.00  0.00    +0.088 C 
ATOM      5  N   UNL     1      -0.535  -2.541   0.980  0.00  0.00    -0.319 N 
ATOM      6  C   UNL     1       0.804  -1.962   1.165  0.00  0.00    +0.088 C 
ATOM      7  C   UNL     1       0.670  -0.437   1.222  0.00  0.00    -0.060 C 
ATOM      8  C   UNL     1      -0.993  -3.566   1.805  0.00  0.00    +0.122 A 
ATOM      9  C   UNL     1      -2.256  -4.093   1.594  0.00  0.00    +0.057 A 
ATOM     10  C   UNL     1      -2.693  -5.120   2.433  0.00  0.00    +0.045 A 
ATOM     11  C   UNL     1      -1.829  -5.578   3.461  0.00  0.00    +0.094 A 
ATOM     12  C   UNL     1      -0.570  -4.980   3.595  0.00  0.00    +0.141 A 
ATOM     13  N   UNL     1      -0.206  -4.021   2.774  0.00  0.00    -0.238 NA
ATOM     14  N   UNL     1      -2.256  -6.563   4.262  0.00  0.00    -0.234 NA
ATOM     15  C   UNL     1      -3.442  -7.095   4.102  0.00  0.00    +0.224 A 
ATOM     16  N   UNL     1      -4.299  -6.720   3.166  0.00  0.00    -0.220 NA
ATOM     17  C   UNL     1      -4.003  -5.753   2.305  0.00  0.00    +0.134 A 
ATOM     18  N   UNL     1      -4.896  -5.362   1.330  0.00  0.00    -0.299 N 
ATOM     19  H   UNL     1      -4.630  -4.714   0.659  0.00  0.00    +0.154 HD
ATOM     20  H   UNL     1       0.450  -0.287  -0.800  0.00  0.00    -0.082 HD
ENDROOT
BRANCH  18  21
ATOM     21  C   UNL     1      -6.187  -5.899   1.308  0.00  0.00    +0.033 A 
ATOM     22  C   UNL     1      -6.832  -6.209   2.499  0.00  0.00    +0.023 A 
ATOM     23  C   UNL     1      -8.106  -6.739   2.475  0.00  0.00    +0.003 A 
ATOM     24  C   UNL     1      -8.742  -6.962   1.267  0.00  0.00    +0.015 A 
ATOM     25  C   UNL     1      -8.102  -6.655   0.079  0.00  0.00    +0.020 A 
ATOM     26  C   UNL     1      -6.829  -6.119   0.097  0.00  0.00    +0.038 A 
ATOM     27 BR   UNL     1      -8.975  -6.963  -1.570  0.00  0.00    -0.050 Br
ENDBRANCH  18  21
TORSDOF 1
