REMARK  Name = CHEMBL179572
REMARK  13 active torsions:
REMARK  status: ('A' for Active; 'I' for Inactive)
REMARK    1  A    between atoms: C_1  and  N_2
REMARK    2  A    between atoms: N_2  and  C_3
REMARK    3  A    between atoms: N_2  and  C_4
REMARK    4  A    between atoms: C_4  and  C_5
REMARK    5  A    between atoms: C_6  and  C_7
REMARK    6  A    between atoms: N_9  and  C_10
REMARK    7  A    between atoms: C_15  and  O_16
REMARK    8  A    between atoms: O_16  and  C_17
REMARK    9  A    between atoms: C_20  and  C_36
REMARK   10  A    between atoms: C_21  and  N_22
REMARK   11  A    between atoms: N_22  and  C_23
REMARK   12  A    between atoms: C_26  and  S_30
REMARK   13  A    between atoms: S_30  and  C_31
REMARK                            x       y       z     vdW  Elec       q    Type
REMARK                         _______ _______ _______ _____ _____    ______ ____
ROOT
ATOM      1  C   UNL     1      -0.806   0.793   9.998  0.00  0.00    +0.077 A 
ATOM      2  C   UNL     1      -1.560   1.476   9.071  0.00  0.00    +0.039 A 
ATOM      3  C   UNL     1      -2.940   1.239   8.987  0.00  0.00    +0.025 A 
ATOM      4  C   UNL     1      -3.550   0.300   9.853  0.00  0.00    +0.076 A 
ATOM      5  C   UNL     1      -2.760  -0.384  10.790  0.00  0.00    +0.076 A 
ATOM      6  C   UNL     1      -1.408  -0.142  10.854  0.00  0.00    +0.143 A 
ATOM      7  N   UNL     1      -4.869   0.069   9.776  0.00  0.00    -0.253 NA
ATOM      8  C   UNL     1      -5.633   0.689   8.914  0.00  0.00    +0.132 A 
ATOM      9  C   UNL     1      -5.113   1.636   8.017  0.00  0.00    +0.091 A 
ATOM     10  C   UNL     1      -3.741   1.926   8.044  0.00  0.00    +0.060 A 
ENDROOT
BRANCH   1  13
ATOM     11  C   UNL     1       1.227   1.576   9.041  0.00  0.00    +0.241 C 
ATOM     12  O   UNL     1       0.643   1.780   7.994  0.00  0.00    -0.271 OA
ATOM     13  N   UNL     1       0.572   1.028  10.083  0.00  0.00    -0.279 N 
ATOM     14  H   UNL     1       1.054   0.796  10.892  0.00  0.00    +0.155 HD
BRANCH  11  16
ATOM     15  C   UNL     1       3.297   2.468   8.141  0.00  0.00    -0.040 C 
ATOM     16  C   UNL     1       2.650   1.927   9.169  0.00  0.00    +0.061 C 
BRANCH  15  17
ATOM     17  C   UNL     1       4.755   2.827   8.273  0.00  0.00    -0.052 C 
BRANCH  17  19
ATOM     18  C   UNL     1       5.102   2.712   5.902  0.00  0.00    -0.096 C 
ATOM     19  N   UNL     1       5.519   2.172   7.203  0.00  0.00    +0.378 N 
ATOM     20  C   UNL     1       6.953   2.425   7.401  0.00  0.00    -0.096 C 
ATOM     21  H   UNL     1       5.346   1.178   7.226  0.00  0.00    -0.082 HD
ENDBRANCH  17  19
ENDBRANCH  15  17
ENDBRANCH  11  16
ENDBRANCH   1  13
BRANCH   6  22
ATOM     22  O   UNL     1      -0.647  -0.812  11.759  0.00  0.00    -0.493 OA
ATOM     23  C   UNL     1      -1.318  -1.751  12.601  0.00  0.00    +0.277 C 
ENDBRANCH   6  22
BRANCH  10  24
ATOM     24  N   UNL     1      -3.190   2.850   7.180  0.00  0.00    -0.313 N 
ATOM     25  H   UNL     1      -2.838   2.563   6.323  0.00  0.00    +0.152 HD
BRANCH  24  26
ATOM     26  C   UNL     1      -3.140   4.202   7.540  0.00  0.00    +0.033 A 
ATOM     27  C   UNL     1      -3.496   4.592   8.825  0.00  0.00    +0.024 A 
ATOM     28  C   UNL     1      -3.446   5.924   9.181  0.00  0.00    +0.018 A 
ATOM     29  C   UNL     1      -3.040   6.876   8.254  0.00  0.00    +0.033 A 
ATOM     30  C   UNL     1      -2.684   6.487   6.968  0.00  0.00    +0.056 A 
ATOM     31  C   UNL     1      -2.729   5.152   6.614  0.00  0.00    +0.044 A 
ATOM     32 CL   UNL     1      -2.177   7.676   5.810  0.00  0.00    -0.082 Cl
BRANCH  29  33
ATOM     33  S   UNL     1      -2.978   8.578   8.708  0.00  0.00    -0.061 S 
BRANCH  33  34
ATOM     34  C   UNL     1      -4.482   9.243   8.078  0.00  0.00    +0.139 A 
ATOM     35  N   UNL     1      -5.481   8.606   7.503  0.00  0.00    -0.241 NA
ATOM     36  C   UNL     1      -6.551   9.256   7.080  0.00  0.00    +0.120 A 
ATOM     37  C   UNL     1      -6.570  10.598   7.266  0.00  0.00    +0.067 A 
ATOM     38  S   UNL     1      -4.996  10.846   8.071  0.00  0.00    -0.069 S 
ENDBRANCH  33  34
ENDBRANCH  29  33
ENDBRANCH  24  26
ENDBRANCH  10  24
BRANCH   9  39
ATOM     39  C   UNL     1      -5.974   2.298   7.084  0.00  0.00    +0.103 C 
ATOM     40  N   UNL     1      -6.657   2.823   6.343  0.00  0.00    -0.191 NA
ENDBRANCH   9  39
TORSDOF 10
