REMARK  Name = CHEMBL504117
REMARK  8 active torsions:
REMARK  status: ('A' for Active; 'I' for Inactive)
REMARK    1  A    between atoms: C_5  and  C_7
REMARK    2  A    between atoms: C_7  and  O_8
REMARK    3  A    between atoms: O_8  and  C_9
REMARK    4  A    between atoms: C_12  and  N_16
REMARK    5  A    between atoms: C_21  and  C_23
REMARK    6  A    between atoms: C_24  and  C_25
REMARK    7  A    between atoms: C_28  and  O_32
REMARK    8  A    between atoms: O_32  and  C_33
REMARK                            x       y       z     vdW  Elec       q    Type
REMARK                         _______ _______ _______ _____ _____    ______ ____
ROOT
ATOM      1  N   UNL     1      -0.691  -8.169  -0.040  0.00  0.00    -0.298 N 
ATOM      2  C   UNL     1      -1.955  -8.728   0.068  0.00  0.00    +0.141 A 
ATOM      3  C   UNL     1      -2.118 -10.099   0.172  0.00  0.00    +0.079 A 
ATOM      4  C   UNL     1      -3.404 -10.675   0.283  0.00  0.00    +0.084 A 
ATOM      5  C   UNL     1      -3.434 -12.073   0.381  0.00  0.00    +0.053 A 
ATOM      6  C   UNL     1      -2.268 -12.779   0.365  0.00  0.00    +0.065 A 
ATOM      7  S   UNL     1      -1.032 -11.500   0.209  0.00  0.00    -0.075 S 
ATOM      8  N   UNL     1      -4.440  -9.798   0.279  0.00  0.00    -0.235 NA
ATOM      9  C   UNL     1      -4.242  -8.509   0.178  0.00  0.00    +0.224 A 
ATOM     10  N   UNL     1      -3.045  -7.959   0.080  0.00  0.00    -0.219 NA
ATOM     11  H   UNL     1       0.087  -8.742  -0.125  0.00  0.00    +0.154 HD
ENDROOT
BRANCH   1  15
ATOM     12  C   UNL     1      -0.235  -4.025  -0.002  0.00  0.00    +0.139 A 
ATOM     13  C   UNL     1       0.628  -4.811  -0.751  0.00  0.00    +0.049 A 
ATOM     14  C   UNL     1       0.478  -6.184  -0.764  0.00  0.00    +0.027 A 
ATOM     15  C   UNL     1      -0.538  -6.778  -0.026  0.00  0.00    +0.034 A 
ATOM     16  C   UNL     1      -1.402  -5.991   0.724  0.00  0.00    +0.047 A 
ATOM     17  C   UNL     1      -1.247  -4.618   0.740  0.00  0.00    +0.084 A 
ATOM     18 CL   UNL     1      -2.322  -3.634   1.683  0.00  0.00    -0.080 Cl
BRANCH  12  19
ATOM     19  O   UNL     1      -0.086  -2.673   0.010  0.00  0.00    -0.484 OA
BRANCH  19  20
ATOM     20  C   UNL     1       0.977  -2.131  -0.776  0.00  0.00    +0.284 C 
BRANCH  20  25
ATOM     21  C   UNL     1       0.064   1.371   0.279  0.00  0.00    +0.003 A 
ATOM     22  C   UNL     1       1.032   2.080  -0.416  0.00  0.00    +0.020 A 
ATOM     23  C   UNL     1       1.940   1.392  -1.198  0.00  0.00    +0.111 A 
ATOM     24  N   UNL     1       1.893   0.077  -1.287  0.00  0.00    -0.256 NA
ATOM     25  C   UNL     1       0.987  -0.630  -0.640  0.00  0.00    +0.078 A 
ATOM     26  C   UNL     1       0.047  -0.010   0.161  0.00  0.00    +0.027 A 
ENDBRANCH  20  25
ENDBRANCH  19  20
ENDBRANCH  12  19
ENDBRANCH   1  15
BRANCH   6  27
ATOM     27  C   UNL     1      -2.081 -14.196   0.453  0.00  0.00    -0.057 C 
ATOM     28  C   UNL     1      -1.928 -15.357   0.524  0.00  0.00    -0.078 C 
BRANCH  28  29
ATOM     29  C   UNL     1      -1.736 -16.814   0.614  0.00  0.00    +0.134 C 
ATOM     30  C   UNL     1      -2.499 -17.530  -0.527  0.00  0.00    +0.077 C 
ATOM     31  C   UNL     1      -3.939 -17.589   0.048  0.00  0.00    +0.194 C 
ATOM     32  C   UNL     1      -3.702 -17.810   1.556  0.00  0.00    +0.126 C 
ATOM     33  N   UNL     1      -2.336 -17.337   1.860  0.00  0.00    -0.300 NA
ATOM     34  H   UNL     1      -1.773 -18.078   2.249  0.00  0.00    +0.123 HD
BRANCH  31  35
ATOM     35  O   UNL     1      -4.665 -18.681  -0.519  0.00  0.00    -0.446 OA
BRANCH  35  36
ATOM     36  C   UNL     1      -5.999 -18.534  -0.636  0.00  0.00    +0.403 C 
ATOM     37  O   UNL     1      -6.531 -17.505  -0.268  0.00  0.00    -0.226 OA
ATOM     38  N   UNL     1      -6.743 -19.526  -1.163  0.00  0.00    -0.263 N 
ATOM     39  C   UNL     1      -6.122 -20.783  -1.610  0.00  0.00    +0.139 C 
ATOM     40  C   UNL     1      -6.891 -21.952  -0.984  0.00  0.00    +0.179 C 
ATOM     41  O   UNL     1      -8.285 -21.800  -1.259  0.00  0.00    -0.377 OA
ATOM     42  C   UNL     1      -8.868 -20.623  -0.695  0.00  0.00    +0.179 C 
ATOM     43  C   UNL     1      -8.201 -19.388  -1.301  0.00  0.00    +0.139 C 
ENDBRANCH  35  36
ENDBRANCH  31  35
ENDBRANCH  28  29
ENDBRANCH   6  27
TORSDOF 8
