REMARK  Name = CHEMBL473427
REMARK  5 active torsions:
REMARK  status: ('A' for Active; 'I' for Inactive)
REMARK    1  A    between atoms: C_3  and  C_8
REMARK    2  A    between atoms: C_8  and  O_9
REMARK    3  A    between atoms: O_9  and  C_10
REMARK    4  A    between atoms: C_13  and  N_17
REMARK    5  A    between atoms: C_22  and  C_24
REMARK                            x       y       z     vdW  Elec       q    Type
REMARK                         _______ _______ _______ _____ _____    ______ ____
ROOT
ATOM      1  C   UNL     1       5.243   3.127   1.502  0.00  0.00    +0.139 A 
ATOM      2  C   UNL     1       6.037   3.425   0.405  0.00  0.00    +0.049 A 
ATOM      3  C   UNL     1       7.217   4.122   0.575  0.00  0.00    +0.027 A 
ATOM      4  C   UNL     1       7.609   4.526   1.845  0.00  0.00    +0.034 A 
ATOM      5  C   UNL     1       6.814   4.228   2.943  0.00  0.00    +0.047 A 
ATOM      6  C   UNL     1       5.631   3.534   2.771  0.00  0.00    +0.084 A 
ATOM      7 CL   UNL     1       4.633   3.167   4.144  0.00  0.00    -0.080 Cl
ENDROOT
BRANCH   4   8
ATOM      8  N   UNL     1       8.806   5.232   2.017  0.00  0.00    -0.298 N 
ATOM      9  C   UNL     1       9.548   5.066   3.176  0.00  0.00    +0.141 A 
ATOM     10  C   UNL     1      10.670   5.837   3.416  0.00  0.00    +0.078 A 
ATOM     11  C   UNL     1      11.431   5.673   4.596  0.00  0.00    +0.084 A 
ATOM     12  C   UNL     1      12.543   6.515   4.720  0.00  0.00    +0.045 A 
ATOM     13  C   UNL     1      12.826   7.415   3.735  0.00  0.00    +0.029 A 
ATOM     14  S   UNL     1      11.521   7.129   2.551  0.00  0.00    -0.083 S 
ATOM     15  N   UNL     1      10.982   4.721   5.454  0.00  0.00    -0.235 NA
ATOM     16  C   UNL     1       9.915   4.012   5.188  0.00  0.00    +0.224 A 
ATOM     17  N   UNL     1       9.194   4.161   4.091  0.00  0.00    -0.219 NA
ATOM     18  H   UNL     1       9.115   5.837   1.325  0.00  0.00    +0.154 HD
BRANCH  13  19
ATOM     19  C   UNL     1      13.933   8.383   3.666  0.00  0.00    +0.026 A 
ATOM     20  C   UNL     1      14.223   9.296   2.684  0.00  0.00    +0.016 A 
ATOM     21  C   UNL     1      15.324  10.106   2.840  0.00  0.00    +0.008 A 
ATOM     22  C   UNL     1      16.088   9.979   3.956  0.00  0.00    +0.046 A 
ATOM     23  S   UNL     1      15.243   8.680   4.842  0.00  0.00    -0.096 S 
ENDBRANCH  13  19
ENDBRANCH   4   8
BRANCH   1  24
ATOM     24  O   UNL     1       4.081   2.441   1.334  0.00  0.00    -0.486 OA
BRANCH  24  25
ATOM     25  C   UNL     1       3.744   2.053   0.001  0.00  0.00    +0.264 C 
BRANCH  25  28
ATOM     26  C   UNL     1       0.043   1.317  -0.128  0.00  0.00    +0.003 A 
ATOM     27  C   UNL     1       1.246   1.999  -0.137  0.00  0.00    +0.007 A 
ATOM     28  C   UNL     1       2.434   1.308   0.010  0.00  0.00    -0.008 A 
ATOM     29  C   UNL     1       2.421  -0.065   0.165  0.00  0.00    +0.045 A 
ATOM     30  C   UNL     1       1.218  -0.749   0.174  0.00  0.00    +0.124 A 
ATOM     31  C   UNL     1       0.028  -0.056   0.027  0.00  0.00    +0.038 A 
ATOM     32  F   UNL     1       1.204  -2.091   0.325  0.00  0.00    -0.205 F 
ENDBRANCH  25  28
ENDBRANCH  24  25
ENDBRANCH   1  24
TORSDOF 5
