REMARK  Name = CHEMBL168366
REMARK  11 active torsions:
REMARK  status: ('A' for Active; 'I' for Inactive)
REMARK    1  A    between atoms: C_4  and  C_7
REMARK    2  A    between atoms: C_7  and  C_8
REMARK    3  A    between atoms: C_8  and  O_9
REMARK    4  A    between atoms: O_9  and  C_10
REMARK    5  A    between atoms: C_10  and  C_12
REMARK    6  A    between atoms: C_14  and  N_19
REMARK    7  A    between atoms: C_17  and  O_18
REMARK    8  A    between atoms: N_19  and  C_20
REMARK    9  A    between atoms: C_20  and  C_21
REMARK   10  A    between atoms: C_23  and  O_28
REMARK   11  A    between atoms: C_26  and  O_27
REMARK                            x       y       z     vdW  Elec       q    Type
REMARK                         _______ _______ _______ _____ _____    ______ ____
ROOT
ATOM      1  C   UNL     1       7.250  -2.684   2.636  0.00  0.00    +0.102 A 
ATOM      2  C   UNL     1       7.908  -3.047   1.457  0.00  0.00    +0.041 A 
ATOM      3  C   UNL     1       9.114  -3.722   1.522  0.00  0.00    +0.028 A 
ATOM      4  C   UNL     1       9.672  -4.040   2.756  0.00  0.00    +0.026 A 
ATOM      5  C   UNL     1       9.028  -3.686   3.924  0.00  0.00    +0.048 A 
ATOM      6  C   UNL     1       7.822  -3.003   3.875  0.00  0.00    +0.131 A 
ENDROOT
BRANCH   1   7
ATOM      7  C   UNL     1       5.965  -1.966   2.576  0.00  0.00    +0.343 C 
ATOM      8  O   UNL     1       5.398  -1.647   3.603  0.00  0.00    -0.245 OA
BRANCH   7   9
ATOM      9  O   UNL     1       5.418  -1.661   1.382  0.00  0.00    -0.461 OA
BRANCH   9  10
ATOM     10  C   UNL     1       4.171  -0.963   1.399  0.00  0.00    +0.237 C 
BRANCH  10  11
ATOM     11  C   UNL     1       3.711  -0.707  -0.038  0.00  0.00    +0.076 C 
BRANCH  11  15
ATOM     12  C   UNL     1      -0.017   1.378   0.010  0.00  0.00    +0.000 A 
ATOM     13  C   UNL     1       1.171   2.086   0.002  0.00  0.00    +0.000 A 
ATOM     14  C   UNL     1       2.377   1.411  -0.013  0.00  0.00    +0.004 A 
ATOM     15  C   UNL     1       2.396   0.029  -0.020  0.00  0.00    -0.044 A 
ATOM     16  C   UNL     1       1.208  -0.679  -0.012  0.00  0.00    +0.004 A 
ATOM     17  C   UNL     1       0.002  -0.004   0.002  0.00  0.00    +0.000 A 
ENDBRANCH  11  15
ENDBRANCH  10  11
ENDBRANCH   9  10
ENDBRANCH   7   9
ENDBRANCH   1   7
BRANCH   6  18
ATOM     18  O   UNL     1       7.193  -2.650   5.025  0.00  0.00    -0.506 OA
ATOM     19  H   UNL     1       6.579  -3.318   5.359  0.00  0.00    +0.292 HD
ENDBRANCH   6  18
BRANCH   3  20
ATOM     20  N   UNL     1       9.775  -4.085   0.343  0.00  0.00    -0.340 N 
ATOM     21  H   UNL     1       9.387  -3.865  -0.519  0.00  0.00    +0.146 HD
BRANCH  20  22
ATOM     22  C   UNL     1      11.052  -4.800   0.409  0.00  0.00    +0.140 C 
BRANCH  22  23
ATOM     23  C   UNL     1      11.549  -5.071  -0.988  0.00  0.00    +0.014 A 
ATOM     24  C   UNL     1      11.365  -6.317  -1.557  0.00  0.00    +0.054 A 
ATOM     25  C   UNL     1      11.822  -6.566  -2.842  0.00  0.00    +0.117 A 
ATOM     26  C   UNL     1      12.464  -5.566  -3.556  0.00  0.00    +0.049 A 
ATOM     27  C   UNL     1      12.648  -4.321  -2.987  0.00  0.00    +0.049 A 
ATOM     28  C   UNL     1      12.187  -4.069  -1.704  0.00  0.00    +0.122 A 
BRANCH  28  29
ATOM     29  O   UNL     1      12.363  -2.842  -1.146  0.00  0.00    -0.506 OA
ATOM     30  H   UNL     1      13.192  -2.748  -0.657  0.00  0.00    +0.292 HD
ENDBRANCH  28  29
BRANCH  25  31
ATOM     31  O   UNL     1      11.640  -7.792  -3.402  0.00  0.00    -0.507 OA
ATOM     32  H   UNL     1      10.811  -7.883  -3.891  0.00  0.00    +0.292 HD
ENDBRANCH  25  31
ENDBRANCH  22  23
ENDBRANCH  20  22
ENDBRANCH   3  20
TORSDOF 11
