REMARK  Name = CHEMBL398960
REMARK  14 active torsions:
REMARK  status: ('A' for Active; 'I' for Inactive)
REMARK    1  A    between atoms: C_1  and  C_2
REMARK    2  A    between atoms: C_2  and  N_3
REMARK    3  A    between atoms: N_3  and  C_4
REMARK    4  A    between atoms: N_3  and  C_6
REMARK    5  A    between atoms: C_4  and  C_5
REMARK    6  A    between atoms: C_6  and  C_7
REMARK    7  A    between atoms: C_6  and  C_8
REMARK    8  A    between atoms: C_6  and  C_15
REMARK    9  A    between atoms: C_8  and  C_9
REMARK   10  A    between atoms: C_16  and  C_17
REMARK   11  A    between atoms: C_20  and  O_29
REMARK   12  A    between atoms: C_21  and  O_27
REMARK   13  A    between atoms: O_27  and  C_28
REMARK   14  A    between atoms: O_29  and  C_30
REMARK                            x       y       z     vdW  Elec       q    Type
REMARK                         _______ _______ _______ _____ _____    ______ ____
ROOT
ATOM      1  C   UNL     1      -3.356   0.543   0.757  0.00  0.00    -0.107 C 
ATOM      2  C   UNL     1      -4.432   0.824   1.136  0.00  0.00    -0.047 C 
ENDROOT
BRANCH   2   3
ATOM      3  C   UNL     1      -5.743   1.166   1.597  0.00  0.00    +0.124 A 
ATOM      4  C   UNL     1      -6.774   0.194   1.651  0.00  0.00    +0.038 A 
ATOM      5  C   UNL     1      -6.563  -1.133   1.261  0.00  0.00    +0.062 A 
ATOM      6  C   UNL     1      -7.593  -2.028   1.335  0.00  0.00    +0.162 A 
ATOM      7  C   UNL     1      -8.857  -1.631   1.795  0.00  0.00    +0.164 A 
ATOM      8  C   UNL     1      -9.089  -0.340   2.181  0.00  0.00    +0.077 A 
ATOM      9  C   UNL     1      -8.051   0.599   2.118  0.00  0.00    +0.079 A 
ATOM     10  N   UNL     1      -8.227   1.875   2.485  0.00  0.00    -0.235 NA
ATOM     11  C   UNL     1      -7.236   2.733   2.414  0.00  0.00    +0.223 A 
ATOM     12  N   UNL     1      -6.027   2.404   1.992  0.00  0.00    -0.227 NA
BRANCH   7  13
ATOM     13  O   UNL     1      -9.864  -2.540   1.858  0.00  0.00    -0.491 OA
ATOM     14  C   UNL     1     -11.128  -2.076   2.335  0.00  0.00    +0.277 C 
ENDBRANCH   7  13
BRANCH   6  15
ATOM     15  O   UNL     1      -7.390  -3.318   0.957  0.00  0.00    -0.491 OA
ATOM     16  C   UNL     1      -6.082  -3.662   0.496  0.00  0.00    +0.277 C 
ENDBRANCH   6  15
ENDBRANCH   2   3
BRANCH   1  17
ATOM     17  C   UNL     1      -2.008   0.191   0.283  0.00  0.00    +0.000 C 
ATOM     18  C   UNL     1      -0.992   0.452   1.396  0.00  0.00    +0.004 C 
BRANCH  17  19
ATOM     19  N   UNL     1      -1.975  -1.231  -0.087  0.00  0.00    +0.390 N 
ATOM     20  H   UNL     1      -2.416  -1.777   0.638  0.00  0.00    -0.080 HD
BRANCH  19  22
ATOM     21  C   UNL     1      -4.177  -1.106  -1.151  0.00  0.00    -0.017 C 
ATOM     22  C   UNL     1      -2.694  -1.424  -1.353  0.00  0.00    -0.080 C 
ENDBRANCH  19  22
BRANCH  19  23
ATOM     23  C   UNL     1      -0.580  -1.663  -0.245  0.00  0.00    -0.080 C 
ATOM     24  C   UNL     1      -0.330  -2.904   0.614  0.00  0.00    -0.017 C 
ENDBRANCH  19  23
ENDBRANCH  17  19
BRANCH  17  25
ATOM     25  C   UNL     1      -1.658   1.044  -0.938  0.00  0.00    +0.035 C 
BRANCH  25  26
ATOM     26  C   UNL     1      -0.236   0.767  -1.352  0.00  0.00    -0.045 A 
ATOM     27  C   UNL     1       0.825   1.379  -0.701  0.00  0.00    +0.023 A 
ATOM     28  C   UNL     1       2.116   1.102  -1.109  0.00  0.00    +0.111 A 
ATOM     29  N   UNL     1       2.344   0.267  -2.104  0.00  0.00    -0.263 NA
ATOM     30  C   UNL     1       1.361  -0.332  -2.746  0.00  0.00    +0.111 A 
ATOM     31  C   UNL     1       0.044  -0.108  -2.390  0.00  0.00    +0.023 A 
ENDBRANCH  25  26
ENDBRANCH  17  25
ENDBRANCH   1  17
TORSDOF 9
