REMARK  Name = CHEMBL510597
REMARK  8 active torsions:
REMARK  status: ('A' for Active; 'I' for Inactive)
REMARK    1  A    between atoms: C_2  and  C_3
REMARK    2  A    between atoms: C_3  and  C_5
REMARK    3  A    between atoms: C_5  and  C_6
REMARK    4  A    between atoms: C_5  and  C_15
REMARK    5  A    between atoms: C_6  and  C_7
REMARK    6  A    between atoms: C_7  and  C_8
REMARK    7  A    between atoms: C_8  and  N_9
REMARK    8  A    between atoms: N_25  and  C_26
REMARK                            x       y       z     vdW  Elec       q    Type
REMARK                         _______ _______ _______ _____ _____    ______ ____
ROOT
ATOM      1  C   UNL     1      -2.474  -2.785   0.763  0.00  0.00    +0.053 A 
ATOM      2  C   UNL     1      -3.612  -3.008   0.041  0.00  0.00    +0.037 A 
ATOM      3  C   UNL     1      -4.687  -3.647   0.669  0.00  0.00    +0.044 A 
ATOM      4  C   UNL     1      -4.546  -4.035   2.026  0.00  0.00    +0.094 A 
ATOM      5  C   UNL     1      -3.337  -3.759   2.678  0.00  0.00    +0.139 A 
ATOM      6  N   UNL     1      -2.365  -3.161   2.027  0.00  0.00    -0.257 NA
ATOM      7  N   UNL     1      -5.573  -4.648   2.629  0.00  0.00    -0.234 NA
ATOM      8  C   UNL     1      -6.684  -4.882   1.972  0.00  0.00    +0.224 A 
ATOM      9  N   UNL     1      -6.861  -4.540   0.705  0.00  0.00    -0.220 NA
ATOM     10  C   UNL     1      -5.910  -3.927   0.013  0.00  0.00    +0.134 A 
ATOM     11  N   UNL     1      -6.105  -3.574  -1.305  0.00  0.00    -0.299 N 
ATOM     12  H   UNL     1      -5.373  -3.201  -1.822  0.00  0.00    +0.154 HD
ENDROOT
BRANCH  11  13
ATOM     13  C   UNL     1      -7.358  -3.752  -1.898  0.00  0.00    +0.033 A 
ATOM     14  C   UNL     1      -8.514  -3.612  -1.139  0.00  0.00    +0.023 A 
ATOM     15  C   UNL     1      -9.751  -3.789  -1.727  0.00  0.00    +0.003 A 
ATOM     16  C   UNL     1      -9.840  -4.105  -3.071  0.00  0.00    +0.015 A 
ATOM     17  C   UNL     1      -8.692  -4.245  -3.830  0.00  0.00    +0.020 A 
ATOM     18  C   UNL     1      -7.452  -4.064  -3.248  0.00  0.00    +0.038 A 
ATOM     19 BR   UNL     1      -8.821  -4.678  -5.666  0.00  0.00    -0.050 Br
ENDBRANCH  11  13
BRANCH   1  20
ATOM     20  C   UNL     1      -1.308  -2.098   0.099  0.00  0.00    +0.108 C 
BRANCH  20  21
ATOM     21  C   UNL     1      -1.503  -0.605   0.161  0.00  0.00    +0.164 C 
ATOM     22  O   UNL     1      -2.623  -0.139   0.165  0.00  0.00    -0.292 OA
BRANCH  21  24
ATOM     23  C   UNL     1      -0.514   1.605   0.272  0.00  0.00    +0.012 C 
ATOM     24  C   UNL     1      -0.341   0.282   0.217  0.00  0.00    +0.039 C 
ENDBRANCH  21  24
ENDBRANCH  20  21
BRANCH  20  25
ATOM     25  C   UNL     1      -1.220  -2.541  -1.363  0.00  0.00    +0.016 C 
BRANCH  25  26
ATOM     26  C   UNL     1       0.034  -1.942  -2.003  0.00  0.00    -0.018 C 
BRANCH  26  27
ATOM     27  C   UNL     1       0.122  -2.384  -3.465  0.00  0.00    -0.079 C 
BRANCH  27  28
ATOM     28  N   UNL     1       1.326  -1.809  -4.079  0.00  0.00    +0.383 N 
ATOM     29  C   UNL     1       1.202  -0.345  -4.123  0.00  0.00    -0.050 C 
ATOM     30  C   UNL     1       2.458   0.251  -4.764  0.00  0.00    +0.141 C 
ATOM     31  O   UNL     1       2.628  -0.301  -6.072  0.00  0.00    -0.383 OA
ATOM     32  C   UNL     1       2.730  -1.728  -6.083  0.00  0.00    +0.141 C 
ATOM     33  C   UNL     1       1.475  -2.329  -5.445  0.00  0.00    -0.050 C 
ATOM     34  H   UNL     1       2.136  -2.062  -3.533  0.00  0.00    -0.082 HD
ENDBRANCH  27  28
ENDBRANCH  26  27
ENDBRANCH  25  26
ENDBRANCH  20  25
ENDBRANCH   1  20
TORSDOF 8
