REMARK  Name = CHEMBL119977
REMARK  2 active torsions:
REMARK  status: ('A' for Active; 'I' for Inactive)
REMARK    1  A    between atoms: C_4  and  C_7
REMARK    2  A    between atoms: N_16  and  C_17
REMARK                            x       y       z     vdW  Elec       q    Type
REMARK                         _______ _______ _______ _____ _____    ______ ____
ROOT
ATOM      1  C   UNL     1       3.799  -0.655  -0.161  0.00  0.00    +0.078 A 
ATOM      2  C   UNL     1       4.094  -1.490  -1.234  0.00  0.00    +0.086 A 
ATOM      3  C   UNL     1       3.351  -2.308  -2.116  0.00  0.00    +0.138 A 
ATOM      4  N   UNL     1       4.010  -2.982  -3.050  0.00  0.00    -0.220 NA
ATOM      5  C   UNL     1       5.325  -2.910  -3.175  0.00  0.00    +0.225 A 
ATOM      6  N   UNL     1       6.091  -2.179  -2.404  0.00  0.00    -0.214 NA
ATOM      7  C   UNL     1       5.553  -1.442  -1.412  0.00  0.00    +0.186 A 
ATOM      8  N   UNL     1       6.024  -0.628  -0.491  0.00  0.00    -0.153 NA
ATOM      9  N   UNL     1       4.963  -0.135   0.278  0.00  0.00    -0.274 N 
ATOM     10  N   UNL     1       1.979  -2.403  -2.009  0.00  0.00    -0.299 N 
ATOM     11  H   UNL     1       1.504  -1.849  -1.370  0.00  0.00    +0.154 HD
ATOM     12  H   UNL     1       5.053   0.486   1.018  0.00  0.00    +0.189 HD
ENDROOT
BRANCH  10  13
ATOM     13  C   UNL     1       1.275  -3.297  -2.820  0.00  0.00    +0.034 A 
ATOM     14  C   UNL     1       1.858  -4.499  -3.201  0.00  0.00    +0.023 A 
ATOM     15  C   UNL     1       1.160  -5.380  -4.002  0.00  0.00    +0.003 A 
ATOM     16  C   UNL     1      -0.119  -5.068  -4.426  0.00  0.00    +0.020 A 
ATOM     17  C   UNL     1      -0.703  -3.872  -4.049  0.00  0.00    +0.043 A 
ATOM     18  C   UNL     1      -0.012  -2.988  -3.241  0.00  0.00    +0.043 A 
ATOM     19 CL   UNL     1      -2.309  -3.484  -4.584  0.00  0.00    -0.083 Cl
ENDBRANCH  10  13
BRANCH   1  23
ATOM     20  C   UNL     1      -0.060   0.128   1.426  0.00  0.00    +0.000 A 
ATOM     21  C   UNL     1       0.783   1.181   1.114  0.00  0.00    +0.001 A 
ATOM     22  C   UNL     1       2.038   0.933   0.599  0.00  0.00    +0.010 A 
ATOM     23  C   UNL     1       2.457  -0.382   0.391  0.00  0.00    +0.001 A 
ATOM     24  C   UNL     1       1.601  -1.440   0.708  0.00  0.00    +0.010 A 
ATOM     25  C   UNL     1       0.349  -1.178   1.223  0.00  0.00    +0.001 A 
ENDBRANCH   1  23
TORSDOF 2
