REMARK  Name = CHEMBL517127
REMARK  9 active torsions:
REMARK  status: ('A' for Active; 'I' for Inactive)
REMARK    1  A    between atoms: C_2  and  C_3
REMARK    2  A    between atoms: C_3  and  C_5
REMARK    3  A    between atoms: C_5  and  C_6
REMARK    4  A    between atoms: C_5  and  C_15
REMARK    5  A    between atoms: C_6  and  C_7
REMARK    6  A    between atoms: C_7  and  C_8
REMARK    7  A    between atoms: C_8  and  N_9
REMARK    8  A    between atoms: C_21  and  N_25
REMARK    9  A    between atoms: N_25  and  C_26
REMARK                            x       y       z     vdW  Elec       q    Type
REMARK                         _______ _______ _______ _____ _____    ______ ____
ROOT
ATOM      1  C   UNL     1      -0.744  -2.231  -1.629  0.00  0.00    -0.036 A 
ATOM      2  C   UNL     1      -1.734  -1.905  -2.552  0.00  0.00    +0.006 A 
ATOM      3  C   UNL     1      -1.785  -2.512  -3.771  0.00  0.00    +0.029 A 
ATOM      4  C   UNL     1      -0.826  -3.478  -4.104  0.00  0.00    +0.076 A 
ATOM      5  C   UNL     1       0.181  -3.808  -3.164  0.00  0.00    +0.041 A 
ATOM      6  C   UNL     1       0.208  -3.164  -1.922  0.00  0.00    +0.017 A 
ATOM      7  C   UNL     1       1.138  -4.788  -3.525  0.00  0.00    +0.134 A 
ATOM      8  N   UNL     1       1.041  -5.346  -4.725  0.00  0.00    -0.220 NA
ATOM      9  C   UNL     1       0.082  -5.005  -5.570  0.00  0.00    +0.223 A 
ATOM     10  N   UNL     1      -0.830  -4.105  -5.290  0.00  0.00    -0.235 NA
ENDROOT
BRANCH   7  11
ATOM     11  N   UNL     1       2.143  -5.152  -2.653  0.00  0.00    -0.299 N 
ATOM     12  H   UNL     1       2.153  -4.798  -1.750  0.00  0.00    +0.154 HD
BRANCH  11  13
ATOM     13  C   UNL     1       3.147  -6.030  -3.071  0.00  0.00    +0.033 A 
ATOM     14  C   UNL     1       3.681  -6.952  -2.179  0.00  0.00    +0.023 A 
ATOM     15  C   UNL     1       4.672  -7.819  -2.595  0.00  0.00    +0.003 A 
ATOM     16  C   UNL     1       5.134  -7.770  -3.897  0.00  0.00    +0.015 A 
ATOM     17  C   UNL     1       4.605  -6.853  -4.788  0.00  0.00    +0.020 A 
ATOM     18  C   UNL     1       3.608  -5.987  -4.380  0.00  0.00    +0.038 A 
ATOM     19 BR   UNL     1       5.240  -6.790  -6.568  0.00  0.00    -0.050 Br
ENDBRANCH  11  13
ENDBRANCH   7  11
BRANCH   1  20
ATOM     20  C   UNL     1      -0.719  -1.541  -0.290  0.00  0.00    +0.089 C 
BRANCH  20  21
ATOM     21  C   UNL     1      -0.568  -0.055  -0.494  0.00  0.00    +0.163 C 
ATOM     22  O   UNL     1      -1.550   0.657  -0.518  0.00  0.00    -0.292 OA
BRANCH  21  24
ATOM     23  C   UNL     1       0.897   1.844  -0.842  0.00  0.00    +0.012 C 
ATOM     24  C   UNL     1       0.763   0.528  -0.662  0.00  0.00    +0.039 C 
ENDBRANCH  21  24
ENDBRANCH  20  21
BRANCH  20  25
ATOM     25  C   UNL     1      -2.026  -1.823   0.454  0.00  0.00    +0.017 C 
BRANCH  25  26
ATOM     26  C   UNL     1      -1.952  -1.227   1.861  0.00  0.00    +0.016 C 
BRANCH  26  27
ATOM     27  C   UNL     1      -3.259  -1.509   2.604  0.00  0.00    +0.084 C 
BRANCH  27  28
ATOM     28  N   UNL     1      -3.187  -0.936   3.955  0.00  0.00    -0.298 NA
ATOM     29  C   UNL     1      -2.174  -1.627   4.767  0.00  0.00    +0.112 C 
ATOM     30  C   UNL     1      -2.091  -0.962   6.144  0.00  0.00    +0.175 C 
ATOM     31  O   UNL     1      -3.383  -0.983   6.756  0.00  0.00    -0.377 OA
ATOM     32  C   UNL     1      -4.393  -0.319   5.993  0.00  0.00    +0.175 C 
ATOM     33  C   UNL     1      -4.500  -0.977   4.615  0.00  0.00    +0.112 C 
ENDBRANCH  27  28
ENDBRANCH  26  27
ENDBRANCH  25  26
ENDBRANCH  20  25
ENDBRANCH   1  20
TORSDOF 9
