REMARK  Name = CHEMBL517127
REMARK  9 active torsions:
REMARK  status: ('A' for Active; 'I' for Inactive)
REMARK    1  A    between atoms: C_2  and  C_3
REMARK    2  A    between atoms: C_3  and  C_5
REMARK    3  A    between atoms: C_5  and  C_6
REMARK    4  A    between atoms: C_5  and  C_15
REMARK    5  A    between atoms: C_6  and  C_7
REMARK    6  A    between atoms: C_7  and  C_8
REMARK    7  A    between atoms: C_8  and  N_9
REMARK    8  A    between atoms: C_21  and  N_25
REMARK    9  A    between atoms: N_25  and  C_26
REMARK                            x       y       z     vdW  Elec       q    Type
REMARK                         _______ _______ _______ _____ _____    ______ ____
ROOT
ATOM      1  C   UNL     1       2.598  -3.290  -0.300  0.00  0.00    -0.036 A 
ATOM      2  C   UNL     1       3.812  -2.926   0.278  0.00  0.00    +0.006 A 
ATOM      3  C   UNL     1       4.991  -3.147  -0.369  0.00  0.00    +0.029 A 
ATOM      4  C   UNL     1       4.985  -3.750  -1.634  0.00  0.00    +0.076 A 
ATOM      5  C   UNL     1       3.750  -4.120  -2.219  0.00  0.00    +0.041 A 
ATOM      6  C   UNL     1       2.557  -3.884  -1.527  0.00  0.00    +0.017 A 
ATOM      7  C   UNL     1       3.771  -4.729  -3.497  0.00  0.00    +0.134 A 
ATOM      8  N   UNL     1       4.947  -4.920  -4.080  0.00  0.00    -0.220 NA
ATOM      9  C   UNL     1       6.076  -4.557  -3.494  0.00  0.00    +0.223 A 
ATOM     10  N   UNL     1       6.117  -3.990  -2.312  0.00  0.00    -0.235 NA
ENDROOT
BRANCH   7  11
ATOM     11  N   UNL     1       2.601  -5.112  -4.119  0.00  0.00    -0.299 N 
ATOM     12  H   UNL     1       1.744  -4.892  -3.720  0.00  0.00    +0.154 HD
BRANCH  11  13
ATOM     13  C   UNL     1       2.649  -5.819  -5.324  0.00  0.00    +0.033 A 
ATOM     14  C   UNL     1       1.684  -5.597  -6.300  0.00  0.00    +0.023 A 
ATOM     15  C   UNL     1       1.734  -6.296  -7.490  0.00  0.00    +0.003 A 
ATOM     16  C   UNL     1       2.743  -7.216  -7.711  0.00  0.00    +0.015 A 
ATOM     17  C   UNL     1       3.705  -7.439  -6.742  0.00  0.00    +0.020 A 
ATOM     18  C   UNL     1       3.664  -6.739  -5.552  0.00  0.00    +0.038 A 
ATOM     19 BR   UNL     1       5.081  -8.699  -7.050  0.00  0.00    -0.050 Br
ENDBRANCH  11  13
ENDBRANCH   7  11
BRANCH   1  20
ATOM     20  C   UNL     1       1.314  -3.030   0.444  0.00  0.00    +0.089 C 
BRANCH  20  21
ATOM     21  C   UNL     1       1.169  -1.552   0.696  0.00  0.00    +0.163 C 
ATOM     22  O   UNL     1       2.154  -0.845   0.740  0.00  0.00    -0.292 OA
BRANCH  21  24
ATOM     23  C   UNL     1      -0.287   0.341   1.108  0.00  0.00    +0.012 C 
ATOM     24  C   UNL     1      -0.159  -0.968   0.885  0.00  0.00    +0.039 C 
ENDBRANCH  21  24
ENDBRANCH  20  21
BRANCH  20  25
ATOM     25  C   UNL     1       1.339  -3.775   1.781  0.00  0.00    +0.014 C 
BRANCH  25  26
ATOM     26  C   UNL     1      -0.013  -3.613   2.480  0.00  0.00    -0.018 C 
BRANCH  26  27
ATOM     27  C   UNL     1       0.012  -4.357   3.816  0.00  0.00    -0.079 C 
BRANCH  27  28
ATOM     28  N   UNL     1      -1.285  -4.202   4.488  0.00  0.00    +0.383 N 
ATOM     29  C   UNL     1      -1.492  -2.789   4.835  0.00  0.00    -0.050 C 
ATOM     30  C   UNL     1      -2.844  -2.631   5.533  0.00  0.00    +0.141 C 
ATOM     31  O   UNL     1      -2.876  -3.466   6.694  0.00  0.00    -0.383 OA
ATOM     32  C   UNL     1      -2.656  -4.851   6.410  0.00  0.00    +0.141 C 
ATOM     33  C   UNL     1      -1.303  -5.014   5.712  0.00  0.00    -0.050 C 
ATOM     34  H   UNL     1      -2.022  -4.508   3.870  0.00  0.00    -0.082 HD
ENDBRANCH  27  28
ENDBRANCH  26  27
ENDBRANCH  25  26
ENDBRANCH  20  25
ENDBRANCH   1  20
TORSDOF 9
