REMARK  Name = CHEMBL431977
REMARK  6 active torsions:
REMARK  status: ('A' for Active; 'I' for Inactive)
REMARK    1  A    between atoms: C_3  and  C_17
REMARK    2  A    between atoms: C_6  and  C_7
REMARK    3  A    between atoms: C_7  and  N_8
REMARK    4  A    between atoms: C_11  and  C_14
REMARK    5  A    between atoms: C_22  and  N_26
REMARK    6  A    between atoms: N_26  and  C_27
REMARK                            x       y       z     vdW  Elec       q    Type
REMARK                         _______ _______ _______ _____ _____    ______ ____
ROOT
ATOM      1  C   UNL     1       3.561   2.400  -1.199  0.00  0.00    +0.022 A 
ATOM      2  C   UNL     1       4.811   1.958  -1.490  0.00  0.00    +0.042 A 
ATOM      3  C   UNL     1       5.920   2.801  -1.286  0.00  0.00    +0.056 A 
ATOM      4  C   UNL     1       5.619   4.081  -0.775  0.00  0.00    +0.057 A 
ATOM      5  S   UNL     1       3.852   4.060  -0.613  0.00  0.00    -0.085 S 
ATOM      6  C   UNL     1       6.607   5.018  -0.523  0.00  0.00    +0.049 A 
ATOM      7  C   UNL     1       7.929   4.661  -0.790  0.00  0.00    +0.042 A 
ATOM      8  C   UNL     1       8.180   3.395  -1.290  0.00  0.00    +0.085 A 
ATOM      9  N   UNL     1       7.225   2.529  -1.519  0.00  0.00    -0.360 N 
ATOM     10  H   UNL     1       7.463   1.656  -1.870  0.00  0.00    +0.165 HD
ENDROOT
BRANCH   1  13
ATOM     11  C   UNL     1      -0.117   1.641  -1.123  0.00  0.00    +0.002 A 
ATOM     12  C   UNL     1       1.080   2.314  -0.990  0.00  0.00    +0.009 A 
ATOM     13  C   UNL     1       2.274   1.684  -1.340  0.00  0.00    -0.011 A 
ATOM     14  C   UNL     1       2.250   0.375  -1.823  0.00  0.00    +0.009 A 
ATOM     15  C   UNL     1       1.046  -0.287  -1.952  0.00  0.00    +0.002 A 
ATOM     16  C   UNL     1      -0.135   0.344  -1.603  0.00  0.00    -0.064 A 
BRANCH  16  17
ATOM     17  C   UNL     1      -1.446  -0.386  -1.746  0.00  0.00    -0.043 C 
BRANCH  17  18
ATOM     18  N   UNL     1      -1.998  -0.143  -3.086  0.00  0.00    +0.382 N 
ATOM     19  C   UNL     1      -2.319   1.282  -3.230  0.00  0.00    -0.078 C 
ATOM     20  C   UNL     1      -2.818   1.555  -4.651  0.00  0.00    -0.006 C 
ATOM     21  C   UNL     1      -4.073   0.718  -4.914  0.00  0.00    +0.071 C 
ATOM     22  C   UNL     1      -3.745  -0.761  -4.688  0.00  0.00    -0.006 C 
ATOM     23  C   UNL     1      -3.212  -0.948  -3.266  0.00  0.00    -0.078 C 
ATOM     24  H   UNL     1      -1.315  -0.404  -3.782  0.00  0.00    -0.081 HD
BRANCH  21  25
ATOM     25  C   UNL     1      -4.525   0.922  -6.337  0.00  0.00    +0.213 C 
ATOM     26  O   UNL     1      -3.906   1.664  -7.070  0.00  0.00    -0.276 OA
ATOM     27  N   UNL     1      -5.618   0.280  -6.795  0.00  0.00    -0.329 N 
ATOM     28  H   UNL     1      -6.114  -0.313  -6.209  0.00  0.00    +0.145 HD
ATOM     29  H   UNL     1      -5.910   0.412  -7.711  0.00  0.00    +0.145 HD
ENDBRANCH  21  25
ENDBRANCH  17  18
ENDBRANCH  16  17
ENDBRANCH   1  13
BRANCH   6  30
ATOM     30  N   UNL     1       6.291   6.278  -0.019  0.00  0.00    -0.314 N 
ATOM     31  H   UNL     1       5.383   6.474   0.262  0.00  0.00    +0.152 HD
BRANCH  30  32
ATOM     32  C   UNL     1       7.283   7.260   0.082  0.00  0.00    +0.032 A 
ATOM     33  C   UNL     1       8.208   7.422  -0.948  0.00  0.00    +0.025 A 
ATOM     34  C   UNL     1       9.190   8.383  -0.864  0.00  0.00    +0.028 A 
ATOM     35  C   UNL     1       9.265   9.204   0.256  0.00  0.00    +0.047 A 
ATOM     36  C   UNL     1       8.334   9.045   1.298  0.00  0.00    +0.001 A 
ATOM     37  C   UNL     1       7.338   8.071   1.200  0.00  0.00    +0.033 A 
ATOM     38  C   UNL     1       8.682  10.045   2.310  0.00  0.00    +0.027 A 
ATOM     39  C   UNL     1       9.748  10.717   1.848  0.00  0.00    +0.083 A 
ATOM     40  N   UNL     1      10.112  10.230   0.622  0.00  0.00    -0.361 N 
ATOM     41  H   UNL     1      10.854  10.557   0.090  0.00  0.00    +0.165 HD
ENDBRANCH  30  32
ENDBRANCH   6  30
TORSDOF 6
