REMARK  Name = CHEMBL470012
REMARK  6 active torsions:
REMARK  status: ('A' for Active; 'I' for Inactive)
REMARK    1  A    between atoms: C_3  and  N_15
REMARK    2  A    between atoms: C_6  and  C_7
REMARK    3  A    between atoms: C_7  and  C_8
REMARK    4  A    between atoms: C_8  and  N_9
REMARK    5  A    between atoms: C_21  and  N_25
REMARK    6  A    between atoms: N_25  and  C_26
REMARK                            x       y       z     vdW  Elec       q    Type
REMARK                         _______ _______ _______ _____ _____    ______ ____
ROOT
ATOM      1  N   UNL     1       3.506   2.170  -0.082  0.00  0.00    -0.294 N 
ATOM      2  C   UNL     1       3.554   3.465   0.390  0.00  0.00    +0.165 A 
ATOM      3  N   UNL     1       2.578   4.208   0.873  0.00  0.00    -0.205 NA
ATOM      4  C   UNL     1       2.769   5.460   1.300  0.00  0.00    +0.174 A 
ATOM      5  C   UNL     1       4.092   5.950   1.204  0.00  0.00    +0.099 A 
ATOM      6  S   UNL     1       4.959   4.565   0.512  0.00  0.00    -0.047 S 
ATOM      7  C   UNL     1       4.418   7.225   1.611  0.00  0.00    +0.142 A 
ATOM      8  N   UNL     1       3.448   7.999   2.104  0.00  0.00    -0.219 NA
ATOM      9  C   UNL     1       2.216   7.534   2.191  0.00  0.00    +0.225 A 
ATOM     10  N   UNL     1       1.867   6.330   1.815  0.00  0.00    -0.215 NA
ATOM     11  H   UNL     1       4.324   1.714  -0.331  0.00  0.00    +0.154 HD
ENDROOT
BRANCH   1  14
ATOM     12  C   UNL     1      -0.104   1.599  -0.477  0.00  0.00    +0.005 A 
ATOM     13  C   UNL     1       1.109   2.249  -0.360  0.00  0.00    +0.023 A 
ATOM     14  C   UNL     1       2.276   1.515  -0.200  0.00  0.00    +0.033 A 
ATOM     15  C   UNL     1       2.220   0.127  -0.159  0.00  0.00    +0.023 A 
ATOM     16  C   UNL     1       1.005  -0.517  -0.276  0.00  0.00    +0.005 A 
ATOM     17  C   UNL     1      -0.156   0.217  -0.436  0.00  0.00    -0.046 A 
BRANCH  17  18
ATOM     18  C   UNL     1      -1.481  -0.489  -0.564  0.00  0.00    +0.050 C 
BRANCH  18  19
ATOM     19  C   UNL     1      -1.764  -0.778  -2.039  0.00  0.00    +0.089 C 
BRANCH  19  20
ATOM     20  N   UNL     1      -3.056  -1.466  -2.165  0.00  0.00    -0.298 NA
ATOM     21  C   UNL     1      -3.001  -2.804  -1.558  0.00  0.00    +0.112 C 
ATOM     22  C   UNL     1      -4.380  -3.461  -1.657  0.00  0.00    +0.175 C 
ATOM     23  O   UNL     1      -4.784  -3.505  -3.028  0.00  0.00    -0.377 OA
ATOM     24  C   UNL     1      -4.849  -2.219  -3.650  0.00  0.00    +0.175 C 
ATOM     25  C   UNL     1      -3.475  -1.549  -3.571  0.00  0.00    +0.112 C 
ENDBRANCH  19  20
ENDBRANCH  18  19
ENDBRANCH  17  18
ENDBRANCH   1  14
BRANCH   7  26
ATOM     26  N   UNL     1       5.721   7.692   1.511  0.00  0.00    -0.298 N 
ATOM     27  H   UNL     1       6.400   7.149   1.081  0.00  0.00    +0.154 HD
BRANCH  26  28
ATOM     28  C   UNL     1       6.055   8.948   2.030  0.00  0.00    +0.034 A 
ATOM     29  C   UNL     1       5.403   9.430   3.158  0.00  0.00    +0.026 A 
ATOM     30  C   UNL     1       5.734  10.670   3.668  0.00  0.00    +0.041 A 
ATOM     31  C   UNL     1       6.715  11.432   3.058  0.00  0.00    +0.142 A 
ATOM     32  C   UNL     1       7.366  10.954   1.932  0.00  0.00    +0.078 A 
ATOM     33  C   UNL     1       7.042   9.711   1.421  0.00  0.00    +0.046 A 
ATOM     34 CL   UNL     1       8.595  11.913   1.168  0.00  0.00    -0.081 Cl
ATOM     35  F   UNL     1       7.036  12.645   3.559  0.00  0.00    -0.204 F 
ENDBRANCH  26  28
ENDBRANCH   7  26
TORSDOF 6
