REMARK  Name = CHEMBL311109
REMARK  6 active torsions:
REMARK  status: ('A' for Active; 'I' for Inactive)
REMARK    1  A    between atoms: C_3  and  C_17
REMARK    2  A    between atoms: C_6  and  C_7
REMARK    3  A    between atoms: C_7  and  N_8
REMARK    4  A    between atoms: C_11  and  C_14
REMARK    5  A    between atoms: C_22  and  N_26
REMARK    6  A    between atoms: N_26  and  C_27
REMARK                            x       y       z     vdW  Elec       q    Type
REMARK                         _______ _______ _______ _____ _____    ______ ____
ROOT
ATOM      1  C   UNL     1       3.710   2.183  -0.693  0.00  0.00    +0.022 A 
ATOM      2  C   UNL     1       4.965   1.693  -0.506  0.00  0.00    +0.044 A 
ATOM      3  C   UNL     1       6.031   2.574  -0.274  0.00  0.00    +0.084 A 
ATOM      4  C   UNL     1       5.694   3.946  -0.254  0.00  0.00    +0.078 A 
ATOM      5  S   UNL     1       3.948   3.947  -0.560  0.00  0.00    -0.083 S 
ATOM      6  C   UNL     1       6.657   4.916  -0.035  0.00  0.00    +0.141 A 
ATOM      7  N   UNL     1       7.917   4.524   0.158  0.00  0.00    -0.219 NA
ATOM      8  C   UNL     1       8.220   3.238   0.137  0.00  0.00    +0.224 A 
ATOM      9  N   UNL     1       7.342   2.291  -0.066  0.00  0.00    -0.235 NA
ENDROOT
BRANCH   1  12
ATOM     10  C   UNL     1       0.092   1.424  -1.361  0.00  0.00    +0.002 A 
ATOM     11  C   UNL     1       1.256   2.125  -1.121  0.00  0.00    +0.009 A 
ATOM     12  C   UNL     1       2.458   1.438  -0.949  0.00  0.00    -0.011 A 
ATOM     13  C   UNL     1       2.474   0.044  -1.019  0.00  0.00    +0.009 A 
ATOM     14  C   UNL     1       1.303  -0.645  -1.258  0.00  0.00    +0.002 A 
ATOM     15  C   UNL     1       0.115   0.043  -1.429  0.00  0.00    -0.064 A 
BRANCH  15  16
ATOM     16  C   UNL     1      -1.161  -0.717  -1.690  0.00  0.00    -0.043 C 
BRANCH  16  17
ATOM     17  N   UNL     1      -1.338  -0.892  -3.138  0.00  0.00    +0.382 N 
ATOM     18  C   UNL     1      -1.521   0.421  -3.770  0.00  0.00    -0.078 C 
ATOM     19  C   UNL     1      -1.625   0.251  -5.287  0.00  0.00    -0.006 C 
ATOM     20  C   UNL     1      -2.823  -0.646  -5.613  0.00  0.00    +0.071 C 
ATOM     21  C   UNL     1      -2.658  -1.985  -4.889  0.00  0.00    -0.006 C 
ATOM     22  C   UNL     1      -2.515  -1.733  -3.387  0.00  0.00    -0.078 C 
ATOM     23  H   UNL     1      -0.519  -1.338  -3.525  0.00  0.00    -0.081 HD
BRANCH  20  24
ATOM     24  C   UNL     1      -2.885  -0.881  -7.101  0.00  0.00    +0.213 C 
ATOM     25  O   UNL     1      -2.055  -0.382  -7.829  0.00  0.00    -0.276 OA
ATOM     26  N   UNL     1      -3.865  -1.647  -7.621  0.00  0.00    -0.329 N 
ATOM     27  H   UNL     1      -4.529  -2.047  -7.038  0.00  0.00    +0.145 HD
ATOM     28  H   UNL     1      -3.905  -1.799  -8.578  0.00  0.00    +0.145 HD
ENDBRANCH  20  24
ENDBRANCH  16  17
ENDBRANCH  15  16
ENDBRANCH   1  12
BRANCH   6  29
ATOM     29  N   UNL     1       6.320   6.260  -0.017  0.00  0.00    -0.298 N 
ATOM     30  H   UNL     1       5.389   6.528  -0.075  0.00  0.00    +0.154 HD
BRANCH  29  31
ATOM     31  C   UNL     1       7.323   7.232   0.086  0.00  0.00    +0.033 A 
ATOM     32  C   UNL     1       8.556   7.025  -0.532  0.00  0.00    +0.025 A 
ATOM     33  C   UNL     1       9.552   7.971  -0.441  0.00  0.00    +0.028 A 
ATOM     34  C   UNL     1       9.334   9.146   0.271  0.00  0.00    +0.047 A 
ATOM     35  C   UNL     1       8.092   9.358   0.895  0.00  0.00    +0.001 A 
ATOM     36  C   UNL     1       7.085   8.395   0.793  0.00  0.00    +0.033 A 
ATOM     37  C   UNL     1       8.185  10.665   1.550  0.00  0.00    +0.027 A 
ATOM     38  C   UNL     1       9.414  11.144   1.298  0.00  0.00    +0.083 A 
ATOM     39  N   UNL     1      10.115  10.251   0.535  0.00  0.00    -0.361 N 
ATOM     40  H   UNL     1      11.026  10.376   0.227  0.00  0.00    +0.165 HD
ENDBRANCH  29  31
ENDBRANCH   6  29
TORSDOF 6
