REMARK  Name = CHEMBL599047
REMARK  5 active torsions:
REMARK  status: ('A' for Active; 'I' for Inactive)
REMARK    1  A    between atoms: N_9  and  C_11
REMARK    2  A    between atoms: C_11  and  C_12
REMARK    3  A    between atoms: N_14  and  C_15
REMARK    4  A    between atoms: C_21  and  N_25
REMARK    5  A    between atoms: N_25  and  C_26
REMARK                            x       y       z     vdW  Elec       q    Type
REMARK                         _______ _______ _______ _____ _____    ______ ____
ROOT
ATOM      1  C   UNL     1       3.670  -6.235  -3.055  0.00  0.00    +0.034 A 
ATOM      2  C   UNL     1       3.141  -5.492  -4.114  0.00  0.00    +0.025 A 
ATOM      3  C   UNL     1       2.957  -6.053  -5.341  0.00  0.00    +0.030 A 
ATOM      4  C   UNL     1       3.303  -7.396  -5.552  0.00  0.00    +0.076 A 
ATOM      5  C   UNL     1       3.840  -8.154  -4.483  0.00  0.00    +0.042 A 
ATOM      6  C   UNL     1       4.025  -7.556  -3.232  0.00  0.00    +0.036 A 
ATOM      7  C   UNL     1       4.179  -9.507  -4.727  0.00  0.00    +0.134 A 
ATOM      8  N   UNL     1       3.977  -9.995  -5.943  0.00  0.00    -0.220 NA
ATOM      9  C   UNL     1       3.472  -9.247  -6.912  0.00  0.00    +0.223 A 
ATOM     10  N   UNL     1       3.139  -7.989  -6.744  0.00  0.00    -0.235 NA
ENDROOT
BRANCH   1  13
ATOM     11  C   UNL     1       2.955  -4.724  -1.361  0.00  0.00    +0.238 C 
ATOM     12  O   UNL     1       2.044  -4.368  -2.079  0.00  0.00    -0.273 OA
ATOM     13  N   UNL     1       3.848  -5.630  -1.805  0.00  0.00    -0.284 N 
ATOM     14  H   UNL     1       4.614  -5.864  -1.258  0.00  0.00    +0.155 HD
BRANCH  11  15
ATOM     15  C   UNL     1       3.087  -4.153   0.027  0.00  0.00    +0.229 C 
BRANCH  15  24
ATOM     16  C   UNL     1      -2.211  -1.196   1.392  0.00  0.00    +0.001 A 
ATOM     17  C   UNL     1      -1.627   0.022   1.069  0.00  0.00    +0.001 A 
ATOM     18  C   UNL     1      -0.314   0.060   0.644  0.00  0.00    +0.017 A 
ATOM     19  C   UNL     1       0.402  -1.117   0.547  0.00  0.00    +0.041 A 
ATOM     20  C   UNL     1      -0.173  -2.365   0.871  0.00  0.00    +0.055 A 
ATOM     21  C   UNL     1      -1.516  -2.364   1.301  0.00  0.00    +0.014 A 
ATOM     22  C   UNL     1       0.760  -3.471   0.696  0.00  0.00    +0.266 A 
ATOM     23  O   UNL     1       0.420  -4.617   0.933  0.00  0.00    -0.266 OA
ATOM     24  N   UNL     1       2.002  -3.198   0.267  0.00  0.00    -0.269 N 
ATOM     25  S   UNL     1       2.053  -1.537   0.065  0.00  0.00    -0.008 S 
ENDBRANCH  15  24
ENDBRANCH  11  15
ENDBRANCH   1  13
BRANCH   7  26
ATOM     26  N   UNL     1       4.707 -10.297  -3.725  0.00  0.00    -0.299 N 
ATOM     27  H   UNL     1       4.779  -9.951  -2.822  0.00  0.00    +0.154 HD
BRANCH  26  28
ATOM     28  C   UNL     1       5.138 -11.595  -4.013  0.00  0.00    +0.033 A 
ATOM     29  C   UNL     1       5.024 -12.595  -3.055  0.00  0.00    +0.023 A 
ATOM     30  C   UNL     1       5.450 -13.877  -3.342  0.00  0.00    +0.003 A 
ATOM     31  C   UNL     1       5.990 -14.166  -4.582  0.00  0.00    +0.015 A 
ATOM     32  C   UNL     1       6.106 -13.173  -5.538  0.00  0.00    +0.020 A 
ATOM     33  C   UNL     1       5.676 -11.889  -5.259  0.00  0.00    +0.038 A 
ATOM     34 BR   UNL     1       6.848 -13.573  -7.231  0.00  0.00    -0.050 Br
ENDBRANCH  26  28
ENDBRANCH   7  26
TORSDOF 5
