REMARK  Name = CHEMBL176582
REMARK  3 active torsions:
REMARK  status: ('A' for Active; 'I' for Inactive)
REMARK    1  A    between atoms: C_1  and  N_2
REMARK    2  A    between atoms: C_14  and  N_15
REMARK    3  A    between atoms: N_15  and  C_16
REMARK                            x       y       z     vdW  Elec       q    Type
REMARK                         _______ _______ _______ _____ _____    ______ ____
ROOT
ATOM      1  C   UNL     1       1.028   1.433   0.091  0.00  0.00    +0.150 C 
ATOM      2  N   UNL     1       0.933  -0.028   0.074  0.00  0.00    -0.333 N 
ATOM      3  C   UNL     1       1.066  -0.832  -1.014  0.00  0.00    +0.200 A 
ATOM      4  N   UNL     1       0.925  -2.080  -0.675  0.00  0.00    -0.236 NA
ATOM      5  C   UNL     1       0.692  -2.169   0.661  0.00  0.00    +0.091 A 
ATOM      6  C   UNL     1       0.698  -0.849   1.165  0.00  0.00    +0.069 A 
ATOM      7  C   UNL     1       0.492  -0.608   2.507  0.00  0.00    +0.041 A 
ATOM      8  C   UNL     1       0.277  -1.682   3.374  0.00  0.00    +0.043 A 
ATOM      9  C   UNL     1       0.272  -3.011   2.875  0.00  0.00    +0.078 A 
ATOM     10  C   UNL     1       0.475  -3.244   1.515  0.00  0.00    +0.058 A 
ATOM     11  N   UNL     1       0.061  -4.021   3.738  0.00  0.00    -0.235 NA
ATOM     12  C   UNL     1      -0.135  -3.779   5.011  0.00  0.00    +0.223 A 
ATOM     13  N   UNL     1      -0.138  -2.557   5.520  0.00  0.00    -0.220 NA
ATOM     14  C   UNL     1       0.059  -1.488   4.760  0.00  0.00    +0.134 A 
ENDROOT
BRANCH  14  15
ATOM     15  N   UNL     1       0.053  -0.221   5.306  0.00  0.00    -0.299 N 
ATOM     16  H   UNL     1       0.115   0.556   4.728  0.00  0.00    +0.154 HD
BRANCH  15  17
ATOM     17  C   UNL     1      -0.043  -0.056   6.690  0.00  0.00    +0.033 A 
ATOM     18  C   UNL     1      -0.755   1.015   7.216  0.00  0.00    +0.023 A 
ATOM     19  C   UNL     1      -0.848   1.176   8.585  0.00  0.00    +0.003 A 
ATOM     20  C   UNL     1      -0.233   0.272   9.432  0.00  0.00    +0.015 A 
ATOM     21  C   UNL     1       0.477  -0.796   8.912  0.00  0.00    +0.020 A 
ATOM     22  C   UNL     1       0.569  -0.965   7.543  0.00  0.00    +0.038 A 
ATOM     23 BR   UNL     1       1.317  -2.028  10.075  0.00  0.00    -0.050 Br
ENDBRANCH  15  17
ENDBRANCH  14  15
TORSDOF 2
