REMARK  Name = CHEMBL144589
REMARK  15 active torsions:
REMARK  status: ('A' for Active; 'I' for Inactive)
REMARK    1  A    between atoms: C_2  and  C_9
REMARK    2  A    between atoms: C_4  and  O_8
REMARK    3  A    between atoms: C_5  and  O_7
REMARK    4  A    between atoms: C_10  and  C_11
REMARK    5  A    between atoms: C_10  and  C_33
REMARK    6  A    between atoms: N_13  and  C_14
REMARK    7  A    between atoms: C_14  and  C_15
REMARK    8  A    between atoms: C_15  and  C_16
REMARK    9  A    between atoms: C_16  and  C_17
REMARK   10  A    between atoms: C_17  and  N_18
REMARK   11  A    between atoms: C_19  and  C_21
REMARK   12  A    between atoms: C_21  and  C_31
REMARK   13  A    between atoms: C_22  and  C_23
REMARK   14  A    between atoms: C_25  and  O_30
REMARK   15  A    between atoms: C_26  and  O_29
REMARK                            x       y       z     vdW  Elec       q    Type
REMARK                         _______ _______ _______ _____ _____    ______ ____
ROOT
ATOM      1  C   UNL     1      -2.630   8.351  -0.300  0.00  0.00    +0.020 C 
ENDROOT
BRANCH   1   2
ATOM      2  C   UNL     1      -1.191   7.871  -0.099  0.00  0.00    +0.104 C 
BRANCH   2   5
ATOM      3  C   UNL     1       0.000   5.758   0.134  0.00  0.00    +0.254 C 
ATOM      4  O   UNL     1       1.036   6.388   0.241  0.00  0.00    -0.269 OA
ATOM      5  N   UNL     1      -1.168   6.408  -0.039  0.00  0.00    -0.311 N 
ATOM      6  H   UNL     1      -1.994   5.906  -0.124  0.00  0.00    +0.149 HD
BRANCH   3   8
ATOM      7  C   UNL     1       1.218   3.625   0.372  0.00  0.00    +0.032 C 
ATOM      8  C   UNL     1       0.023   4.289   0.195  0.00  0.00    +0.114 C 
BRANCH   7  10
ATOM      9  C   UNL     1       2.213   1.445   1.026  0.00  0.00    +0.012 A 
ATOM     10  C   UNL     1       1.263   2.164   0.286  0.00  0.00    -0.020 A 
ATOM     11  C   UNL     1       0.357   1.478  -0.536  0.00  0.00    +0.057 A 
ATOM     12  C   UNL     1       0.405   0.102  -0.612  0.00  0.00    +0.159 A 
ATOM     13  C   UNL     1       1.353  -0.606   0.128  0.00  0.00    +0.158 A 
ATOM     14  C   UNL     1       2.252   0.071   0.943  0.00  0.00    +0.050 A 
BRANCH  13  15
ATOM     15  O   UNL     1       1.398  -1.960   0.051  0.00  0.00    -0.503 OA
ATOM     16  H   UNL     1       1.979  -2.296  -0.645  0.00  0.00    +0.292 HD
ENDBRANCH  13  15
BRANCH  12  17
ATOM     17  O   UNL     1      -0.472  -0.566  -1.407  0.00  0.00    -0.503 OA
ATOM     18  H   UNL     1      -0.158  -0.702  -2.312  0.00  0.00    +0.292 HD
ENDBRANCH  12  17
ENDBRANCH   7  10
BRANCH   8  19
ATOM     19  C   UNL     1      -1.196   3.548   0.070  0.00  0.00    +0.104 C 
ATOM     20  N   UNL     1      -2.163   2.960  -0.030  0.00  0.00    -0.191 NA
ENDBRANCH   8  19
ENDBRANCH   3   8
ENDBRANCH   2   5
ENDBRANCH   1   2
BRANCH   1  21
ATOM     21  C   UNL     1      -2.654   9.880  -0.363  0.00  0.00    +0.020 C 
BRANCH  21  22
ATOM     22  C   UNL     1      -4.092  10.359  -0.564  0.00  0.00    +0.104 C 
BRANCH  22  23
ATOM     23  N   UNL     1      -4.115  11.823  -0.624  0.00  0.00    -0.311 N 
ATOM     24  C   UNL     1      -5.284  12.472  -0.797  0.00  0.00    +0.254 C 
ATOM     25  O   UNL     1      -6.319  11.843  -0.904  0.00  0.00    -0.269 OA
ATOM     26  H   UNL     1      -3.289  12.325  -0.539  0.00  0.00    +0.149 HD
BRANCH  24  27
ATOM     27  C   UNL     1      -5.306  13.942  -0.858  0.00  0.00    +0.114 C 
ATOM     28  C   UNL     1      -6.501  14.605  -1.035  0.00  0.00    +0.032 C 
BRANCH  28  29
ATOM     29  C   UNL     1      -6.509  16.054  -1.248  0.00  0.00    -0.020 A 
ATOM     30  C   UNL     1      -5.420  16.680  -1.873  0.00  0.00    +0.057 A 
ATOM     31  C   UNL     1      -5.434  18.045  -2.070  0.00  0.00    +0.159 A 
ATOM     32  C   UNL     1      -6.530  18.801  -1.649  0.00  0.00    +0.158 A 
ATOM     33  C   UNL     1      -7.609  18.183  -1.030  0.00  0.00    +0.050 A 
ATOM     34  C   UNL     1      -7.608  16.820  -0.833  0.00  0.00    +0.012 A 
BRANCH  32  35
ATOM     35  O   UNL     1      -6.540  20.144  -1.844  0.00  0.00    -0.503 OA
ATOM     36  H   UNL     1      -6.927  20.416  -2.688  0.00  0.00    +0.292 HD
ENDBRANCH  32  35
BRANCH  31  37
ATOM     37  O   UNL     1      -4.380  18.655  -2.675  0.00  0.00    -0.503 OA
ATOM     38  H   UNL     1      -4.459  18.714  -3.637  0.00  0.00    +0.292 HD
ENDBRANCH  31  37
ENDBRANCH  28  29
BRANCH  27  39
ATOM     39  C   UNL     1      -4.087  14.683  -0.733  0.00  0.00    +0.104 C 
ATOM     40  N   UNL     1      -3.120  15.270  -0.633  0.00  0.00    -0.191 NA
ENDBRANCH  27  39
ENDBRANCH  24  27
ENDBRANCH  22  23
ENDBRANCH  21  22
ENDBRANCH   1  21
TORSDOF 15
