REMARK  Name = CHEMBL243410
REMARK  14 active torsions:
REMARK  status: ('A' for Active; 'I' for Inactive)
REMARK    1  A    between atoms: C_1  and  C_2
REMARK    2  A    between atoms: C_2  and  O_3
REMARK    3  A    between atoms: O_3  and  C_4
REMARK    4  A    between atoms: C_9  and  N_10
REMARK    5  A    between atoms: C_11  and  C_13
REMARK    6  A    between atoms: C_14  and  C_15
REMARK    7  A    between atoms: C_15  and  N_16
REMARK    8  A    between atoms: N_16  and  C_17
REMARK    9  A    between atoms: N_16  and  C_18
REMARK   10  A    between atoms: C_19  and  N_23
REMARK   11  A    between atoms: C_28  and  O_32
REMARK   12  A    between atoms: O_32  and  C_33
REMARK   13  A    between atoms: C_33  and  C_34
REMARK   14  A    between atoms: C_33  and  C_36
REMARK                            x       y       z     vdW  Elec       q    Type
REMARK                         _______ _______ _______ _____ _____    ______ ____
ROOT
ATOM      1  C   UNL     1      -1.214  -3.509  -2.028  0.00  0.00    +0.144 A 
ATOM      2  C   UNL     1      -0.185  -4.405  -2.027  0.00  0.00    +0.076 A 
ATOM      3  C   UNL     1      -0.431  -5.748  -1.705  0.00  0.00    +0.080 A 
ATOM      4  C   UNL     1      -1.752  -6.159  -1.383  0.00  0.00    +0.047 A 
ATOM      5  C   UNL     1      -2.792  -5.226  -1.390  0.00  0.00    +0.040 A 
ATOM      6  C   UNL     1      -2.521  -3.911  -1.705  0.00  0.00    +0.077 A 
ATOM      7  C   UNL     1      -1.967  -7.524  -1.061  0.00  0.00    +0.164 A 
ATOM      8  N   UNL     1      -0.919  -8.345  -1.079  0.00  0.00    -0.216 NA
ATOM      9  C   UNL     1       0.290  -7.912  -1.385  0.00  0.00    +0.224 A 
ATOM     10  N   UNL     1       0.547  -6.661  -1.691  0.00  0.00    -0.235 NA
ENDROOT
BRANCH   7  11
ATOM     11  N   UNL     1      -3.209  -7.981  -0.743  0.00  0.00    -0.228 NA
ATOM     12  C   UNL     1      -3.973  -8.488  -1.669  0.00  0.00    +0.098 C 
ATOM     13  C   UNL     1      -5.329  -9.100  -1.351  0.00  0.00    +0.142 C 
ATOM     14  C   UNL     1      -6.324  -8.491  -2.316  0.00  0.00    +0.203 C 
ATOM     15  O   UNL     1      -7.428  -8.179  -1.937  0.00  0.00    -0.288 OA
ATOM     16  C   UNL     1      -5.933  -8.282  -3.724  0.00  0.00    +0.167 C 
ATOM     17  C   UNL     1      -4.631  -8.276  -4.100  0.00  0.00    +0.102 C 
ATOM     18  C   UNL     1      -3.576  -8.500  -3.104  0.00  0.00    +0.204 C 
ATOM     19  O   UNL     1      -2.423  -8.691  -3.441  0.00  0.00    -0.286 OA
BRANCH  16  20
ATOM     20  O   UNL     1      -6.894  -8.093  -4.657  0.00  0.00    -0.480 OA
BRANCH  20  21
ATOM     21  C   UNL     1      -6.458  -7.823  -5.991  0.00  0.00    +0.235 C 
BRANCH  21  22
ATOM     22  C   UNL     1      -6.256  -9.143  -6.738  0.00  0.00    +0.260 C 
ATOM     23  F   UNL     1      -5.210  -9.859  -6.144  0.00  0.00    -0.245 F 
ENDBRANCH  21  22
BRANCH  21  24
ATOM     24  C   UNL     1      -7.516  -6.986  -6.714  0.00  0.00    +0.260 C 
ATOM     25  F   UNL     1      -7.619  -5.734  -6.098  0.00  0.00    -0.245 F 
ENDBRANCH  21  24
ENDBRANCH  20  21
ENDBRANCH  16  20
ENDBRANCH   7  11
BRANCH   6  26
ATOM     26  N   UNL     1      -3.556  -2.973  -1.708  0.00  0.00    -0.279 N 
ATOM     27  C   UNL     1      -4.696  -3.224  -1.035  0.00  0.00    +0.241 C 
ATOM     28  O   UNL     1      -4.784  -4.217  -0.337  0.00  0.00    -0.271 OA
ATOM     29  H   UNL     1      -3.454  -2.139  -2.194  0.00  0.00    +0.155 HD
BRANCH  27  30
ATOM     30  C   UNL     1      -5.834  -2.299  -1.144  0.00  0.00    +0.064 C 
ATOM     31  C   UNL     1      -6.959  -2.548  -0.480  0.00  0.00    -0.007 C 
BRANCH  31  32
ATOM     32  C   UNL     1      -8.126  -1.600  -0.592  0.00  0.00    +0.111 C 
BRANCH  32  33
ATOM     33  N   UNL     1      -9.319  -2.340  -1.023  0.00  0.00    -0.305 NA
ATOM     34  C   UNL     1      -9.745  -3.298   0.007  0.00  0.00    +0.104 C 
ATOM     35  C   UNL     1     -10.411  -1.422  -1.371  0.00  0.00    +0.104 C 
ENDBRANCH  32  33
ENDBRANCH  31  32
ENDBRANCH  27  30
ENDBRANCH   6  26
BRANCH   1  36
ATOM     36  O   UNL     1      -0.971  -2.209  -2.341  0.00  0.00    -0.490 OA
BRANCH  36  38
ATOM     37  C   UNL     1       0.455  -0.367  -2.982  0.00  0.00    +0.048 C 
ATOM     38  C   UNL     1       0.378  -1.860  -2.661  0.00  0.00    +0.226 C 
ENDBRANCH  36  38
ENDBRANCH   1  36
TORSDOF 11
