REMARK  Name = CHEMBL207815
REMARK  12 active torsions:
REMARK  status: ('A' for Active; 'I' for Inactive)
REMARK    1  A    between atoms: C_1  and  N_2
REMARK    2  A    between atoms: N_2  and  C_3
REMARK    3  A    between atoms: N_2  and  C_25
REMARK    4  A    between atoms: C_3  and  C_4
REMARK    5  A    between atoms: C_9  and  O_10
REMARK    6  A    between atoms: O_10  and  C_11
REMARK    7  A    between atoms: N_16  and  C_17
REMARK    8  A    between atoms: C_25  and  C_33
REMARK    9  A    between atoms: N_27  and  C_29
REMARK   10  A    between atoms: C_29  and  C_30
REMARK   11  A    between atoms: C_30  and  O_31
REMARK   12  A    between atoms: O_31  and  C_32
REMARK                            x       y       z     vdW  Elec       q    Type
REMARK                         _______ _______ _______ _____ _____    ______ ____
ROOT
ATOM      1  C   UNL     1      -0.115  -0.202   2.644  0.00  0.00    +0.009 A 
ATOM      2  C   UNL     1       0.455   0.964   3.060  0.00  0.00    +0.022 A 
ATOM      3  C   UNL     1       0.040   1.549   4.262  0.00  0.00    +0.041 A 
ATOM      4  C   UNL     1      -0.969   0.926   5.039  0.00  0.00    +0.079 A 
ATOM      5  C   UNL     1      -1.539  -0.271   4.591  0.00  0.00    +0.074 A 
ATOM      6  C   UNL     1      -1.114  -0.820   3.400  0.00  0.00    +0.127 A 
ATOM      7  N   UNL     1      -1.349   1.507   6.187  0.00  0.00    -0.235 NA
ATOM      8  C   UNL     1      -0.796   2.629   6.580  0.00  0.00    +0.223 A 
ATOM      9  N   UNL     1       0.149   3.247   5.889  0.00  0.00    -0.220 NA
ATOM     10  C   UNL     1       0.598   2.759   4.740  0.00  0.00    +0.134 A 
ATOM     11  N   UNL     1       1.583   3.413   4.029  0.00  0.00    -0.297 N 
ATOM     12  H   UNL     1       1.845   3.089   3.153  0.00  0.00    +0.154 HD
ENDROOT
BRANCH  11  13
ATOM     13  C   UNL     1       2.204   4.543   4.573  0.00  0.00    +0.070 A 
ATOM     14  C   UNL     1       2.226   4.731   5.948  0.00  0.00    +0.026 A 
ATOM     15  C   UNL     1       2.840   5.847   6.482  0.00  0.00    +0.003 A 
ATOM     16  C   UNL     1       3.434   6.778   5.650  0.00  0.00    +0.023 A 
ATOM     17  C   UNL     1       3.415   6.595   4.278  0.00  0.00    +0.078 A 
ATOM     18  C   UNL     1       2.806   5.477   3.736  0.00  0.00    +0.163 A 
ATOM     19  F   UNL     1       2.792   5.295   2.398  0.00  0.00    -0.202 F 
ATOM     20 CL   UNL     1       4.161   7.767   3.236  0.00  0.00    -0.081 Cl
ENDBRANCH  11  13
BRANCH   6  21
ATOM     21  O   UNL     1      -1.669  -1.979   2.959  0.00  0.00    -0.495 OA
ATOM     22  C   UNL     1      -2.685  -2.563   3.776  0.00  0.00    +0.277 C 
ENDBRANCH   6  21
BRANCH   1  23
ATOM     23  C   UNL     1       0.335  -0.828   1.349  0.00  0.00    +0.124 C 
BRANCH  23  25
ATOM     24  C   UNL     1      -0.610   0.938  -0.012  0.00  0.00    +0.106 C 
ATOM     25  N   UNL     1      -0.626  -0.500   0.287  0.00  0.00    -0.286 NA
BRANCH  25  26
ATOM     26  C   UNL     1      -0.365  -1.292  -0.922  0.00  0.00    +0.124 C 
ATOM     27  C   UNL     1       0.052  -2.746  -0.632  0.00  0.00    +0.117 C 
ATOM     28  N   UNL     1       1.443  -2.242  -0.632  0.00  0.00    -0.296 NA
ATOM     29  C   UNL     1       1.052  -1.104  -1.492  0.00  0.00    +0.117 C 
BRANCH  26  30
ATOM     30  C   UNL     1      -1.456  -1.166  -1.954  0.00  0.00    +0.233 C 
ATOM     31  O   UNL     1      -1.183  -1.219  -3.134  0.00  0.00    -0.274 OA
ATOM     32  N   UNL     1      -2.735  -0.994  -1.565  0.00  0.00    -0.328 N 
ATOM     33  H   UNL     1      -2.945  -0.879  -0.625  0.00  0.00    +0.145 HD
ATOM     34  H   UNL     1      -3.446  -0.985  -2.225  0.00  0.00    +0.145 HD
ENDBRANCH  26  30
BRANCH  28  35
ATOM     35  C   UNL     1       2.336  -3.162  -1.349  0.00  0.00    +0.112 C 
BRANCH  35  36
ATOM     36  C   UNL     1       3.790  -2.745  -1.118  0.00  0.00    +0.174 C 
BRANCH  36  37
ATOM     37  O   UNL     1       4.117  -2.903   0.264  0.00  0.00    -0.382 OA
ATOM     38  C   UNL     1       5.460  -2.539   0.589  0.00  0.00    +0.194 C 
ENDBRANCH  36  37
ENDBRANCH  35  36
ENDBRANCH  28  35
ENDBRANCH  25  26
ENDBRANCH  23  25
ENDBRANCH   1  23
TORSDOF 9
