REMARK  Name = CHEMBL245996
REMARK  10 active torsions:
REMARK  status: ('A' for Active; 'I' for Inactive)
REMARK    1  A    between atoms: C_1  and  O_2
REMARK    2  A    between atoms: O_2  and  C_3
REMARK    3  A    between atoms: C_8  and  O_9
REMARK    4  A    between atoms: O_9  and  C_10
REMARK    5  A    between atoms: C_13  and  C_34
REMARK    6  A    between atoms: C_14  and  N_15
REMARK    7  A    between atoms: N_15  and  C_16
REMARK    8  A    between atoms: C_19  and  C_21
REMARK    9  A    between atoms: C_24  and  O_27
REMARK   10  A    between atoms: O_27  and  C_28
REMARK                            x       y       z     vdW  Elec       q    Type
REMARK                         _______ _______ _______ _____ _____    ______ ____
ROOT
ATOM      1  N   UNL     1       2.492   2.084  -3.829  0.00  0.00    -0.339 N 
ATOM      2  H   UNL     1       1.758   2.546  -3.393  0.00  0.00    +0.146 HD
ENDROOT
BRANCH   1  12
ATOM      3  C   UNL     1      -0.767  -0.425  -2.910  0.00  0.00    +0.162 A 
ATOM      4  C   UNL     1       0.273   0.408  -3.208  0.00  0.00    +0.061 A 
ATOM      5  C   UNL     1       1.570  -0.111  -3.329  0.00  0.00    +0.026 A 
ATOM      6  C   UNL     1       1.798  -1.496  -3.141  0.00  0.00    +0.076 A 
ATOM      7  C   UNL     1       0.713  -2.332  -2.836  0.00  0.00    +0.077 A 
ATOM      8  C   UNL     1      -0.550  -1.797  -2.717  0.00  0.00    +0.164 A 
ATOM      9  N   UNL     1       3.036  -1.998  -3.254  0.00  0.00    -0.253 NA
ATOM     10  C   UNL     1       4.067  -1.244  -3.538  0.00  0.00    +0.132 A 
ATOM     11  C   UNL     1       3.934   0.139  -3.740  0.00  0.00    +0.091 A 
ATOM     12  C   UNL     1       2.665   0.729  -3.637  0.00  0.00    +0.056 A 
BRANCH   3  14
ATOM     13  C   UNL     1      -2.179   1.486  -3.002  0.00  0.00    +0.277 C 
ATOM     14  O   UNL     1      -2.024   0.081  -2.793  0.00  0.00    -0.491 OA
ENDBRANCH   3  14
BRANCH   8  15
ATOM     15  O   UNL     1      -1.597  -2.607  -2.416  0.00  0.00    -0.491 OA
ATOM     16  C   UNL     1      -1.312  -3.995  -2.231  0.00  0.00    +0.277 C 
ENDBRANCH   8  15
BRANCH  11  17
ATOM     17  C   UNL     1       5.081   0.939  -4.048  0.00  0.00    +0.103 C 
ATOM     18  N   UNL     1       5.991   1.573  -4.293  0.00  0.00    -0.191 NA
ENDBRANCH  11  17
ENDBRANCH   1  12
BRANCH   1  19
ATOM     19  C   UNL     1       3.416   2.826  -4.690  0.00  0.00    +0.078 C 
ATOM     20  C   UNL     1       4.133   4.033  -4.083  0.00  0.00    +0.032 C 
ATOM     21  C   UNL     1       3.013   4.243  -5.104  0.00  0.00    +0.041 C 
BRANCH  21  22
ATOM     22  C   UNL     1       3.407   4.703  -6.484  0.00  0.00    -0.042 A 
ATOM     23  C   UNL     1       4.741   4.743  -6.844  0.00  0.00    +0.007 A 
ATOM     24  C   UNL     1       5.105   5.164  -8.108  0.00  0.00    +0.046 A 
ATOM     25  C   UNL     1       4.130   5.547  -9.018  0.00  0.00    +0.128 A 
ATOM     26  C   UNL     1       2.791   5.505  -8.655  0.00  0.00    +0.046 A 
ATOM     27  C   UNL     1       2.432   5.079  -7.391  0.00  0.00    +0.007 A 
BRANCH  25  28
ATOM     28  O   UNL     1       4.484   5.962 -10.262  0.00  0.00    -0.456 OA
BRANCH  28  29
ATOM     29  C   UNL     1       5.792   5.864 -10.618  0.00  0.00    +0.128 A 
ATOM     30  C   UNL     1       6.366   4.617 -10.822  0.00  0.00    +0.046 A 
ATOM     31  C   UNL     1       7.695   4.520 -11.184  0.00  0.00    +0.004 A 
ATOM     32  C   UNL     1       8.455   5.665 -11.343  0.00  0.00    +0.000 A 
ATOM     33  C   UNL     1       7.886   6.909 -11.140  0.00  0.00    +0.004 A 
ATOM     34  C   UNL     1       6.555   7.011 -10.785  0.00  0.00    +0.046 A 
ENDBRANCH  28  29
ENDBRANCH  25  28
ENDBRANCH  21  22
ENDBRANCH   1  19
TORSDOF 8
