REMARK  Name = CHEMBL63356
REMARK  3 active torsions:
REMARK  status: ('A' for Active; 'I' for Inactive)
REMARK    1  A    between atoms: C_3  and  C_7
REMARK    2  A    between atoms: C_11  and  O_18
REMARK    3  A    between atoms: C_12  and  O_17
REMARK                            x       y       z     vdW  Elec       q    Type
REMARK                         _______ _______ _______ _____ _____    ______ ____
ROOT
ATOM      1  C   UNL     1       3.683   2.032  -0.023  0.00  0.00    +0.002 A 
ATOM      2  C   UNL     1       4.861   1.298  -0.044  0.00  0.00    +0.020 A 
ATOM      3  C   UNL     1       6.077   2.002  -0.052  0.00  0.00    +0.005 A 
ATOM      4  C   UNL     1       7.308   1.325  -0.074  0.00  0.00    +0.059 A 
ATOM      5  C   UNL     1       8.471   2.038  -0.082  0.00  0.00    +0.159 A 
ATOM      6  C   UNL     1       8.450   3.442  -0.069  0.00  0.00    +0.160 A 
ATOM      7  C   UNL     1       7.269   4.125  -0.048  0.00  0.00    +0.077 A 
ATOM      8  C   UNL     1       6.053   3.420  -0.039  0.00  0.00    +0.075 A 
ATOM      9  N   UNL     1       4.886   4.072  -0.019  0.00  0.00    -0.254 NA
ATOM     10  C   UNL     1       3.742   3.434  -0.016  0.00  0.00    +0.120 A 
ENDROOT
BRANCH   1  13
ATOM     11  C   UNL     1      -0.017   1.379   0.010  0.00  0.00    +0.020 A 
ATOM     12  C   UNL     1       1.181   2.072   0.002  0.00  0.00    +0.011 A 
ATOM     13  C   UNL     1       2.371   1.339  -0.013  0.00  0.00    +0.002 A 
ATOM     14  C   UNL     1       2.306  -0.053  -0.020  0.00  0.00    +0.119 A 
ATOM     15  N   UNL     1       1.141  -0.669  -0.012  0.00  0.00    -0.263 NA
ATOM     16  C   UNL     1       0.002  -0.004   0.002  0.00  0.00    +0.111 A 
ENDBRANCH   1  13
BRANCH   6  17
ATOM     17  O   UNL     1       9.622   4.129  -0.077  0.00  0.00    -0.503 OA
ATOM     18  H   UNL     1       9.950   4.336  -0.963  0.00  0.00    +0.292 HD
ENDBRANCH   6  17
BRANCH   5  19
ATOM     19  O   UNL     1       9.662   1.383  -0.103  0.00  0.00    -0.503 OA
ATOM     20  H   UNL     1       9.996   1.202  -0.992  0.00  0.00    +0.292 HD
ENDBRANCH   5  19
TORSDOF 3
