REMARK  Name = CHEMBL471058
REMARK  7 active torsions:
REMARK  status: ('A' for Active; 'I' for Inactive)
REMARK    1  A    between atoms: C_1  and  C_2
REMARK    2  A    between atoms: C_2  and  C_3
REMARK    3  A    between atoms: N_7  and  C_8
REMARK    4  A    between atoms: C_8  and  C_9
REMARK    5  A    between atoms: C_12  and  N_15
REMARK    6  A    between atoms: C_21  and  N_25
REMARK    7  A    between atoms: N_25  and  C_26
REMARK                            x       y       z     vdW  Elec       q    Type
REMARK                         _______ _______ _______ _____ _____    ______ ____
ROOT
ATOM      1  N   UNL     1      -2.931   4.334  -4.256  0.00  0.00    -0.294 N 
ATOM      2  C   UNL     1      -2.872   5.397  -3.379  0.00  0.00    +0.165 A 
ATOM      3  N   UNL     1      -2.502   5.407  -2.114  0.00  0.00    -0.205 NA
ATOM      4  C   UNL     1      -2.494   6.521  -1.375  0.00  0.00    +0.174 A 
ATOM      5  C   UNL     1      -2.909   7.702  -2.034  0.00  0.00    +0.099 A 
ATOM      6  S   UNL     1      -3.271   7.116  -3.669  0.00  0.00    -0.047 S 
ATOM      7  C   UNL     1      -2.944   8.915  -1.381  0.00  0.00    +0.142 A 
ATOM      8  N   UNL     1      -2.574   8.954  -0.099  0.00  0.00    -0.219 NA
ATOM      9  C   UNL     1      -2.188   7.847   0.509  0.00  0.00    +0.225 A 
ATOM     10  N   UNL     1      -2.141   6.677  -0.077  0.00  0.00    -0.215 NA
ATOM     11  H   UNL     1      -3.143   4.487  -5.190  0.00  0.00    +0.154 HD
ENDROOT
BRANCH   1  15
ATOM     12  C   UNL     1      -2.196   0.467  -2.896  0.00  0.00    -0.028 A 
ATOM     13  C   UNL     1      -2.649   1.433  -2.016  0.00  0.00    +0.007 A 
ATOM     14  C   UNL     1      -2.894   2.716  -2.464  0.00  0.00    +0.023 A 
ATOM     15  C   UNL     1      -2.684   3.036  -3.800  0.00  0.00    +0.033 A 
ATOM     16  C   UNL     1      -2.228   2.063  -4.680  0.00  0.00    +0.023 A 
ATOM     17  C   UNL     1      -1.980   0.783  -4.224  0.00  0.00    +0.007 A 
BRANCH  12  18
ATOM     18  C   UNL     1      -1.931  -0.932  -2.403  0.00  0.00    +0.158 C 
BRANCH  18  23
ATOM     19  C   UNL     1      -0.072  -0.707  -0.726  0.00  0.00    +0.087 A 
ATOM     20  N   UNL     1       1.211  -0.940  -0.694  0.00  0.00    -0.350 N 
ATOM     21  C   UNL     1       1.604  -1.415  -1.885  0.00  0.00    +0.101 A 
ATOM     22  C   UNL     1       0.523  -1.479  -2.686  0.00  0.00    +0.105 A 
ATOM     23  N   UNL     1      -0.542  -1.035  -1.949  0.00  0.00    -0.332 N 
ATOM     24  H   UNL     1       1.790  -0.793   0.070  0.00  0.00    +0.166 HD
BRANCH  19  26
ATOM     25  C   UNL     1      -0.824   1.360   0.419  0.00  0.00    +0.012 C 
ATOM     26  C   UNL     1      -0.896  -0.169   0.415  0.00  0.00    +0.069 C 
ENDBRANCH  19  26
ENDBRANCH  18  23
ENDBRANCH  12  18
ENDBRANCH   1  15
BRANCH   7  27
ATOM     27  N   UNL     1      -3.353  10.065  -2.040  0.00  0.00    -0.298 N 
ATOM     28  H   UNL     1      -3.691  10.011  -2.947  0.00  0.00    +0.154 HD
BRANCH  27  29
ATOM     29  C   UNL     1      -3.277  11.304  -1.395  0.00  0.00    +0.034 A 
ATOM     30  C   UNL     1      -2.264  11.550  -0.477  0.00  0.00    +0.026 A 
ATOM     31  C   UNL     1      -2.191  12.774   0.159  0.00  0.00    +0.041 A 
ATOM     32  C   UNL     1      -3.127  13.756  -0.117  0.00  0.00    +0.142 A 
ATOM     33  C   UNL     1      -4.138  13.514  -1.033  0.00  0.00    +0.078 A 
ATOM     34  C   UNL     1      -4.212  12.292  -1.676  0.00  0.00    +0.046 A 
ATOM     35 CL   UNL     1      -5.311  14.747  -1.377  0.00  0.00    -0.081 Cl
ATOM     36  F   UNL     1      -3.054  14.952   0.506  0.00  0.00    -0.204 F 
ENDBRANCH  27  29
ENDBRANCH   7  27
TORSDOF 6
