REMARK  Name = CHEMBL304971
REMARK  6 active torsions:
REMARK  status: ('A' for Active; 'I' for Inactive)
REMARK    1  A    between atoms: C_1  and  C_2
REMARK    2  A    between atoms: C_3  and  C_28
REMARK    3  A    between atoms: C_7  and  C_8
REMARK    4  A    between atoms: C_15  and  N_16
REMARK    5  A    between atoms: N_16  and  C_17
REMARK    6  A    between atoms: N_33  and  C_36
REMARK                            x       y       z     vdW  Elec       q    Type
REMARK                         _______ _______ _______ _____ _____    ______ ____
ROOT
ATOM      1  C   UNL     1       1.047  -0.479   2.708  0.00  0.00    +0.039 C 
ATOM      2  C   UNL     1      -0.090  -0.666   3.468  0.00  0.00    +0.053 C 
ATOM      3  C   UNL     1      -0.442  -0.004   4.740  0.00  0.00    +0.067 A 
ATOM      4  C   UNL     1      -1.689  -0.519   5.124  0.00  0.00    +0.138 A 
ATOM      5  N   UNL     1      -2.232  -0.074   6.256  0.00  0.00    -0.220 NA
ATOM      6  C   UNL     1      -1.615   0.824   6.995  0.00  0.00    +0.225 A 
ATOM      7  N   UNL     1      -0.443   1.332   6.667  0.00  0.00    -0.220 NA
ATOM      8  C   UNL     1       0.178   0.948   5.553  0.00  0.00    +0.136 A 
ATOM      9  N   UNL     1      -2.111  -1.436   4.183  0.00  0.00    -0.266 N 
ATOM     10  C   UNL     1      -1.220  -1.563   3.184  0.00  0.00    +0.250 C 
ATOM     11  O   UNL     1      -1.329  -2.295   2.216  0.00  0.00    -0.270 OA
ATOM     12  H   UNL     1      -2.947  -1.925   4.235  0.00  0.00    +0.157 HD
ENDROOT
BRANCH   1  19
ATOM     13  C   UNL     1       2.421   0.298   0.029  0.00  0.00    +0.047 C 
ATOM     14  C   UNL     1       1.970  -1.069   0.474  0.00  0.00    -0.014 A 
ATOM     15  C   UNL     1       2.095  -2.273  -0.252  0.00  0.00    +0.058 A 
ATOM     16  C   UNL     1       1.552  -3.279   0.527  0.00  0.00    +0.096 A 
ATOM     17  N   UNL     1       1.110  -2.742   1.678  0.00  0.00    -0.360 N 
ATOM     18  H   UNL     1       0.687  -3.232   2.400  0.00  0.00    +0.165 HD
ATOM     19  C   UNL     1       1.361  -1.385   1.672  0.00  0.00    +0.044 A 
BRANCH  15  20
ATOM     20  C   UNL     1       2.691  -2.430  -1.591  0.00  0.00    +0.248 C 
ATOM     21  O   UNL     1       3.671  -1.780  -1.900  0.00  0.00    -0.270 OA
ATOM     22  N   UNL     1       2.151  -3.295  -2.472  0.00  0.00    -0.295 N 
ATOM     23  C   UNL     1       0.879  -3.975  -2.180  0.00  0.00    +0.123 C 
ATOM     24  C   UNL     1      -0.063  -3.778  -3.372  0.00  0.00    +0.103 C 
ATOM     25  N   UNL     1       0.609  -4.219  -4.602  0.00  0.00    -0.302 NA
ATOM     26  C   UNL     1       1.798  -3.402  -4.882  0.00  0.00    +0.103 C 
ATOM     27  C   UNL     1       2.813  -3.578  -3.754  0.00  0.00    +0.123 C 
ATOM     28  C   UNL     1      -0.318  -4.208  -5.742  0.00  0.00    +0.105 C 
ENDBRANCH  15  20
ENDBRANCH   1  19
BRANCH   8  29
ATOM     29  N   UNL     1       1.410   1.480   5.208  0.00  0.00    -0.299 N 
ATOM     30  H   UNL     1       1.895   1.127   4.446  0.00  0.00    +0.154 HD
BRANCH  29  31
ATOM     31  C   UNL     1       1.954   2.528   5.959  0.00  0.00    +0.034 A 
ATOM     32  C   UNL     1       1.790   2.553   7.338  0.00  0.00    +0.026 A 
ATOM     33  C   UNL     1       2.328   3.588   8.078  0.00  0.00    +0.041 A 
ATOM     34  C   UNL     1       3.031   4.600   7.447  0.00  0.00    +0.142 A 
ATOM     35  C   UNL     1       3.196   4.577   6.071  0.00  0.00    +0.078 A 
ATOM     36  C   UNL     1       2.664   3.541   5.328  0.00  0.00    +0.046 A 
ATOM     37 CL   UNL     1       4.077   5.848   5.282  0.00  0.00    -0.081 Cl
ATOM     38  F   UNL     1       3.555   5.612   8.173  0.00  0.00    -0.204 F 
ENDBRANCH  29  31
ENDBRANCH   8  29
TORSDOF 4
