REMARK  Name = CHEMBL453398
REMARK  7 active torsions:
REMARK  status: ('A' for Active; 'I' for Inactive)
REMARK    1  A    between atoms: C_5  and  O_7
REMARK    2  A    between atoms: O_7  and  C_8
REMARK    3  A    between atoms: C_11  and  N_15
REMARK    4  A    between atoms: C_20  and  C_22
REMARK    5  A    between atoms: C_23  and  C_24
REMARK    6  A    between atoms: C_27  and  O_31
REMARK    7  A    between atoms: O_31  and  C_32
REMARK                            x       y       z     vdW  Elec       q    Type
REMARK                         _______ _______ _______ _____ _____    ______ ____
ROOT
ATOM      1  N   UNL     1       6.354  -4.147  -0.269  0.00  0.00    -0.298 N 
ATOM      2  C   UNL     1       6.529  -5.508  -0.469  0.00  0.00    +0.141 A 
ATOM      3  C   UNL     1       7.795  -6.045  -0.631  0.00  0.00    +0.079 A 
ATOM      4  C   UNL     1       7.979  -7.431  -0.835  0.00  0.00    +0.084 A 
ATOM      5  C   UNL     1       9.309  -7.848  -0.986  0.00  0.00    +0.053 A 
ATOM      6  C   UNL     1      10.317  -6.933  -0.931  0.00  0.00    +0.065 A 
ATOM      7  S   UNL     1       9.445  -5.399  -0.658  0.00  0.00    -0.075 S 
ATOM      8  N   UNL     1       6.843  -8.175  -0.858  0.00  0.00    -0.235 NA
ATOM      9  C   UNL     1       5.667  -7.628  -0.700  0.00  0.00    +0.224 A 
ATOM     10  N   UNL     1       5.482  -6.334  -0.504  0.00  0.00    -0.219 NA
ATOM     11  H   UNL     1       7.115  -3.548  -0.325  0.00  0.00    +0.154 HD
ENDROOT
BRANCH   1  15
ATOM     12  C   UNL     1       2.561  -2.633   0.568  0.00  0.00    +0.149 A 
ATOM     13  C   UNL     1       3.466  -1.874  -0.160  0.00  0.00    +0.049 A 
ATOM     14  C   UNL     1       4.723  -2.375  -0.438  0.00  0.00    +0.027 A 
ATOM     15  C   UNL     1       5.081  -3.639   0.012  0.00  0.00    +0.034 A 
ATOM     16  C   UNL     1       4.175  -4.399   0.741  0.00  0.00    +0.047 A 
ATOM     17  C   UNL     1       2.920  -3.894   1.022  0.00  0.00    +0.085 A 
ATOM     18 CL   UNL     1       1.790  -4.840   1.939  0.00  0.00    -0.080 Cl
BRANCH  12  19
ATOM     19  O   UNL     1       1.324  -2.138   0.840  0.00  0.00    -0.437 OA
BRANCH  19  24
ATOM     20  C   UNL     1      -0.275  -0.314   3.541  0.00  0.00    +0.007 A 
ATOM     21  C   UNL     1       0.772  -0.328   4.453  0.00  0.00    +0.020 A 
ATOM     22  C   UNL     1       1.957  -0.948   4.112  0.00  0.00    +0.114 A 
ATOM     23  N   UNL     1       2.104  -1.525   2.934  0.00  0.00    -0.221 NA
ATOM     24  C   UNL     1       1.130  -1.533   2.039  0.00  0.00    +0.221 A 
ATOM     25  C   UNL     1      -0.090  -0.928   2.315  0.00  0.00    +0.067 A 
ENDBRANCH  19  24
ENDBRANCH  12  19
ENDBRANCH   1  15
BRANCH   6  26
ATOM     26  C   UNL     1      11.727  -7.149  -1.059  0.00  0.00    -0.057 C 
ATOM     27  C   UNL     1      12.882  -7.326  -1.164  0.00  0.00    -0.078 C 
BRANCH  27  28
ATOM     28  C   UNL     1      14.332  -7.548  -1.296  0.00  0.00    +0.134 C 
ATOM     29  C   UNL     1      14.653  -8.221  -2.653  0.00  0.00    +0.077 C 
ATOM     30  C   UNL     1      14.357  -9.712  -2.341  0.00  0.00    +0.194 C 
ATOM     31  C   UNL     1      14.815  -9.858  -0.875  0.00  0.00    +0.126 C 
ATOM     32  N   UNL     1      14.800  -8.508  -0.274  0.00  0.00    -0.300 NA
ATOM     33  H   UNL     1      15.714  -8.254   0.069  0.00  0.00    +0.123 HD
BRANCH  30  34
ATOM     34  O   UNL     1      15.114 -10.568  -3.199  0.00  0.00    -0.446 OA
BRANCH  34  35
ATOM     35  C   UNL     1      14.571 -11.761  -3.506  0.00  0.00    +0.403 C 
ATOM     36  O   UNL     1      13.483 -12.066  -3.059  0.00  0.00    -0.226 OA
ATOM     37  N   UNL     1      15.234 -12.615  -4.311  0.00  0.00    -0.263 N 
ATOM     38  C   UNL     1      16.555 -12.270  -4.859  0.00  0.00    +0.139 C 
ATOM     39  C   UNL     1      17.514 -13.432  -4.578  0.00  0.00    +0.179 C 
ATOM     40  O   UNL     1      16.930 -14.649  -5.049  0.00  0.00    -0.377 OA
ATOM     41  C   UNL     1      15.710 -15.004  -4.394  0.00  0.00    +0.179 C 
ATOM     42  C   UNL     1      14.660 -13.924  -4.661  0.00  0.00    +0.139 C 
ENDBRANCH  34  35
ENDBRANCH  30  34
ENDBRANCH  27  28
ENDBRANCH   6  26
TORSDOF 7
