REMARK  Name = CHEMBL429300
REMARK  14 active torsions:
REMARK  status: ('A' for Active; 'I' for Inactive)
REMARK    1  A    between atoms: C_1  and  C_2
REMARK    2  A    between atoms: C_2  and  N_3
REMARK    3  A    between atoms: N_3  and  C_4
REMARK    4  A    between atoms: N_3  and  C_6
REMARK    5  A    between atoms: C_4  and  C_5
REMARK    6  A    between atoms: C_6  and  C_7
REMARK    7  A    between atoms: C_6  and  C_8
REMARK    8  A    between atoms: C_6  and  C_15
REMARK    9  A    between atoms: C_8  and  C_9
REMARK   10  A    between atoms: C_16  and  C_17
REMARK   11  A    between atoms: C_20  and  O_29
REMARK   12  A    between atoms: C_21  and  O_27
REMARK   13  A    between atoms: O_27  and  C_28
REMARK   14  A    between atoms: O_29  and  C_30
REMARK                            x       y       z     vdW  Elec       q    Type
REMARK                         _______ _______ _______ _____ _____    ______ ____
ROOT
ATOM      1  C   UNL     1       0.276  -2.548  -2.074  0.00  0.00    -0.107 C 
ATOM      2  C   UNL     1      -0.568  -2.941  -2.788  0.00  0.00    -0.047 C 
ENDROOT
BRANCH   2   3
ATOM      3  C   UNL     1      -1.599  -3.420  -3.660  0.00  0.00    +0.124 A 
ATOM      4  C   UNL     1      -2.322  -2.529  -4.491  0.00  0.00    +0.038 A 
ATOM      5  C   UNL     1      -2.069  -1.153  -4.502  0.00  0.00    +0.062 A 
ATOM      6  C   UNL     1      -2.798  -0.340  -5.324  0.00  0.00    +0.162 A 
ATOM      7  C   UNL     1      -3.796  -0.870  -6.156  0.00  0.00    +0.164 A 
ATOM      8  C   UNL     1      -4.062  -2.211  -6.164  0.00  0.00    +0.077 A 
ATOM      9  C   UNL     1      -3.330  -3.067  -5.331  0.00  0.00    +0.079 A 
ATOM     10  N   UNL     1      -3.554  -4.389  -5.303  0.00  0.00    -0.235 NA
ATOM     11  C   UNL     1      -2.852  -5.167  -4.513  0.00  0.00    +0.223 A 
ATOM     12  N   UNL     1      -1.899  -4.714  -3.716  0.00  0.00    -0.227 NA
BRANCH   7  13
ATOM     13  O   UNL     1      -4.506  -0.041  -6.963  0.00  0.00    -0.491 OA
ATOM     14  C   UNL     1      -5.508  -0.639  -7.787  0.00  0.00    +0.277 C 
ENDBRANCH   7  13
BRANCH   6  15
ATOM     15  O   UNL     1      -2.553   0.997  -5.336  0.00  0.00    -0.491 OA
ATOM     16  C   UNL     1      -1.525   1.476  -4.466  0.00  0.00    +0.277 C 
ENDBRANCH   6  15
ENDBRANCH   2   3
BRANCH   1  17
ATOM     17  C   UNL     1       1.335  -2.056  -1.177  0.00  0.00    +0.000 C 
ATOM     18  C   UNL     1       2.665  -2.715  -1.549  0.00  0.00    +0.004 C 
BRANCH  17  19
ATOM     19  N   UNL     1       1.455  -0.598  -1.316  0.00  0.00    +0.390 N 
ATOM     20  H   UNL     1       0.587  -0.162  -1.045  0.00  0.00    -0.080 HD
BRANCH  19  22
ATOM     21  C   UNL     1       2.770   1.378  -0.713  0.00  0.00    -0.017 C 
ATOM     22  C   UNL     1       2.539  -0.112  -0.452  0.00  0.00    -0.080 C 
ENDBRANCH  19  22
BRANCH  19  23
ATOM     23  C   UNL     1       1.756  -0.263  -2.714  0.00  0.00    -0.080 C 
ATOM     24  C   UNL     1       0.465  -0.295  -3.535  0.00  0.00    -0.017 C 
ENDBRANCH  19  23
ENDBRANCH  17  19
BRANCH  17  25
ATOM     25  C   UNL     1       0.981  -2.403   0.270  0.00  0.00    +0.035 C 
BRANCH  25  26
ATOM     26  C   UNL     1       2.128  -2.029   1.172  0.00  0.00    -0.048 A 
ATOM     27  C   UNL     1       3.395  -2.520   0.918  0.00  0.00    +0.003 A 
ATOM     28  C   UNL     1       4.448  -2.177   1.745  0.00  0.00    +0.000 A 
ATOM     29  C   UNL     1       4.235  -1.342   2.826  0.00  0.00    +0.000 A 
ATOM     30  C   UNL     1       2.968  -0.850   3.079  0.00  0.00    +0.000 A 
ATOM     31  C   UNL     1       1.916  -1.190   2.249  0.00  0.00    +0.003 A 
ENDBRANCH  25  26
ENDBRANCH  17  25
ENDBRANCH   1  17
TORSDOF 9
