REMARK  Name = CHEMBL233324
REMARK  5 active torsions:
REMARK  status: ('A' for Active; 'I' for Inactive)
REMARK    1  A    between atoms: C_3  and  C_8
REMARK    2  A    between atoms: C_8  and  N_9
REMARK    3  A    between atoms: C_13  and  N_18
REMARK    4  A    between atoms: C_21  and  C_28
REMARK    5  A    between atoms: C_28  and  N_29
REMARK                            x       y       z     vdW  Elec       q    Type
REMARK                         _______ _______ _______ _____ _____    ______ ____
ROOT
ATOM      1  N   UNL     1       3.607   6.795   4.893  0.00  0.00    -0.298 N 
ATOM      2  C   UNL     1       2.836   7.927   4.716  0.00  0.00    +0.151 A 
ATOM      3  C   UNL     1       2.580   8.796   5.801  0.00  0.00    +0.107 A 
ATOM      4  C   UNL     1       2.946   8.796   7.133  0.00  0.00    -0.034 A 
ATOM      5  C   UNL     1       2.378   9.935   7.708  0.00  0.00    +0.023 A 
ATOM      6  C   UNL     1       1.691  10.594   6.738  0.00  0.00    +0.113 A 
ATOM      7  N   UNL     1       1.804   9.918   5.580  0.00  0.00    -0.235 N 
ATOM      8  N   UNL     1       1.307  10.139   4.288  0.00  0.00    -0.155 NA
ATOM      9  C   UNL     1       1.581   9.296   3.330  0.00  0.00    +0.245 A 
ATOM     10  N   UNL     1       2.332   8.214   3.527  0.00  0.00    -0.217 NA
ATOM     11  H   UNL     1       3.944   6.571   5.775  0.00  0.00    +0.154 HD
ENDROOT
BRANCH   1  16
ATOM     12  N   UNL     1       5.005   3.498   0.690  0.00  0.00    -0.259 N 
ATOM     13  C   UNL     1       4.452   4.343   1.619  0.00  0.00    +0.069 A 
ATOM     14  C   UNL     1       3.223   4.992   1.718  0.00  0.00    +0.030 A 
ATOM     15  C   UNL     1       2.955   5.791   2.791  0.00  0.00    +0.025 A 
ATOM     16  C   UNL     1       3.901   5.970   3.801  0.00  0.00    +0.033 A 
ATOM     17  C   UNL     1       5.127   5.338   3.728  0.00  0.00    +0.034 A 
ATOM     18  C   UNL     1       5.413   4.516   2.632  0.00  0.00    +0.021 A 
ATOM     19  C   UNL     1       6.571   3.718   2.241  0.00  0.00    +0.143 A 
ATOM     20  N   UNL     1       6.290   3.139   1.109  0.00  0.00    -0.178 NA
BRANCH  12  21
ATOM     21  C   UNL     1       4.353   3.041  -0.539  0.00  0.00    +0.179 C 
BRANCH  21  24
ATOM     22  C   UNL     1       1.569   0.669   0.398  0.00  0.00    +0.003 A 
ATOM     23  C   UNL     1       2.270   1.833   0.143  0.00  0.00    +0.005 A 
ATOM     24  C   UNL     1       3.590   1.771  -0.261  0.00  0.00    -0.023 A 
ATOM     25  C   UNL     1       4.211   0.546  -0.410  0.00  0.00    +0.043 A 
ATOM     26  C   UNL     1       3.511  -0.621  -0.155  0.00  0.00    +0.124 A 
ATOM     27  C   UNL     1       2.188  -0.558   0.250  0.00  0.00    +0.038 A 
ATOM     28  F   UNL     1       4.117  -1.819  -0.301  0.00  0.00    -0.205 F 
ENDBRANCH  21  24
ENDBRANCH  12  21
ENDBRANCH   1  16
BRANCH   4  29
ATOM     29  C   UNL     1       3.795   7.766   7.832  0.00  0.00    -0.041 C 
BRANCH  29  30
ATOM     30  N   UNL     1       2.963   6.611   8.196  0.00  0.00    +0.384 N 
ATOM     31  C   UNL     1       1.920   7.065   9.102  0.00  0.00    -0.069 C 
ATOM     32  C   UNL     1       0.870   5.971   9.316  0.00  0.00    +0.077 C 
ATOM     33  C   UNL     1       1.359   5.051  10.417  0.00  0.00    +0.211 C 
ATOM     34  O   UNL     1       0.805   5.045  11.496  0.00  0.00    -0.276 OA
ATOM     35  N   UNL     1       2.403   4.247  10.196  0.00  0.00    -0.317 N 
ATOM     36  C   UNL     1       3.071   4.251   8.883  0.00  0.00    +0.085 C 
ATOM     37  C   UNL     1       3.829   5.572   8.729  0.00  0.00    -0.059 C 
ATOM     38  H   UNL     1       2.720   3.659  10.900  0.00  0.00    +0.149 HD
ATOM     39  H   UNL     1       2.523   6.261   7.358  0.00  0.00    -0.081 HD
ENDBRANCH  29  30
ENDBRANCH   4  29
TORSDOF 5
