REMARK  Name = CHEMBL332333
REMARK  2 active torsions:
REMARK  status: ('A' for Active; 'I' for Inactive)
REMARK    1  A    between atoms: C_4  and  N_7
REMARK    2  A    between atoms: N_17  and  C_18
REMARK                            x       y       z     vdW  Elec       q    Type
REMARK                         _______ _______ _______ _____ _____    ______ ____
ROOT
ATOM      1  N   UNL     1       3.623  -0.674  -0.120  0.00  0.00    -0.299 N 
ATOM      2  C   UNL     1       3.649  -2.043   0.065  0.00  0.00    +0.139 A 
ATOM      3  C   UNL     1       4.867  -2.725   0.228  0.00  0.00    +0.100 A 
ATOM      4  C   UNL     1       6.273  -2.334   0.259  0.00  0.00    +0.157 A 
ATOM      5  N   UNL     1       6.978  -3.421   0.446  0.00  0.00    -0.156 NA
ATOM      6  N   UNL     1       6.130  -4.529   0.545  0.00  0.00    -0.258 N 
ATOM      7  C   UNL     1       4.837  -4.121   0.414  0.00  0.00    +0.163 A 
ATOM      8  N   UNL     1       3.655  -4.738   0.428  0.00  0.00    -0.216 NA
ATOM      9  C   UNL     1       2.541  -4.058   0.271  0.00  0.00    +0.225 A 
ATOM     10  N   UNL     1       2.522  -2.748   0.099  0.00  0.00    -0.220 NA
ATOM     11  N   UNL     1       6.774  -1.038   0.114  0.00  0.00    -0.297 N 
ATOM     12  H   UNL     1       4.453  -0.181  -0.217  0.00  0.00    +0.154 HD
ATOM     13  H   UNL     1       6.165  -0.286   0.059  0.00  0.00    +0.154 HD
ATOM     14  H   UNL     1       6.417  -5.444   0.684  0.00  0.00    +0.191 HD
ENDROOT
BRANCH   1  18
ATOM     15  C   UNL     1      -0.020   1.340  -0.262  0.00  0.00    +0.000 A 
ATOM     16  C   UNL     1       0.118   0.220   0.537  0.00  0.00    +0.002 A 
ATOM     17  C   UNL     1       1.325  -0.450   0.586  0.00  0.00    +0.023 A 
ATOM     18  C   UNL     1       2.400   0.002  -0.168  0.00  0.00    +0.032 A 
ATOM     19  C   UNL     1       2.257   1.127  -0.970  0.00  0.00    +0.023 A 
ATOM     20  C   UNL     1       1.048   1.793  -1.015  0.00  0.00    +0.002 A 
ENDBRANCH   1  18
BRANCH  11  21
ATOM     21  C   UNL     1       8.153  -0.827   0.048  0.00  0.00    +0.032 A 
ATOM     22  C   UNL     1       8.986  -1.814  -0.463  0.00  0.00    +0.023 A 
ATOM     23  C   UNL     1      10.349  -1.601  -0.527  0.00  0.00    +0.002 A 
ATOM     24  C   UNL     1      10.885  -0.407  -0.082  0.00  0.00    +0.000 A 
ATOM     25  C   UNL     1      10.060   0.578   0.428  0.00  0.00    +0.002 A 
ATOM     26  C   UNL     1       8.695   0.375   0.488  0.00  0.00    +0.023 A 
ENDBRANCH  11  21
TORSDOF 2
