REMARK  Name = CHEMBL306315
REMARK  1 active torsions:
REMARK  status: ('A' for Active; 'I' for Inactive)
REMARK    1  A    between atoms: N_14  and  C_15
REMARK                            x       y       z     vdW  Elec       q    Type
REMARK                         _______ _______ _______ _____ _____    ______ ____
ROOT
ATOM      1  C   UNL     1      -0.011   1.290   0.869  0.00  0.00    +0.001 A 
ATOM      2  C   UNL     1       1.178   1.991   1.001  0.00  0.00    +0.002 A 
ATOM      3  C   UNL     1       2.389   1.346   0.874  0.00  0.00    +0.026 A 
ATOM      4  C   UNL     1       2.428  -0.019   0.612  0.00  0.00    +0.049 A 
ATOM      5  C   UNL     1       1.223  -0.729   0.480  0.00  0.00    +0.012 A 
ATOM      6  C   UNL     1       0.006  -0.063   0.610  0.00  0.00    +0.011 A 
ATOM      7  C   UNL     1       1.595  -2.126   0.211  0.00  0.00    +0.066 A 
ATOM      8  C   UNL     1       0.881  -3.309  -0.014  0.00  0.00    +0.136 A 
ATOM      9  N   UNL     1       1.563  -4.431  -0.231  0.00  0.00    -0.220 NA
ATOM     10  C   UNL     1       2.883  -4.431  -0.235  0.00  0.00    +0.225 A 
ATOM     11  N   UNL     1       3.593  -3.343  -0.028  0.00  0.00    -0.218 NA
ATOM     12  C   UNL     1       2.998  -2.172   0.198  0.00  0.00    +0.144 A 
ATOM     13  N   UNL     1       3.476  -0.907   0.439  0.00  0.00    -0.339 N 
ATOM     14  N   UNL     1      -0.503  -3.311  -0.010  0.00  0.00    -0.299 N 
ATOM     15  H   UNL     1      -0.990  -2.475   0.065  0.00  0.00    +0.154 HD
ATOM     16  H   UNL     1       4.416  -0.669   0.482  0.00  0.00    +0.167 HD
ENDROOT
BRANCH  14  17
ATOM     17  C   UNL     1      -1.200  -4.518  -0.116  0.00  0.00    +0.034 A 
ATOM     18  C   UNL     1      -0.689  -5.671   0.469  0.00  0.00    +0.023 A 
ATOM     19  C   UNL     1      -1.380  -6.862   0.363  0.00  0.00    +0.003 A 
ATOM     20  C   UNL     1      -2.579  -6.909  -0.323  0.00  0.00    +0.020 A 
ATOM     21  C   UNL     1      -3.092  -5.764  -0.907  0.00  0.00    +0.043 A 
ATOM     22  C   UNL     1      -2.408  -4.567  -0.800  0.00  0.00    +0.043 A 
ATOM     23 CL   UNL     1      -4.598  -5.829  -1.768  0.00  0.00    -0.083 Cl
ENDBRANCH  14  17
TORSDOF 1
