REMARK  Name = CHEMBL127367
REMARK  8 active torsions:
REMARK  status: ('A' for Active; 'I' for Inactive)
REMARK    1  A    between atoms: C_1  and  C_2
REMARK    2  A    between atoms: C_2  and  O_3
REMARK    3  A    between atoms: O_3  and  C_4
REMARK    4  A    between atoms: C_9  and  O_10
REMARK    5  A    between atoms: O_10  and  C_11
REMARK    6  A    between atoms: C_11  and  C_12
REMARK    7  A    between atoms: N_17  and  C_18
REMARK    8  A    between atoms: C_22  and  C_24
REMARK                            x       y       z     vdW  Elec       q    Type
REMARK                         _______ _______ _______ _____ _____    ______ ____
ROOT
ATOM      1  C   UNL     1       1.351  -1.868  -0.987  0.00  0.00    +0.163 A 
ATOM      2  C   UNL     1       0.640  -2.687  -0.157  0.00  0.00    +0.062 A 
ATOM      3  C   UNL     1       0.540  -4.053  -0.450  0.00  0.00    +0.044 A 
ATOM      4  C   UNL     1       1.176  -4.576  -1.603  0.00  0.00    +0.080 A 
ATOM      5  C   UNL     1       1.900  -3.718  -2.440  0.00  0.00    +0.078 A 
ATOM      6  C   UNL     1       1.978  -2.378  -2.133  0.00  0.00    +0.164 A 
ATOM      7  N   UNL     1       1.065  -5.889  -1.861  0.00  0.00    -0.235 NA
ATOM      8  C   UNL     1       0.380  -6.668  -1.059  0.00  0.00    +0.223 A 
ATOM      9  N   UNL     1      -0.230  -6.224   0.029  0.00  0.00    -0.220 NA
ATOM     10  C   UNL     1      -0.184  -4.945   0.376  0.00  0.00    +0.134 A 
ATOM     11  N   UNL     1      -0.825  -4.495   1.513  0.00  0.00    -0.299 N 
ATOM     12  H   UNL     1      -0.853  -3.546   1.711  0.00  0.00    +0.154 HD
ENDROOT
BRANCH  11  13
ATOM     13  C   UNL     1      -1.433  -5.408   2.380  0.00  0.00    +0.033 A 
ATOM     14  C   UNL     1      -2.615  -5.070   3.029  0.00  0.00    +0.023 A 
ATOM     15  C   UNL     1      -3.219  -5.969   3.887  0.00  0.00    +0.002 A 
ATOM     16  C   UNL     1      -2.653  -7.209   4.104  0.00  0.00    +0.012 A 
ATOM     17  C   UNL     1      -1.467  -7.558   3.458  0.00  0.00    +0.020 A 
ATOM     18  C   UNL     1      -0.860  -6.654   2.588  0.00  0.00    +0.034 A 
BRANCH  17  19
ATOM     19  C   UNL     1      -0.858  -8.887   3.691  0.00  0.00    +0.156 A 
ATOM     20  N   UNL     1       0.254  -9.338   3.146  0.00  0.00    -0.215 NA
ATOM     21  C   UNL     1       0.500 -10.570   3.582  0.00  0.00    +0.245 A 
ATOM     22  N   UNL     1      -0.446 -10.931   4.410  0.00  0.00    -0.161 NA
ATOM     23  H   UNL     1      -2.145  -9.811   5.046  0.00  0.00    +0.191 HD
ATOM     24  N   UNL     1      -1.341  -9.853   4.505  0.00  0.00    -0.259 N 
ENDBRANCH  17  19
ENDBRANCH  11  13
BRANCH   1  25
ATOM     25  O   UNL     1       1.447  -0.541  -0.702  0.00  0.00    -0.489 OA
BRANCH  25  27
ATOM     26  C   UNL     1       1.004   1.424   0.632  0.00  0.00    +0.048 C 
ATOM     27  C   UNL     1       0.786  -0.082   0.479  0.00  0.00    +0.226 C 
ENDBRANCH  25  27
ENDBRANCH   1  25
BRANCH   6  28
ATOM     28  O   UNL     1       2.675  -1.542  -2.946  0.00  0.00    -0.489 OA
BRANCH  28  29
ATOM     29  C   UNL     1       3.291  -2.121  -4.097  0.00  0.00    +0.226 C 
ATOM     30  C   UNL     1       4.025  -1.033  -4.885  0.00  0.00    +0.048 C 
ENDBRANCH  28  29
ENDBRANCH   6  28
TORSDOF 6
