REMARK  Name = CHEMBL271705
REMARK  8 active torsions:
REMARK  status: ('A' for Active; 'I' for Inactive)
REMARK    1  A    between atoms: C_5  and  C_7
REMARK    2  A    between atoms: C_7  and  O_8
REMARK    3  A    between atoms: O_8  and  C_9
REMARK    4  A    between atoms: C_12  and  N_16
REMARK    5  A    between atoms: C_23  and  O_24
REMARK    6  A    between atoms: O_24  and  C_25
REMARK    7  A    between atoms: C_25  and  C_26
REMARK    8  A    between atoms: C_26  and  N_27
REMARK                            x       y       z     vdW  Elec       q    Type
REMARK                         _______ _______ _______ _____ _____    ______ ____
ROOT
ATOM      1  N   UNL     1      -0.006  -7.743  -0.141  0.00  0.00    -0.299 N 
ATOM      2  C   UNL     1      -1.341  -8.097  -0.138  0.00  0.00    +0.141 A 
ATOM      3  C   UNL     1      -1.729  -9.447  -0.083  0.00  0.00    +0.121 A 
ATOM      4  C   UNL     1      -3.104  -9.752  -0.082  0.00  0.00    +0.164 A 
ATOM      5  N   UNL     1      -3.205 -11.109  -0.025  0.00  0.00    -0.257 N 
ATOM      6  H   UNL     1      -4.036 -11.609  -0.011  0.00  0.00    +0.191 HD
ATOM      7  N   UNL     1      -1.923 -11.668   0.010  0.00  0.00    -0.134 NA
ATOM      8  C   UNL     1      -1.023 -10.722  -0.022  0.00  0.00    +0.246 A 
ATOM      9  N   UNL     1      -3.981  -8.750  -0.133  0.00  0.00    -0.216 NA
ATOM     10  C   UNL     1      -3.571  -7.501  -0.182  0.00  0.00    +0.225 A 
ATOM     11  N   UNL     1      -2.292  -7.169  -0.180  0.00  0.00    -0.220 NA
ATOM     12  H   UNL     1       0.678  -8.429  -0.184  0.00  0.00    +0.154 HD
ENDROOT
BRANCH   1  16
ATOM     13  C   UNL     1       1.085  -3.722   0.035  0.00  0.00    +0.139 A 
ATOM     14  C   UNL     1      -0.070  -4.155   0.668  0.00  0.00    +0.049 A 
ATOM     15  C   UNL     1      -0.432  -5.487   0.610  0.00  0.00    +0.027 A 
ATOM     16  C   UNL     1       0.361  -6.393  -0.083  0.00  0.00    +0.034 A 
ATOM     17  C   UNL     1       1.517  -5.959  -0.717  0.00  0.00    +0.047 A 
ATOM     18  C   UNL     1       1.876  -4.625  -0.662  0.00  0.00    +0.084 A 
ATOM     19 CL   UNL     1       3.318  -4.081  -1.460  0.00  0.00    -0.080 Cl
BRANCH  13  20
ATOM     20  O   UNL     1       1.441  -2.411   0.092  0.00  0.00    -0.484 OA
BRANCH  20  21
ATOM     21  C   UNL     1       0.581  -1.537   0.827  0.00  0.00    +0.284 C 
BRANCH  21  26
ATOM     22  C   UNL     1       2.801   1.410   0.056  0.00  0.00    +0.003 A 
ATOM     23  C   UNL     1       2.099   2.406   0.717  0.00  0.00    +0.020 A 
ATOM     24  C   UNL     1       0.934   2.079   1.385  0.00  0.00    +0.111 A 
ATOM     25  N   UNL     1       0.490   0.838   1.398  0.00  0.00    -0.256 NA
ATOM     26  C   UNL     1       1.132  -0.135   0.781  0.00  0.00    +0.078 A 
ATOM     27  C   UNL     1       2.303   0.117   0.092  0.00  0.00    +0.027 A 
ENDBRANCH  21  26
ENDBRANCH  20  21
ENDBRANCH  13  20
ENDBRANCH   1  16
BRANCH   8  28
ATOM     28  O   UNL     1       0.325 -10.894  -0.004  0.00  0.00    -0.474 OA
BRANCH  28  29
ATOM     29  C   UNL     1       0.806 -12.238   0.058  0.00  0.00    +0.246 C 
BRANCH  29  30
ATOM     30  C   UNL     1       2.336 -12.232   0.070  0.00  0.00    +0.125 C 
BRANCH  30  31
ATOM     31  N   UNL     1       2.813 -11.597   1.306  0.00  0.00    -0.295 NA
ATOM     32  C   UNL     1       4.211 -11.161   1.169  0.00  0.00    +0.112 C 
ATOM     33  C   UNL     1       4.647 -10.454   2.455  0.00  0.00    +0.175 C 
ATOM     34  O   UNL     1       4.462 -11.337   3.565  0.00  0.00    -0.377 OA
ATOM     35  C   UNL     1       3.113 -11.781   3.728  0.00  0.00    +0.175 C 
ATOM     36  C   UNL     1       2.661 -12.502   2.455  0.00  0.00    +0.112 C 
ENDBRANCH  30  31
ENDBRANCH  29  30
ENDBRANCH  28  29
ENDBRANCH   8  28
TORSDOF 8
