REMARK  Name = CHEMBL398960
REMARK  14 active torsions:
REMARK  status: ('A' for Active; 'I' for Inactive)
REMARK    1  A    between atoms: C_1  and  C_2
REMARK    2  A    between atoms: C_2  and  N_3
REMARK    3  A    between atoms: N_3  and  C_4
REMARK    4  A    between atoms: N_3  and  C_6
REMARK    5  A    between atoms: C_4  and  C_5
REMARK    6  A    between atoms: C_6  and  C_7
REMARK    7  A    between atoms: C_6  and  C_8
REMARK    8  A    between atoms: C_6  and  C_15
REMARK    9  A    between atoms: C_8  and  C_9
REMARK   10  A    between atoms: C_16  and  C_17
REMARK   11  A    between atoms: C_20  and  O_29
REMARK   12  A    between atoms: C_21  and  O_27
REMARK   13  A    between atoms: O_27  and  C_28
REMARK   14  A    between atoms: O_29  and  C_30
REMARK                            x       y       z     vdW  Elec       q    Type
REMARK                         _______ _______ _______ _____ _____    ______ ____
ROOT
ATOM      1  C   UNL     1       2.577   1.110   0.567  0.00  0.00    -0.073 C 
ATOM      2  C   UNL     1       3.011   2.186   0.744  0.00  0.00    -0.044 C 
ENDROOT
BRANCH   2   3
ATOM      3  C   UNL     1       3.542   3.499   0.960  0.00  0.00    +0.124 A 
ATOM      4  C   UNL     1       2.805   4.473   1.678  0.00  0.00    +0.038 A 
ATOM      5  C   UNL     1       1.537   4.205   2.207  0.00  0.00    +0.062 A 
ATOM      6  C   UNL     1       0.871   5.182   2.891  0.00  0.00    +0.162 A 
ATOM      7  C   UNL     1       1.444   6.450   3.069  0.00  0.00    +0.164 A 
ATOM      8  C   UNL     1       2.681   6.738   2.563  0.00  0.00    +0.077 A 
ATOM      9  C   UNL     1       3.386   5.754   1.857  0.00  0.00    +0.079 A 
ATOM     10  N   UNL     1       4.602   5.987   1.342  0.00  0.00    -0.235 NA
ATOM     11  C   UNL     1       5.239   5.046   0.686  0.00  0.00    +0.223 A 
ATOM     12  N   UNL     1       4.742   3.836   0.497  0.00  0.00    -0.227 NA
BRANCH   7  13
ATOM     13  O   UNL     1       0.761   7.404   3.753  0.00  0.00    -0.491 OA
ATOM     14  C   UNL     1       1.397   8.676   3.901  0.00  0.00    +0.277 C 
ENDBRANCH   7  13
BRANCH   6  15
ATOM     15  O   UNL     1      -0.360   4.923   3.405  0.00  0.00    -0.491 OA
ATOM     16  C   UNL     1      -0.891   3.614   3.190  0.00  0.00    +0.277 C 
ENDBRANCH   6  15
ENDBRANCH   2   3
BRANCH   1  17
ATOM     17  C   UNL     1       2.031  -0.239   0.345  0.00  0.00    +0.085 C 
ATOM     18  C   UNL     1       2.962  -1.276   0.978  0.00  0.00    +0.042 C 
BRANCH  17  19
ATOM     19  N   UNL     1       0.700  -0.336   0.959  0.00  0.00    -0.287 NA
BRANCH  19  21
ATOM     20  C   UNL     1      -0.097   1.885   0.304  0.00  0.00    +0.020 C 
ATOM     21  C   UNL     1      -0.303   0.376   0.156  0.00  0.00    +0.082 C 
ENDBRANCH  19  21
BRANCH  19  22
ATOM     22  C   UNL     1       0.314  -1.740   1.159  0.00  0.00    +0.082 C 
ATOM     23  C   UNL     1       0.536  -2.125   2.623  0.00  0.00    +0.020 C 
ENDBRANCH  19  22
ENDBRANCH  17  19
BRANCH  17  24
ATOM     24  C   UNL     1       1.921  -0.504  -1.158  0.00  0.00    +0.070 C 
BRANCH  24  25
ATOM     25  C   UNL     1       1.505  -1.934  -1.387  0.00  0.00    -0.042 A 
ATOM     26  C   UNL     1       2.433  -2.962  -1.324  0.00  0.00    +0.023 A 
ATOM     27  C   UNL     1       2.014  -4.261  -1.540  0.00  0.00    +0.111 A 
ATOM     28  N   UNL     1       0.750  -4.527  -1.803  0.00  0.00    -0.263 NA
ATOM     29  C   UNL     1      -0.160  -3.575  -1.870  0.00  0.00    +0.111 A 
ATOM     30  C   UNL     1       0.183  -2.253  -1.659  0.00  0.00    +0.023 A 
ENDBRANCH  24  25
ENDBRANCH  17  24
ENDBRANCH   1  17
TORSDOF 9
