REMARK  Name = CHEMBL220037
REMARK  6 active torsions:
REMARK  status: ('A' for Active; 'I' for Inactive)
REMARK    1  A    between atoms: C_6  and  N_7
REMARK    2  A    between atoms: N_7  and  C_8
REMARK    3  A    between atoms: C_8  and  C_9
REMARK    4  A    between atoms: C_15  and  N_21
REMARK    5  A    between atoms: C_16  and  C_19
REMARK    6  A    between atoms: N_21  and  C_22
REMARK                            x       y       z     vdW  Elec       q    Type
REMARK                         _______ _______ _______ _____ _____    ______ ____
ROOT
ATOM      1  C   UNL     1       3.236   1.612   3.454  0.00  0.00    +0.025 A 
ATOM      2  C   UNL     1       3.307   2.255   2.257  0.00  0.00    +0.030 A 
ATOM      3  C   UNL     1       3.448   1.518   1.070  0.00  0.00    +0.073 A 
ATOM      4  C   UNL     1       3.515   0.106   1.137  0.00  0.00    +0.025 A 
ATOM      5  C   UNL     1       3.440  -0.537   2.380  0.00  0.00    +0.034 A 
ATOM      6  C   UNL     1       3.301   0.218   3.527  0.00  0.00    +0.028 A 
ATOM      7  C   UNL     1       3.657  -0.635  -0.061  0.00  0.00    +0.060 A 
ATOM      8  C   UNL     1       3.725   0.079  -1.266  0.00  0.00    +0.091 A 
ATOM      9  C   UNL     1       3.651   1.482  -1.238  0.00  0.00    +0.132 A 
ATOM     10  N   UNL     1       3.520   2.140  -0.116  0.00  0.00    -0.254 NA
ENDROOT
BRANCH   6  11
ATOM     11  N   UNL     1       3.225  -0.417   4.770  0.00  0.00    -0.338 N 
ATOM     12  H   UNL     1       3.270  -1.384   4.824  0.00  0.00    +0.146 HD
BRANCH  11  13
ATOM     13  C   UNL     1       3.079   0.379   5.991  0.00  0.00    +0.158 C 
BRANCH  13  14
ATOM     14  C   UNL     1       3.022  -0.538   7.185  0.00  0.00    +0.076 A 
ATOM     15  C   UNL     1       4.062  -0.885   7.967  0.00  0.00    +0.108 A 
ATOM     16  N   UNL     1       3.572  -1.728   8.928  0.00  0.00    -0.351 N 
ATOM     17  H   UNL     1       4.080  -2.147   9.640  0.00  0.00    +0.166 HD
ATOM     18  C   UNL     1       2.248  -1.866   8.700  0.00  0.00    +0.196 A 
ATOM     19  N   UNL     1       1.925  -1.148   7.659  0.00  0.00    -0.239 NA
ENDBRANCH  13  14
ENDBRANCH  11  13
ENDBRANCH   6  11
BRANCH   8  20
ATOM     20  C   UNL     1       3.869  -0.614  -2.511  0.00  0.00    +0.103 C 
ATOM     21  N   UNL     1       3.984  -1.163  -3.498  0.00  0.00    -0.191 NA
ENDBRANCH   8  20
BRANCH   7  22
ATOM     22  N   UNL     1       3.727  -2.013  -0.044  0.00  0.00    -0.313 N 
ATOM     23  H   UNL     1       2.922  -2.541  -0.167  0.00  0.00    +0.152 HD
BRANCH  22  24
ATOM     24  C   UNL     1       4.957  -2.649   0.151  0.00  0.00    +0.033 A 
ATOM     25  C   UNL     1       6.085  -1.900   0.462  0.00  0.00    +0.026 A 
ATOM     26  C   UNL     1       7.299  -2.529   0.654  0.00  0.00    +0.041 A 
ATOM     27  C   UNL     1       7.393  -3.906   0.538  0.00  0.00    +0.142 A 
ATOM     28  C   UNL     1       6.269  -4.655   0.228  0.00  0.00    +0.078 A 
ATOM     29  C   UNL     1       5.051  -4.030   0.041  0.00  0.00    +0.046 A 
ATOM     30 CL   UNL     1       6.391  -6.381   0.082  0.00  0.00    -0.081 Cl
ATOM     31  F   UNL     1       8.582  -4.519   0.726  0.00  0.00    -0.204 F 
ENDBRANCH  22  24
ENDBRANCH   7  22
TORSDOF 6
