REMARK  Name = CHEMBL392664
REMARK  6 active torsions:
REMARK  status: ('A' for Active; 'I' for Inactive)
REMARK    1  A    between atoms: C_3  and  C_8
REMARK    2  A    between atoms: C_8  and  N_9
REMARK    3  A    between atoms: C_13  and  N_18
REMARK    4  A    between atoms: C_21  and  C_28
REMARK    5  A    between atoms: C_28  and  N_29
REMARK    6  A    between atoms: N_29  and  C_30
REMARK                            x       y       z     vdW  Elec       q    Type
REMARK                         _______ _______ _______ _____ _____    ______ ____
ROOT
ATOM      1  N   UNL     1       3.262   6.401   5.100  0.00  0.00    -0.298 N 
ATOM      2  C   UNL     1       2.567   7.560   4.814  0.00  0.00    +0.151 A 
ATOM      3  C   UNL     1       2.481   8.596   5.772  0.00  0.00    +0.110 A 
ATOM      4  C   UNL     1       2.967   8.757   7.055  0.00  0.00    -0.003 A 
ATOM      5  C   UNL     1       2.544  10.012   7.494  0.00  0.00    +0.027 A 
ATOM      6  C   UNL     1       1.823  10.584   6.493  0.00  0.00    +0.113 A 
ATOM      7  N   UNL     1       1.776   9.739   5.446  0.00  0.00    -0.235 N 
ATOM      8  N   UNL     1       1.181   9.815   4.179  0.00  0.00    -0.155 NA
ATOM      9  C   UNL     1       1.299   8.822   3.341  0.00  0.00    +0.245 A 
ATOM     10  N   UNL     1       1.979   7.716   3.639  0.00  0.00    -0.217 NA
ATOM     11  H   UNL     1       3.759   6.325   5.929  0.00  0.00    +0.154 HD
ENDROOT
BRANCH   1  16
ATOM     12  N   UNL     1       2.957   2.252   1.468  0.00  0.00    -0.259 N 
ATOM     13  C   UNL     1       3.258   3.213   2.401  0.00  0.00    +0.069 A 
ATOM     14  C   UNL     1       4.407   3.526   3.123  0.00  0.00    +0.030 A 
ATOM     15  C   UNL     1       4.399   4.569   4.003  0.00  0.00    +0.025 A 
ATOM     16  C   UNL     1       3.248   5.335   4.192  0.00  0.00    +0.033 A 
ATOM     17  C   UNL     1       2.096   5.047   3.488  0.00  0.00    +0.034 A 
ATOM     18  C   UNL     1       2.091   3.979   2.583  0.00  0.00    +0.021 A 
ATOM     19  C   UNL     1       1.081   3.407   1.698  0.00  0.00    +0.143 A 
ATOM     20  N   UNL     1       1.627   2.409   1.064  0.00  0.00    -0.178 NA
BRANCH  12  21
ATOM     21  C   UNL     1       3.881   1.230   0.972  0.00  0.00    +0.179 C 
BRANCH  21  24
ATOM     22  C   UNL     1       6.487   2.921  -1.175  0.00  0.00    +0.003 A 
ATOM     23  C   UNL     1       5.812   2.434  -0.071  0.00  0.00    +0.005 A 
ATOM     24  C   UNL     1       4.616   1.760  -0.233  0.00  0.00    -0.023 A 
ATOM     25  C   UNL     1       4.094   1.572  -1.498  0.00  0.00    +0.043 A 
ATOM     26  C   UNL     1       4.769   2.059  -2.604  0.00  0.00    +0.124 A 
ATOM     27  C   UNL     1       5.967   2.734  -2.441  0.00  0.00    +0.038 A 
ATOM     28  F   UNL     1       4.260   1.875  -3.842  0.00  0.00    -0.205 F 
ENDBRANCH  21  24
ENDBRANCH  12  21
ENDBRANCH   1  16
BRANCH   4  29
ATOM     29  C   UNL     1       3.795   7.766   7.832  0.00  0.00    +0.118 C 
BRANCH  29  30
ATOM     30  N   UNL     1       5.196   7.850   7.396  0.00  0.00    -0.309 NA
ATOM     31  H   UNL     1       5.274   7.706   6.401  0.00  0.00    +0.123 HD
BRANCH  30  32
ATOM     32  C   UNL     1       6.035   6.896   8.134  0.00  0.00    +0.050 C 
ATOM     33  C   UNL     1       6.486   7.526   9.454  0.00  0.00    -0.001 C 
ATOM     34  C   UNL     1       7.424   6.558  10.180  0.00  0.00    -0.081 C 
ATOM     35  N   UNL     1       8.596   6.285   9.341  0.00  0.00    +0.379 N 
ATOM     36  C   UNL     1       8.177   5.615   8.103  0.00  0.00    -0.081 C 
ATOM     37  C   UNL     1       7.269   6.546   7.297  0.00  0.00    -0.001 C 
ATOM     38  H   UNL     1       9.056   7.153   9.113  0.00  0.00    -0.086 HD
ATOM     39  H   UNL     1       9.237   5.689   9.843  0.00  0.00    -0.086 HD
ENDBRANCH  30  32
ENDBRANCH  29  30
ENDBRANCH   4  29
TORSDOF 6
