REMARK  Name = CHEMBL522134
REMARK  5 active torsions:
REMARK  status: ('A' for Active; 'I' for Inactive)
REMARK    1  A    between atoms: C_1  and  C_2
REMARK    2  A    between atoms: C_6  and  C_8
REMARK    3  A    between atoms: C_8  and  C_9
REMARK    4  A    between atoms: C_12  and  N_19
REMARK    5  A    between atoms: C_20  and  C_22
REMARK                            x       y       z     vdW  Elec       q    Type
REMARK                         _______ _______ _______ _____ _____    ______ ____
ROOT
ATOM      1  C   UNL     1       1.496  -3.085   2.926  0.00  0.00    +0.057 A 
ATOM      2  C   UNL     1       2.185  -4.241   2.516  0.00  0.00    +0.024 A 
ATOM      3  C   UNL     1       1.591  -5.208   1.693  0.00  0.00    +0.035 A 
ATOM      4  C   UNL     1       2.318  -6.320   1.325  0.00  0.00    +0.034 A 
ATOM      5  C   UNL     1       3.637  -6.488   1.764  0.00  0.00    +0.025 A 
ATOM      6  C   UNL     1       4.232  -5.563   2.564  0.00  0.00    +0.030 A 
ATOM      7  C   UNL     1       3.522  -4.419   2.957  0.00  0.00    +0.075 A 
ATOM      8  N   UNL     1       4.068  -3.482   3.742  0.00  0.00    -0.235 NA
ATOM      9  C   UNL     1       3.375  -2.425   4.090  0.00  0.00    +0.222 A 
ATOM     10  N   UNL     1       2.127  -2.220   3.694  0.00  0.00    -0.239 NA
ENDROOT
BRANCH   4  11
ATOM     11  N   UNL     1       1.733  -7.289   0.505  0.00  0.00    -0.282 N 
ATOM     12  C   UNL     1       2.480  -7.939  -0.410  0.00  0.00    +0.241 C 
ATOM     13  O   UNL     1       3.679  -7.742  -0.466  0.00  0.00    -0.271 OA
ATOM     14  H   UNL     1       0.789  -7.494   0.594  0.00  0.00    +0.155 HD
BRANCH  12  15
ATOM     15  C   UNL     1       1.846  -8.885  -1.339  0.00  0.00    +0.060 C 
ATOM     16  C   UNL     1       2.584  -9.527  -2.242  0.00  0.00    +0.013 C 
ENDBRANCH  12  15
ENDBRANCH   4  11
BRANCH   1  17
ATOM     17  C   UNL     1       0.074  -2.838   2.491  0.00  0.00    +0.091 C 
BRANCH  17  23
ATOM     18  C   UNL     1       0.050   1.517   0.025  0.00  0.00    +0.044 C 
ATOM     19  C   UNL     1       0.059   0.010   0.013  0.00  0.00    -0.050 A 
ATOM     20  C   UNL     1       0.065  -0.671  -1.190  0.00  0.00    +0.003 A 
ATOM     21  C   UNL     1       0.074  -2.053  -1.202  0.00  0.00    +0.001 A 
ATOM     22  C   UNL     1       0.077  -2.755  -0.010  0.00  0.00    +0.004 A 
ATOM     23  C   UNL     1       0.071  -2.074   1.192  0.00  0.00    -0.041 A 
ATOM     24  C   UNL     1       0.067  -0.691   1.204  0.00  0.00    +0.007 A 
ENDBRANCH  17  23
ENDBRANCH   1  17
TORSDOF 4
