REMARK  Name = CHEMBL525725
REMARK  8 active torsions:
REMARK  status: ('A' for Active; 'I' for Inactive)
REMARK    1  A    between atoms: C_1  and  O_2
REMARK    2  A    between atoms: O_2  and  C_3
REMARK    3  A    between atoms: C_6  and  N_9
REMARK    4  A    between atoms: C_10  and  C_11
REMARK    5  A    between atoms: C_16  and  N_17
REMARK    6  A    between atoms: N_17  and  C_18
REMARK    7  A    between atoms: N_26  and  C_27
REMARK    8  A    between atoms: C_27  and  C_28
REMARK                            x       y       z     vdW  Elec       q    Type
REMARK                         _______ _______ _______ _____ _____    ______ ____
ROOT
ATOM      1  C   UNL     1       3.822  -4.259  -5.454  0.00  0.00    +0.073 A 
ATOM      2  C   UNL     1       3.418  -3.988  -6.777  0.00  0.00    +0.130 A 
ATOM      3  N   UNL     1       3.943  -4.704  -7.766  0.00  0.00    -0.220 NA
ATOM      4  C   UNL     1       4.827  -5.652  -7.526  0.00  0.00    +0.225 A 
ATOM      5  N   UNL     1       5.236  -5.943  -6.307  0.00  0.00    -0.220 NA
ATOM      6  C   UNL     1       4.774  -5.279  -5.251  0.00  0.00    +0.137 A 
ATOM      7  N   UNL     1       2.493  -2.998  -7.041  0.00  0.00    -0.342 N 
ATOM      8  H   UNL     1       2.184  -2.420  -6.325  0.00  0.00    +0.144 HD
ATOM      9  H   UNL     1       2.152  -2.880  -7.941  0.00  0.00    +0.144 HD
ENDROOT
BRANCH   1  11
ATOM     10  N   UNL     1       2.476  -2.491  -4.543  0.00  0.00    -0.255 NA
ATOM     11  C   UNL     1       3.275  -3.500  -4.325  0.00  0.00    +0.126 C 
BRANCH  10  15
ATOM     12  C   UNL     1       0.930  -0.347  -1.357  0.00  0.00    +0.120 A 
ATOM     13  C   UNL     1       1.440   0.324  -2.460  0.00  0.00    +0.048 A 
ATOM     14  C   UNL     1       1.956  -0.386  -3.523  0.00  0.00    +0.031 A 
ATOM     15  C   UNL     1       1.965  -1.782  -3.490  0.00  0.00    +0.064 A 
ATOM     16  C   UNL     1       1.450  -2.453  -2.378  0.00  0.00    +0.031 A 
ATOM     17  C   UNL     1       0.941  -1.735  -1.317  0.00  0.00    +0.048 A 
BRANCH  12  19
ATOM     18  C   UNL     1       0.441   1.781  -0.417  0.00  0.00    +0.277 C 
ATOM     19  O   UNL     1       0.422   0.356  -0.310  0.00  0.00    -0.495 OA
ENDBRANCH  12  19
ENDBRANCH  10  15
ENDBRANCH   1  11
BRANCH   6  20
ATOM     20  N   UNL     1       5.214  -5.587  -3.979  0.00  0.00    -0.299 N 
ATOM     21  H   UNL     1       4.814  -5.154  -3.209  0.00  0.00    +0.154 HD
BRANCH  20  22
ATOM     22  C   UNL     1       6.239  -6.525  -3.800  0.00  0.00    +0.033 A 
ATOM     23  C   UNL     1       6.242  -7.343  -2.669  0.00  0.00    +0.025 A 
ATOM     24  C   UNL     1       7.232  -8.263  -2.477  0.00  0.00    +0.030 A 
ATOM     25  C   UNL     1       8.254  -8.396  -3.414  0.00  0.00    +0.069 A 
ATOM     26  C   UNL     1       8.260  -7.577  -4.559  0.00  0.00    +0.021 A 
ATOM     27  C   UNL     1       7.237  -6.640  -4.747  0.00  0.00    +0.034 A 
ATOM     28  C   UNL     1       9.441  -7.955  -5.328  0.00  0.00    +0.143 A 
ATOM     29  N   UNL     1      10.052  -8.904  -4.679  0.00  0.00    -0.178 NA
ATOM     30  N   UNL     1       9.359  -9.204  -3.502  0.00  0.00    -0.259 N 
BRANCH  30  31
ATOM     31  C   UNL     1       9.751 -10.219  -2.520  0.00  0.00    +0.179 C 
BRANCH  31  32
ATOM     32  C   UNL     1       9.118 -11.538  -2.882  0.00  0.00    -0.023 A 
ATOM     33  C   UNL     1       7.870 -11.865  -2.386  0.00  0.00    +0.005 A 
ATOM     34  C   UNL     1       7.289 -13.075  -2.716  0.00  0.00    +0.003 A 
ATOM     35  C   UNL     1       7.955 -13.959  -3.543  0.00  0.00    +0.038 A 
ATOM     36  C   UNL     1       9.206 -13.633  -4.040  0.00  0.00    +0.124 A 
ATOM     37  C   UNL     1       9.784 -12.418  -3.713  0.00  0.00    +0.043 A 
ATOM     38  F   UNL     1       9.859 -14.497  -4.848  0.00  0.00    -0.205 F 
ENDBRANCH  31  32
ENDBRANCH  30  31
ENDBRANCH  20  22
ENDBRANCH   6  20
TORSDOF 7
