REMARK  Name = CHEMBL138125
REMARK  6 active torsions:
REMARK  status: ('A' for Active; 'I' for Inactive)
REMARK    1  A    between atoms: C_5  and  C_7
REMARK    2  A    between atoms: C_7  and  N_8
REMARK    3  A    between atoms: N_9  and  N_10
REMARK    4  A    between atoms: N_10  and  C_11
REMARK    5  A    between atoms: C_17  and  N_21
REMARK    6  A    between atoms: N_21  and  C_22
REMARK                            x       y       z     vdW  Elec       q    Type
REMARK                         _______ _______ _______ _____ _____    ______ ____
ROOT
ATOM      1  C   UNL     1       4.897  -3.584  -1.308  0.00  0.00    +0.051 A 
ATOM      2  C   UNL     1       5.111  -3.821  -2.670  0.00  0.00    +0.027 A 
ATOM      3  C   UNL     1       6.173  -4.560  -3.094  0.00  0.00    +0.030 A 
ATOM      4  C   UNL     1       7.069  -5.094  -2.157  0.00  0.00    +0.076 A 
ATOM      5  C   UNL     1       6.858  -4.858  -0.776  0.00  0.00    +0.042 A 
ATOM      6  C   UNL     1       5.764  -4.092  -0.362  0.00  0.00    +0.038 A 
ATOM      7  C   UNL     1       7.781  -5.411   0.146  0.00  0.00    +0.134 A 
ATOM      8  N   UNL     1       8.794  -6.121  -0.331  0.00  0.00    -0.220 NA
ATOM      9  C   UNL     1       8.951  -6.315  -1.631  0.00  0.00    +0.223 A 
ATOM     10  N   UNL     1       8.129  -5.828  -2.530  0.00  0.00    -0.235 NA
ENDROOT
BRANCH   1  11
ATOM     11  N   UNL     1       3.798  -2.821  -0.902  0.00  0.00    -0.222 N 
ATOM     12  H   UNL     1       3.647  -2.651   0.041  0.00  0.00    +0.176 HD
BRANCH  11  14
ATOM     13  N   UNL     1       1.996  -1.546  -1.507  0.00  0.00    -0.288 N 
ATOM     14  N   UNL     1       2.914  -2.302  -1.857  0.00  0.00    -0.106 NA
ATOM     15  H   UNL     1       1.318  -1.276  -2.146  0.00  0.00    +0.184 HD
BRANCH  13  16
ATOM     16  C   UNL     1       1.935  -1.059  -0.126  0.00  0.00    +0.191 C 
BRANCH  16  21
ATOM     17  C   UNL     1      -0.294  -3.294   1.932  0.00  0.00    +0.003 A 
ATOM     18  C   UNL     1      -1.501  -2.630   1.768  0.00  0.00    +0.020 A 
ATOM     19  C   UNL     1      -1.539  -1.485   0.997  0.00  0.00    +0.111 A 
ATOM     20  N   UNL     1      -0.447  -1.023   0.420  0.00  0.00    -0.258 NA
ATOM     21  C   UNL     1       0.717  -1.628   0.554  0.00  0.00    +0.062 A 
ATOM     22  C   UNL     1       0.833  -2.779   1.311  0.00  0.00    +0.025 A 
ENDBRANCH  16  21
ENDBRANCH  13  16
ENDBRANCH  11  14
ENDBRANCH   1  11
BRANCH   7  23
ATOM     23  N   UNL     1       7.629  -5.215   1.503  0.00  0.00    -0.299 N 
ATOM     24  H   UNL     1       6.840  -4.765   1.843  0.00  0.00    +0.154 HD
BRANCH  23  25
ATOM     25  C   UNL     1       8.612  -5.666   2.389  0.00  0.00    +0.033 A 
ATOM     26  C   UNL     1       8.256  -6.119   3.652  0.00  0.00    +0.023 A 
ATOM     27  C   UNL     1       9.230  -6.564   4.525  0.00  0.00    +0.003 A 
ATOM     28  C   UNL     1      10.559  -6.559   4.142  0.00  0.00    +0.015 A 
ATOM     29  C   UNL     1      10.917  -6.107   2.884  0.00  0.00    +0.020 A 
ATOM     30  C   UNL     1       9.947  -5.666   2.004  0.00  0.00    +0.038 A 
ATOM     31 BR   UNL     1      12.736  -6.101   2.365  0.00  0.00    -0.050 Br
ENDBRANCH  23  25
ENDBRANCH   7  23
TORSDOF 6
