REMARK  Name = CHEMBL57758
REMARK  7 active torsions:
REMARK  status: ('A' for Active; 'I' for Inactive)
REMARK    1  A    between atoms: C_1  and  O_2
REMARK    2  A    between atoms: O_2  and  C_3
REMARK    3  A    between atoms: C_8  and  O_9
REMARK    4  A    between atoms: O_9  and  C_10
REMARK    5  A    between atoms: C_10  and  C_11
REMARK    6  A    between atoms: C_11  and  N_12
REMARK    7  A    between atoms: N_21  and  C_22
REMARK                            x       y       z     vdW  Elec       q    Type
REMARK                         _______ _______ _______ _____ _____    ______ ____
ROOT
ATOM      1  C   UNL     1       1.225  -0.600  -0.775  0.00  0.00    +0.164 A 
ATOM      2  C   UNL     1       1.588   0.168  -1.859  0.00  0.00    +0.078 A 
ATOM      3  C   UNL     1       2.006  -0.458  -3.040  0.00  0.00    +0.080 A 
ATOM      4  C   UNL     1       2.048  -1.873  -3.100  0.00  0.00    +0.044 A 
ATOM      5  C   UNL     1       1.674  -2.631  -1.984  0.00  0.00    +0.062 A 
ATOM      6  C   UNL     1       1.275  -2.000  -0.841  0.00  0.00    +0.163 A 
ATOM      7  C   UNL     1       2.475  -2.477  -4.307  0.00  0.00    +0.134 A 
ATOM      8  N   UNL     1       2.814  -1.688  -5.318  0.00  0.00    -0.220 NA
ATOM      9  C   UNL     1       2.758  -0.370  -5.215  0.00  0.00    +0.223 A 
ATOM     10  N   UNL     1       2.370   0.245  -4.123  0.00  0.00    -0.235 NA
ATOM     11  N   UNL     1       2.539  -3.851  -4.428  0.00  0.00    -0.299 N 
ATOM     12  H   UNL     1       2.210  -4.416  -3.711  0.00  0.00    +0.154 HD
ENDROOT
BRANCH  11  13
ATOM     13  C   UNL     1       3.077  -4.427  -5.583  0.00  0.00    +0.034 A 
ATOM     14  C   UNL     1       4.133  -3.810  -6.241  0.00  0.00    +0.026 A 
ATOM     15  C   UNL     1       4.664  -4.380  -7.382  0.00  0.00    +0.041 A 
ATOM     16  C   UNL     1       4.144  -5.567  -7.870  0.00  0.00    +0.142 A 
ATOM     17  C   UNL     1       3.091  -6.185  -7.215  0.00  0.00    +0.078 A 
ATOM     18  C   UNL     1       2.560  -5.620  -6.071  0.00  0.00    +0.046 A 
ATOM     19 CL   UNL     1       2.441  -7.673  -7.829  0.00  0.00    -0.081 Cl
ATOM     20  F   UNL     1       4.664  -6.123  -8.986  0.00  0.00    -0.204 F 
ENDBRANCH  11  13
BRANCH   1  22
ATOM     21  C   UNL     1       0.789   1.433   0.376  0.00  0.00    +0.277 C 
ATOM     22  O   UNL     1       0.819   0.005   0.371  0.00  0.00    -0.491 OA
ENDBRANCH   1  22
BRANCH   6  23
ATOM     23  O   UNL     1       0.917  -2.737   0.245  0.00  0.00    -0.490 OA
BRANCH  23  24
ATOM     24  C   UNL     1       0.990  -4.158   0.116  0.00  0.00    +0.211 C 
BRANCH  24  25
ATOM     25  C   UNL     1       0.552  -4.812   1.428  0.00  0.00    -0.037 C 
BRANCH  25  26
ATOM     26  N   UNL     1      -0.865  -4.516   1.675  0.00  0.00    +0.382 N 
ATOM     27  C   UNL     1      -1.716  -5.220   0.681  0.00  0.00    -0.079 C 
ATOM     28  C   UNL     1      -3.097  -5.284   1.379  0.00  0.00    -0.020 C 
ATOM     29  C   UNL     1      -2.726  -5.530   2.859  0.00  0.00    -0.020 C 
ATOM     30  C   UNL     1      -1.273  -5.038   2.997  0.00  0.00    -0.079 C 
ATOM     31  H   UNL     1      -1.026  -3.521   1.629  0.00  0.00    -0.082 HD
ENDBRANCH  25  26
ENDBRANCH  24  25
ENDBRANCH  23  24
ENDBRANCH   6  23
TORSDOF 6
