REMARK  Name = CHEMBL93784
REMARK  9 active torsions:
REMARK  status: ('A' for Active; 'I' for Inactive)
REMARK    1  A    between atoms: C_1  and  O_2
REMARK    2  A    between atoms: O_2  and  C_3
REMARK    3  A    between atoms: C_3  and  C_4
REMARK    4  A    between atoms: N_8  and  C_9
REMARK    5  A    between atoms: C_9  and  C_10
REMARK    6  A    between atoms: C_11  and  C_12
REMARK    7  A    between atoms: N_14  and  C_15
REMARK    8  A    between atoms: C_21  and  N_25
REMARK    9  A    between atoms: N_25  and  C_26
REMARK                            x       y       z     vdW  Elec       q    Type
REMARK                         _______ _______ _______ _____ _____    ______ ____
ROOT
ATOM      1  C   UNL     1      -7.266  -3.771  -2.172  0.00  0.00    +0.035 A 
ATOM      2  C   UNL     1      -7.734  -4.875  -2.892  0.00  0.00    +0.025 A 
ATOM      3  C   UNL     1      -9.042  -4.970  -3.257  0.00  0.00    +0.030 A 
ATOM      4  C   UNL     1      -9.939  -3.951  -2.910  0.00  0.00    +0.076 A 
ATOM      5  C   UNL     1      -9.472  -2.829  -2.180  0.00  0.00    +0.042 A 
ATOM      6  C   UNL     1      -8.126  -2.753  -1.810  0.00  0.00    +0.036 A 
ATOM      7  C   UNL     1     -10.402  -1.816  -1.843  0.00  0.00    +0.134 A 
ATOM      8  N   UNL     1     -11.662  -1.969  -2.228  0.00  0.00    -0.220 NA
ATOM      9  C   UNL     1     -12.053  -3.034  -2.909  0.00  0.00    +0.223 A 
ATOM     10  N   UNL     1     -11.236  -4.003  -3.248  0.00  0.00    -0.235 NA
ENDROOT
BRANCH   1  13
ATOM     11  C   UNL     1      -4.970  -4.168  -2.647  0.00  0.00    +0.293 C 
ATOM     12  O   UNL     1      -5.291  -4.729  -3.677  0.00  0.00    -0.260 OA
ATOM     13  N   UNL     1      -5.917  -3.700  -1.810  0.00  0.00    -0.275 N 
ATOM     14  H   UNL     1      -5.663  -3.315  -0.957  0.00  0.00    +0.156 HD
BRANCH  11  16
ATOM     15  C   UNL     1      -2.449  -3.870  -2.057  0.00  0.00    -0.077 C 
ATOM     16  C   UNL     1      -3.584  -4.004  -2.323  0.00  0.00    -0.006 C 
BRANCH  15  17
ATOM     17  C   UNL     1      -1.025  -3.702  -1.724  0.00  0.00    +0.174 C 
BRANCH  17  22
ATOM     18  C   UNL     1       0.495  -2.602  -0.186  0.00  0.00    +0.083 C 
ATOM     19  C   UNL     1       0.909  -3.224   1.164  0.00  0.00    +0.022 C 
ATOM     20  C   UNL     1      -0.451  -3.464   1.870  0.00  0.00    +0.017 C 
ATOM     21  C   UNL     1      -1.358  -3.855   0.677  0.00  0.00    +0.086 C 
ATOM     22  N   UNL     1      -0.902  -3.000  -0.440  0.00  0.00    -0.286 NA
BRANCH  18  23
ATOM     23  C   UNL     1       0.597  -1.078  -0.110  0.00  0.00    +0.178 C 
BRANCH  23  25
ATOM     24  C   UNL     1      -0.106   0.812   1.185  0.00  0.00    +0.194 C 
ATOM     25  O   UNL     1      -0.137  -0.607   1.022  0.00  0.00    -0.381 OA
ENDBRANCH  23  25
ENDBRANCH  18  23
ENDBRANCH  17  22
ENDBRANCH  15  17
ENDBRANCH  11  16
ENDBRANCH   1  13
BRANCH   7  26
ATOM     26  N   UNL     1     -10.008  -0.700  -1.134  0.00  0.00    -0.299 N 
ATOM     27  H   UNL     1      -9.071  -0.564  -0.925  0.00  0.00    +0.154 HD
BRANCH  26  28
ATOM     28  C   UNL     1     -10.960   0.235  -0.716  0.00  0.00    +0.033 A 
ATOM     29  C   UNL     1     -10.627   1.581  -0.640  0.00  0.00    +0.023 A 
ATOM     30  C   UNL     1     -11.569   2.502  -0.226  0.00  0.00    +0.003 A 
ATOM     31  C   UNL     1     -12.844   2.086   0.112  0.00  0.00    +0.015 A 
ATOM     32  C   UNL     1     -13.179   0.746   0.037  0.00  0.00    +0.020 A 
ATOM     33  C   UNL     1     -12.242  -0.180  -0.381  0.00  0.00    +0.038 A 
ATOM     34 BR   UNL     1     -14.924   0.181   0.501  0.00  0.00    -0.050 Br
ENDBRANCH  26  28
ENDBRANCH   7  26
TORSDOF 8
