REMARK  Name = CHEMBL94109
REMARK  6 active torsions:
REMARK  status: ('A' for Active; 'I' for Inactive)
REMARK    1  A    between atoms: C_3  and  N_8
REMARK    2  A    between atoms: C_12  and  N_19
REMARK    3  A    between atoms: C_20  and  C_22
REMARK    4  A    between atoms: C_23  and  C_24
REMARK    5  A    between atoms: C_24  and  N_25
REMARK    6  A    between atoms: C_28  and  N_31
REMARK                            x       y       z     vdW  Elec       q    Type
REMARK                         _______ _______ _______ _____ _____    ______ ____
ROOT
ATOM      1  N   UNL     1       7.504   5.582   0.285  0.00  0.00    -0.282 N 
ATOM      2  C   UNL     1       8.700   6.204   0.286  0.00  0.00    +0.241 C 
ATOM      3  O   UNL     1       9.724   5.553   0.360  0.00  0.00    -0.271 OA
ATOM      4  H   UNL     1       6.686   6.103   0.296  0.00  0.00    +0.155 HD
ENDROOT
BRANCH   1   9
ATOM      5  N   UNL     1       4.360   2.070   2.279  0.00  0.00    -0.299 N 
ATOM      6  C   UNL     1       5.350   1.415   1.575  0.00  0.00    +0.134 A 
ATOM      7  C   UNL     1       6.370   2.139   0.910  0.00  0.00    +0.042 A 
ATOM      8  C   UNL     1       6.424   3.536   0.934  0.00  0.00    +0.036 A 
ATOM      9  C   UNL     1       7.443   4.185   0.266  0.00  0.00    +0.034 A 
ATOM     10  C   UNL     1       8.415   3.458  -0.428  0.00  0.00    +0.025 A 
ATOM     11  C   UNL     1       8.380   2.097  -0.463  0.00  0.00    +0.030 A 
ATOM     12  C   UNL     1       7.357   1.408   0.205  0.00  0.00    +0.076 A 
ATOM     13  N   UNL     1       7.284   0.069   0.197  0.00  0.00    -0.235 NA
ATOM     14  C   UNL     1       6.316  -0.549   0.832  0.00  0.00    +0.223 A 
ATOM     15  N   UNL     1       5.375   0.091   1.508  0.00  0.00    -0.220 NA
ATOM     16  H   UNL     1       4.307   3.038   2.255  0.00  0.00    +0.154 HD
BRANCH   5  19
ATOM     17  C   UNL     1       2.897  -0.570   4.378  0.00  0.00    +0.003 A 
ATOM     18  C   UNL     1       3.814   0.151   3.639  0.00  0.00    +0.023 A 
ATOM     19  C   UNL     1       3.433   1.338   3.027  0.00  0.00    +0.033 A 
ATOM     20  C   UNL     1       2.129   1.797   3.161  0.00  0.00    +0.038 A 
ATOM     21  C   UNL     1       1.215   1.071   3.901  0.00  0.00    +0.020 A 
ATOM     22  C   UNL     1       1.599  -0.111   4.509  0.00  0.00    +0.015 A 
ATOM     23 BR   UNL     1      -0.561   1.694   4.084  0.00  0.00    -0.050 Br
ENDBRANCH   5  19
ENDBRANCH   1   9
BRANCH   2  24
ATOM     24  C   UNL     1       8.765   7.671   0.197  0.00  0.00    +0.064 C 
ATOM     25  C   UNL     1       9.945   8.285   0.198  0.00  0.00    -0.007 C 
BRANCH  25  26
ATOM     26  C   UNL     1      10.013   9.788   0.107  0.00  0.00    +0.112 C 
BRANCH  26  27
ATOM     27  N   UNL     1      10.790  10.312   1.238  0.00  0.00    -0.299 NA
ATOM     28  C   UNL     1      10.101  10.065   2.510  0.00  0.00    +0.083 C 
ATOM     29  C   UNL     1      11.002  10.492   3.671  0.00  0.00    +0.000 C 
ATOM     30  C   UNL     1      11.336  11.979   3.532  0.00  0.00    -0.066 C 
ATOM     31  C   UNL     1      12.009  12.218   2.177  0.00  0.00    +0.000 C 
ATOM     32  C   UNL     1      11.079  11.741   1.060  0.00  0.00    +0.083 C 
BRANCH  30  33
ATOM     33  N   UNL     1      12.248  12.381   4.611  0.00  0.00    +0.382 N 
ATOM     34  C   UNL     1      11.606  12.136   5.908  0.00  0.00    -0.078 C 
ATOM     35  C   UNL     1      12.582  12.477   7.037  0.00  0.00    -0.019 C 
ATOM     36  C   UNL     1      12.979  13.952   6.933  0.00  0.00    -0.004 C 
ATOM     37  C   UNL     1      13.579  14.213   5.548  0.00  0.00    -0.019 C 
ATOM     38  C   UNL     1      12.566  13.807   4.475  0.00  0.00    -0.078 C 
ATOM     39  H   UNL     1      13.097  11.840   4.551  0.00  0.00    -0.081 HD
ENDBRANCH  30  33
ENDBRANCH  26  27
ENDBRANCH  25  26
ENDBRANCH   2  24
TORSDOF 6
