REMARK  Name = CHEMBL513418
REMARK  4 active torsions:
REMARK  status: ('A' for Active; 'I' for Inactive)
REMARK    1  A    between atoms: C_3  and  N_8
REMARK    2  A    between atoms: N_18  and  C_19
REMARK    3  A    between atoms: C_22  and  S_25
REMARK    4  A    between atoms: S_25  and  N_28
REMARK                            x       y       z     vdW  Elec       q    Type
REMARK                         _______ _______ _______ _____ _____    ______ ____
ROOT
ATOM      1  N   UNL     1       3.584   2.120  -0.017  0.00  0.00    -0.298 N 
ATOM      2  C   UNL     1       4.792   1.447   0.095  0.00  0.00    +0.142 A 
ATOM      3  C   UNL     1       5.980   2.137   0.193  0.00  0.00    +0.099 A 
ATOM      4  C   UNL     1       7.218   1.464   0.307  0.00  0.00    +0.174 A 
ATOM      5  N   UNL     1       7.142   0.111   0.313  0.00  0.00    -0.215 NA
ATOM      6  C   UNL     1       5.993  -0.509   0.218  0.00  0.00    +0.225 A 
ATOM      7  N   UNL     1       4.832   0.112   0.116  0.00  0.00    -0.219 NA
ATOM      8  N   UNL     1       8.301   2.243   0.394  0.00  0.00    -0.205 NA
ATOM      9  C   UNL     1       8.231   3.559   0.376  0.00  0.00    +0.165 A 
ATOM     10  S   UNL     1       6.472   3.841   0.220  0.00  0.00    -0.047 S 
ATOM     11  N   UNL     1       9.253   4.482   0.457  0.00  0.00    -0.294 N 
ATOM     12  H   UNL     1       3.559   3.087   0.058  0.00  0.00    +0.154 HD
ATOM     13  H   UNL     1       9.048   5.429   0.516  0.00  0.00    +0.154 HD
ENDROOT
BRANCH   1  16
ATOM     14  C   UNL     1       0.041   1.145   0.090  0.00  0.00    +0.003 A 
ATOM     15  C   UNL     1       1.207   1.853   0.310  0.00  0.00    +0.023 A 
ATOM     16  C   UNL     1       2.403   1.406  -0.237  0.00  0.00    +0.034 A 
ATOM     17  C   UNL     1       2.423   0.247  -1.003  0.00  0.00    +0.043 A 
ATOM     18  C   UNL     1       1.254  -0.457  -1.219  0.00  0.00    +0.043 A 
ATOM     19  C   UNL     1       0.064  -0.007  -0.672  0.00  0.00    +0.020 A 
ATOM     20 CL   UNL     1       1.277  -1.905  -2.176  0.00  0.00    -0.083 Cl
ENDBRANCH   1  16
BRANCH  11  21
ATOM     21  C   UNL     1      10.584   4.054   0.453  0.00  0.00    +0.033 A 
ATOM     22  C   UNL     1      11.568   4.834   1.047  0.00  0.00    +0.025 A 
ATOM     23  C   UNL     1      12.881   4.407   1.042  0.00  0.00    +0.030 A 
ATOM     24  C   UNL     1      13.218   3.206   0.445  0.00  0.00    +0.105 A 
ATOM     25  C   UNL     1      12.241   2.428  -0.148  0.00  0.00    +0.030 A 
ATOM     26  C   UNL     1      10.924   2.845  -0.141  0.00  0.00    +0.025 A 
BRANCH  24  27
ATOM     27  S   UNL     1      14.895   2.667   0.440  0.00  0.00    +0.056 S 
ATOM     28  O   UNL     1      15.031   1.774  -0.658  0.00  0.00    -0.153 OA
ATOM     29  O   UNL     1      15.697   3.832   0.578  0.00  0.00    -0.153 OA
BRANCH  27  30
ATOM     30  N   UNL     1      15.125   1.768   1.811  0.00  0.00    -0.204 NA
ATOM     31  H   UNL     1      14.391   1.633   2.431  0.00  0.00    +0.144 HD
ATOM     32  H   UNL     1      15.993   1.377   1.995  0.00  0.00    +0.144 HD
ENDBRANCH  27  30
ENDBRANCH  24  27
ENDBRANCH  11  21
TORSDOF 4
