REMARK  Name = CHEMBL569880
REMARK  9 active torsions:
REMARK  status: ('A' for Active; 'I' for Inactive)
REMARK    1  A    between atoms: C_1  and  O_2
REMARK    2  A    between atoms: O_2  and  C_3
REMARK    3  A    between atoms: C_3  and  C_4
REMARK    4  A    between atoms: C_4  and  O_5
REMARK    5  A    between atoms: O_5  and  C_6
REMARK    6  A    between atoms: C_11  and  N_12
REMARK    7  A    between atoms: C_13  and  C_15
REMARK    8  A    between atoms: C_21  and  C_23
REMARK    9  A    between atoms: N_29  and  C_30
REMARK                            x       y       z     vdW  Elec       q    Type
REMARK                         _______ _______ _______ _____ _____    ______ ____
ROOT
ATOM      1  C   UNL     1      -1.156  -3.605  -0.913  0.00  0.00    +0.144 A 
ATOM      2  C   UNL     1      -0.060  -4.418  -0.733  0.00  0.00    +0.076 A 
ATOM      3  C   UNL     1      -0.228  -5.807  -0.678  0.00  0.00    +0.080 A 
ATOM      4  C   UNL     1      -1.527  -6.359  -0.807  0.00  0.00    +0.042 A 
ATOM      5  C   UNL     1      -2.629  -5.517  -0.989  0.00  0.00    +0.040 A 
ATOM      6  C   UNL     1      -2.442  -4.153  -1.036  0.00  0.00    +0.076 A 
ATOM      7  C   UNL     1      -1.663  -7.767  -0.746  0.00  0.00    +0.134 A 
ATOM      8  N   UNL     1      -0.568  -8.496  -0.571  0.00  0.00    -0.220 NA
ATOM      9  C   UNL     1       0.625  -7.936  -0.455  0.00  0.00    +0.223 A 
ATOM     10  N   UNL     1       0.811  -6.638  -0.504  0.00  0.00    -0.235 NA
ATOM     11  N   UNL     1      -2.901  -8.365  -0.865  0.00  0.00    -0.297 N 
ATOM     12  H   UNL     1      -3.680  -7.828  -1.079  0.00  0.00    +0.154 HD
ENDROOT
BRANCH  11  13
ATOM     13  C   UNL     1      -3.032  -9.746  -0.677  0.00  0.00    +0.070 A 
ATOM     14  C   UNL     1      -2.107 -10.434   0.097  0.00  0.00    +0.029 A 
ATOM     15  C   UNL     1      -2.239 -11.796   0.282  0.00  0.00    +0.042 A 
ATOM     16  C   UNL     1      -3.292 -12.478  -0.304  0.00  0.00    +0.145 A 
ATOM     17  C   UNL     1      -4.217 -11.796  -1.077  0.00  0.00    +0.113 A 
ATOM     18  C   UNL     1      -4.093 -10.430  -1.261  0.00  0.00    +0.165 A 
ATOM     19  F   UNL     1      -4.997  -9.764  -2.010  0.00  0.00    -0.202 F 
ATOM     20 CL   UNL     1      -5.536 -12.654  -1.810  0.00  0.00    -0.078 Cl
ATOM     21  F   UNL     1      -3.417 -13.811  -0.121  0.00  0.00    -0.204 F 
ENDBRANCH  11  13
BRANCH   6  22
ATOM     22  N   UNL     1      -3.544  -3.306  -1.212  0.00  0.00    -0.281 N 
ATOM     23  C   UNL     1      -4.574  -3.694  -1.990  0.00  0.00    +0.238 C 
ATOM     24  O   UNL     1      -4.586  -4.808  -2.470  0.00  0.00    -0.273 OA
ATOM     25  H   UNL     1      -3.565  -2.440  -0.775  0.00  0.00    +0.155 HD
BRANCH  23  26
ATOM     26  C   UNL     1      -5.712  -2.744  -2.263  0.00  0.00    +0.162 C 
ATOM     27  C   UNL     1      -6.686  -2.734  -1.065  0.00  0.00    +0.033 C 
ATOM     28  C   UNL     1      -8.075  -2.639  -1.749  0.00  0.00    +0.021 C 
ATOM     29  C   UNL     1      -7.854  -3.490  -3.024  0.00  0.00    +0.109 C 
ATOM     30  N   UNL     1      -6.468  -3.194  -3.441  0.00  0.00    -0.286 N 
ATOM     31  C   UNL     1      -5.976  -3.316  -4.690  0.00  0.00    +0.239 C 
ATOM     32  O   UNL     1      -4.813  -3.042  -4.915  0.00  0.00    -0.271 OA
BRANCH  31  33
ATOM     33  C   UNL     1      -6.847  -3.780  -5.781  0.00  0.00    +0.060 C 
ATOM     34  C   UNL     1      -6.362  -3.900  -7.013  0.00  0.00    +0.013 C 
ENDBRANCH  31  33
ENDBRANCH  23  26
ENDBRANCH   6  22
BRANCH   1  35
ATOM     35  O   UNL     1      -0.992  -2.257  -0.966  0.00  0.00    -0.488 OA
BRANCH  35  36
ATOM     36  C   UNL     1       0.342  -1.761  -0.835  0.00  0.00    +0.257 C 
BRANCH  36  37
ATOM     37  C   UNL     1       0.327  -0.233  -0.919  0.00  0.00    +0.200 C 
BRANCH  37  39
ATOM     38  C   UNL     1      -0.458   1.726   0.217  0.00  0.00    +0.194 C 
ATOM     39  O   UNL     1      -0.386   0.299   0.199  0.00  0.00    -0.380 OA
ENDBRANCH  37  39
ENDBRANCH  36  37
ENDBRANCH  35  36
ENDBRANCH   1  35
TORSDOF 8
