REMARK  Name = CHEMBL247101
REMARK  5 active torsions:
REMARK  status: ('A' for Active; 'I' for Inactive)
REMARK    1  A    between atoms: C_1  and  C_2
REMARK    2  A    between atoms: N_11  and  C_12
REMARK    3  A    between atoms: C_15  and  O_19
REMARK    4  A    between atoms: O_19  and  C_20
REMARK    5  A    between atoms: C_20  and  C_21
REMARK                            x       y       z     vdW  Elec       q    Type
REMARK                         _______ _______ _______ _____ _____    ______ ____
ROOT
ATOM      1  C   UNL     1       0.516   0.907   4.348  0.00  0.00    +0.034 A 
ATOM      2  C   UNL     1       0.827  -0.160   5.181  0.00  0.00    +0.027 A 
ATOM      3  C   UNL     1       1.059   0.058   6.525  0.00  0.00    +0.049 A 
ATOM      4  C   UNL     1       0.980   1.342   7.044  0.00  0.00    +0.139 A 
ATOM      5  C   UNL     1       0.669   2.409   6.213  0.00  0.00    +0.084 A 
ATOM      6  C   UNL     1       0.443   2.193   4.867  0.00  0.00    +0.047 A 
ATOM      7 CL   UNL     1       0.571   4.016   6.863  0.00  0.00    -0.080 Cl
ENDROOT
BRANCH   1  18
ATOM      8  C   UNL     1      -0.993   1.279   0.223  0.00  0.00    +0.046 C 
ATOM      9  C   UNL     1      -0.416  -0.107   0.098  0.00  0.00    -0.020 A 
ATOM     10  C   UNL     1      -0.454  -0.925  -1.033  0.00  0.00    +0.025 A 
ATOM     11  C   UNL     1       0.179  -2.089  -0.728  0.00  0.00    +0.113 A 
ATOM     12  N   UNL     1       0.612  -2.035   0.545  0.00  0.00    -0.235 N 
ATOM     13  C   UNL     1       0.258  -0.810   1.077  0.00  0.00    +0.108 A 
ATOM     14  C   UNL     1       0.617  -0.525   2.415  0.00  0.00    +0.151 A 
ATOM     15  N   UNL     1       1.280  -1.433   3.112  0.00  0.00    -0.217 NA
ATOM     16  C   UNL     1       1.617  -2.608   2.585  0.00  0.00    +0.245 A 
ATOM     17  N   UNL     1       1.310  -2.937   1.360  0.00  0.00    -0.155 NA
ATOM     18  N   UNL     1       0.281   0.686   2.986  0.00  0.00    -0.298 N 
ATOM     19  H   UNL     1      -0.118   1.384   2.443  0.00  0.00    +0.154 HD
ENDBRANCH   1  18
BRANCH   4  20
ATOM     20  O   UNL     1       1.208   1.556   8.368  0.00  0.00    -0.486 OA
BRANCH  20  21
ATOM     21  C   UNL     1       1.523   0.412   9.165  0.00  0.00    +0.264 C 
BRANCH  21  22
ATOM     22  C   UNL     1       1.741   0.840  10.593  0.00  0.00    -0.008 A 
ATOM     23  C   UNL     1       3.005   1.204  11.020  0.00  0.00    +0.007 A 
ATOM     24  C   UNL     1       3.206   1.597  12.330  0.00  0.00    +0.003 A 
ATOM     25  C   UNL     1       2.145   1.625  13.215  0.00  0.00    +0.038 A 
ATOM     26  C   UNL     1       0.879   1.260  12.788  0.00  0.00    +0.124 A 
ATOM     27  C   UNL     1       0.677   0.873  11.474  0.00  0.00    +0.045 A 
ATOM     28  F   UNL     1      -0.159   1.288  13.652  0.00  0.00    -0.205 F 
ENDBRANCH  21  22
ENDBRANCH  20  21
ENDBRANCH   4  20
TORSDOF 4
