REMARK  Name = CHEMBL398960
REMARK  14 active torsions:
REMARK  status: ('A' for Active; 'I' for Inactive)
REMARK    1  A    between atoms: C_1  and  C_2
REMARK    2  A    between atoms: C_2  and  N_3
REMARK    3  A    between atoms: N_3  and  C_4
REMARK    4  A    between atoms: N_3  and  C_6
REMARK    5  A    between atoms: C_4  and  C_5
REMARK    6  A    between atoms: C_6  and  C_7
REMARK    7  A    between atoms: C_6  and  C_8
REMARK    8  A    between atoms: C_6  and  C_15
REMARK    9  A    between atoms: C_8  and  C_9
REMARK   10  A    between atoms: C_16  and  C_17
REMARK   11  A    between atoms: C_20  and  O_29
REMARK   12  A    between atoms: C_21  and  O_27
REMARK   13  A    between atoms: O_27  and  C_28
REMARK   14  A    between atoms: O_29  and  C_30
REMARK                            x       y       z     vdW  Elec       q    Type
REMARK                         _______ _______ _______ _____ _____    ______ ____
ROOT
ATOM      1  C   UNL     1       3.240  -1.291  -0.164  0.00  0.00    -0.073 C 
ATOM      2  C   UNL     1       3.648  -1.508  -1.244  0.00  0.00    -0.044 C 
ENDROOT
BRANCH   2   3
ATOM      3  C   UNL     1       4.146  -1.771  -2.560  0.00  0.00    +0.124 A 
ATOM      4  C   UNL     1       3.335  -2.410  -3.531  0.00  0.00    +0.038 A 
ATOM      5  C   UNL     1       2.022  -2.810  -3.256  0.00  0.00    +0.062 A 
ATOM      6  C   UNL     1       1.286  -3.421  -4.230  0.00  0.00    +0.162 A 
ATOM      7  C   UNL     1       1.831  -3.653  -5.502  0.00  0.00    +0.164 A 
ATOM      8  C   UNL     1       3.110  -3.273  -5.796  0.00  0.00    +0.077 A 
ATOM      9  C   UNL     1       3.888  -2.643  -4.816  0.00  0.00    +0.079 A 
ATOM     10  N   UNL     1       5.147  -2.250  -5.056  0.00  0.00    -0.235 NA
ATOM     11  C   UNL     1       5.853  -1.663  -4.118  0.00  0.00    +0.223 A 
ATOM     12  N   UNL     1       5.380  -1.419  -2.907  0.00  0.00    -0.227 NA
BRANCH   7  13
ATOM     13  O   UNL     1       1.077  -4.263  -6.454  0.00  0.00    -0.491 OA
ATOM     14  C   UNL     1       1.687  -4.472  -7.729  0.00  0.00    +0.277 C 
ENDBRANCH   7  13
BRANCH   6  15
ATOM     15  O   UNL     1       0.011  -3.810  -3.965  0.00  0.00    -0.491 OA
ATOM     16  C   UNL     1      -0.488  -3.547  -2.651  0.00  0.00    +0.277 C 
ENDBRANCH   6  15
ENDBRANCH   2   3
BRANCH   1  17
ATOM     17  C   UNL     1       2.728  -1.020   1.189  0.00  0.00    +0.085 C 
ATOM     18  C   UNL     1       3.606  -1.734   2.219  0.00  0.00    +0.042 C 
BRANCH  17  19
ATOM     19  N   UNL     1       1.348  -1.511   1.298  0.00  0.00    -0.287 NA
BRANCH  19  21
ATOM     20  C   UNL     1       0.327  -2.999   2.953  0.00  0.00    +0.020 C 
ATOM     21  C   UNL     1       0.936  -1.618   2.704  0.00  0.00    +0.082 C 
ENDBRANCH  19  21
BRANCH  19  22
ATOM     22  C   UNL     1       0.423  -0.654   0.543  0.00  0.00    +0.082 C 
ATOM     23  C   UNL     1       0.686  -0.817  -0.956  0.00  0.00    +0.020 C 
ENDBRANCH  19  22
ENDBRANCH  17  19
BRANCH  17  24
ATOM     24  C   UNL     1       2.756   0.487   1.452  0.00  0.00    +0.070 C 
BRANCH  24  25
ATOM     25  C   UNL     1       2.341   0.756   2.876  0.00  0.00    -0.042 A 
ATOM     26  C   UNL     1       1.037   1.117   3.179  0.00  0.00    +0.023 A 
ATOM     27  C   UNL     1       0.693   1.356   4.496  0.00  0.00    +0.111 A 
ATOM     28  N   UNL     1       1.588   1.244   5.458  0.00  0.00    -0.263 NA
ATOM     29  C   UNL     1       2.837   0.903   5.207  0.00  0.00    +0.111 A 
ATOM     30  C   UNL     1       3.252   0.642   3.915  0.00  0.00    +0.023 A 
ENDBRANCH  24  25
ENDBRANCH  17  24
ENDBRANCH   1  17
TORSDOF 9
