REMARK  Name = CHEMBL92006
REMARK  6 active torsions:
REMARK  status: ('A' for Active; 'I' for Inactive)
REMARK    1  A    between atoms: C_1  and  O_2
REMARK    2  A    between atoms: O_2  and  C_3
REMARK    3  A    between atoms: C_8  and  O_9
REMARK    4  A    between atoms: O_9  and  C_10
REMARK    5  A    between atoms: C_14  and  N_15
REMARK    6  A    between atoms: N_16  and  C_17
REMARK                            x       y       z     vdW  Elec       q    Type
REMARK                         _______ _______ _______ _____ _____    ______ ____
ROOT
ATOM      1  C   UNL     1       0.833  -1.534  -2.082  0.00  0.00    +0.162 A 
ATOM      2  C   UNL     1       1.431  -0.464  -2.688  0.00  0.00    +0.063 A 
ATOM      3  C   UNL     1       2.776  -0.546  -3.061  0.00  0.00    +0.050 A 
ATOM      4  C   UNL     1       3.508  -1.736  -2.808  0.00  0.00    +0.080 A 
ATOM      5  C   UNL     1       2.870  -2.817  -2.185  0.00  0.00    +0.078 A 
ATOM      6  C   UNL     1       1.556  -2.709  -1.825  0.00  0.00    +0.164 A 
ATOM      7  N   UNL     1       4.795  -1.789  -3.174  0.00  0.00    -0.235 NA
ATOM      8  C   UNL     1       5.367  -0.760  -3.755  0.00  0.00    +0.224 A 
ATOM      9  N   UNL     1       4.730   0.369  -4.012  0.00  0.00    -0.214 NA
ATOM     10  C   UNL     1       3.449   0.531  -3.691  0.00  0.00    +0.185 A 
ENDROOT
BRANCH   1  12
ATOM     11  C   UNL     1      -1.156  -0.233  -2.006  0.00  0.00    +0.277 C 
ATOM     12  O   UNL     1      -0.474  -1.456  -1.718  0.00  0.00    -0.491 OA
ENDBRANCH   1  12
BRANCH   6  13
ATOM     13  O   UNL     1       0.939  -3.756  -1.217  0.00  0.00    -0.491 OA
ATOM     14  C   UNL     1       1.726  -4.925  -0.983  0.00  0.00    +0.277 C 
ENDBRANCH   6  13
BRANCH  10  15
ATOM     15  N   UNL     1       2.801   1.700  -3.962  0.00  0.00    -0.128 NA
ATOM     16  N   UNL     1       2.992   2.298  -5.090  0.00  0.00    -0.148 NA
BRANCH  16  17
ATOM     17  C   UNL     1       3.583   1.632  -6.121  0.00  0.00    +0.088 A 
ATOM     18  C   UNL     1       3.418   0.248  -6.252  0.00  0.00    +0.032 A 
ATOM     19  C   UNL     1       4.018  -0.418  -7.298  0.00  0.00    +0.042 A 
ATOM     20  C   UNL     1       4.785   0.278  -8.220  0.00  0.00    +0.142 A 
ATOM     21  C   UNL     1       4.953   1.650  -8.097  0.00  0.00    +0.078 A 
ATOM     22  C   UNL     1       4.353   2.330  -7.058  0.00  0.00    +0.052 A 
ATOM     23 CL   UNL     1       5.916   2.512  -9.256  0.00  0.00    -0.081 Cl
ATOM     24  F   UNL     1       5.370  -0.383  -9.243  0.00  0.00    -0.204 F 
ENDBRANCH  16  17
ENDBRANCH  10  15
TORSDOF 4
