REMARK  Name = CHEMBL402316
REMARK  7 active torsions:
REMARK  status: ('A' for Active; 'I' for Inactive)
REMARK    1  A    between atoms: C_1  and  O_2
REMARK    2  A    between atoms: O_2  and  N_3
REMARK    3  A    between atoms: C_4  and  C_5
REMARK    4  A    between atoms: C_10  and  N_11
REMARK    5  A    between atoms: N_11  and  C_12
REMARK    6  A    between atoms: C_19  and  C_22
REMARK    7  A    between atoms: C_22  and  C_23
REMARK                            x       y       z     vdW  Elec       q    Type
REMARK                         _______ _______ _______ _____ _____    ______ ____
ROOT
ATOM      1  C   UNL     1       1.093  -6.138   1.312  0.00  0.00    +0.035 A 
ATOM      2  C   UNL     1       1.874  -6.740   2.296  0.00  0.00    +0.025 A 
ATOM      3  C   UNL     1       2.086  -8.101   2.281  0.00  0.00    +0.029 A 
ATOM      4  C   UNL     1       1.518  -8.880   1.282  0.00  0.00    +0.066 A 
ATOM      5  C   UNL     1       0.728  -8.280   0.286  0.00  0.00    +0.091 A 
ATOM      6  C   UNL     1       0.516  -6.899   0.314  0.00  0.00    +0.053 A 
ATOM      7  N   UNL     1       0.315  -9.273  -0.543  0.00  0.00    -0.232 NA
ATOM      8  C   UNL     1       0.788 -10.413  -0.130  0.00  0.00    +0.113 A 
ATOM      9  N   UNL     1       1.536 -10.231   0.990  0.00  0.00    -0.342 N 
ATOM     10  H   UNL     1       1.998 -10.921   1.492  0.00  0.00    +0.167 HD
ENDROOT
BRANCH   1  11
ATOM     11  N   UNL     1       0.886  -4.753   1.339  0.00  0.00    -0.299 N 
ATOM     12  H   UNL     1       1.583  -4.165   1.669  0.00  0.00    +0.154 HD
BRANCH  11  18
ATOM     13  C   UNL     1      -0.493  -2.832   0.812  0.00  0.00    +0.076 A 
ATOM     14  C   UNL     1      -1.733  -2.354   0.347  0.00  0.00    +0.130 A 
ATOM     15  N   UNL     1      -2.674  -3.233   0.013  0.00  0.00    -0.220 NA
ATOM     16  C   UNL     1      -2.459  -4.530   0.113  0.00  0.00    +0.225 A 
ATOM     17  N   UNL     1      -1.316  -5.024   0.543  0.00  0.00    -0.220 NA
ATOM     18  C   UNL     1      -0.312  -4.224   0.895  0.00  0.00    +0.137 A 
ATOM     19  N   UNL     1      -1.969  -0.997   0.239  0.00  0.00    -0.342 N 
ATOM     20  H   UNL     1      -1.249  -0.366   0.397  0.00  0.00    +0.144 HD
ATOM     21  H   UNL     1      -2.853  -0.675   0.006  0.00  0.00    +0.144 HD
BRANCH  13  23
ATOM     22  N   UNL     1       0.432  -0.629   1.014  0.00  0.00    -0.093 NA
ATOM     23  C   UNL     1       0.582  -1.903   1.195  0.00  0.00    +0.167 C 
BRANCH  22  25
ATOM     24  C   UNL     1       1.167   1.639   1.126  0.00  0.00    +0.313 C 
ATOM     25  O   UNL     1       1.467   0.265   1.382  0.00  0.00    -0.397 OA
ENDBRANCH  22  25
ENDBRANCH  13  23
ENDBRANCH  11  18
ENDBRANCH   1  11
BRANCH   8  26
ATOM     26  C   UNL     1       0.541 -11.742  -0.797  0.00  0.00    +0.109 C 
BRANCH  26  27
ATOM     27  C   UNL     1      -0.943 -11.970  -0.928  0.00  0.00    -0.037 A 
ATOM     28  C   UNL     1      -1.637 -12.605   0.085  0.00  0.00    +0.004 A 
ATOM     29  C   UNL     1      -2.998 -12.815  -0.034  0.00  0.00    +0.003 A 
ATOM     30  C   UNL     1      -3.667 -12.391  -1.167  0.00  0.00    +0.038 A 
ATOM     31  C   UNL     1      -2.973 -11.755  -2.182  0.00  0.00    +0.124 A 
ATOM     32  C   UNL     1      -1.611 -11.540  -2.059  0.00  0.00    +0.042 A 
ATOM     33  F   UNL     1      -3.626 -11.341  -3.290  0.00  0.00    -0.205 F 
ENDBRANCH  26  27
ENDBRANCH   8  26
TORSDOF 6
