REMARK  Name = CHEMBL231875
REMARK  5 active torsions:
REMARK  status: ('A' for Active; 'I' for Inactive)
REMARK    1  A    between atoms: C_3  and  C_8
REMARK    2  A    between atoms: C_8  and  N_9
REMARK    3  A    between atoms: C_13  and  N_18
REMARK    4  A    between atoms: C_21  and  C_28
REMARK    5  A    between atoms: C_28  and  N_29
REMARK                            x       y       z     vdW  Elec       q    Type
REMARK                         _______ _______ _______ _____ _____    ______ ____
ROOT
ATOM      1  N   UNL     1       3.262   6.401   5.100  0.00  0.00    -0.298 N 
ATOM      2  C   UNL     1       2.567   7.560   4.814  0.00  0.00    +0.151 A 
ATOM      3  C   UNL     1       2.481   8.596   5.772  0.00  0.00    +0.110 A 
ATOM      4  C   UNL     1       2.967   8.757   7.055  0.00  0.00    -0.003 A 
ATOM      5  C   UNL     1       2.544  10.012   7.494  0.00  0.00    +0.027 A 
ATOM      6  C   UNL     1       1.823  10.584   6.493  0.00  0.00    +0.113 A 
ATOM      7  N   UNL     1       1.776   9.739   5.446  0.00  0.00    -0.235 N 
ATOM      8  N   UNL     1       1.181   9.815   4.179  0.00  0.00    -0.155 NA
ATOM      9  C   UNL     1       1.299   8.822   3.341  0.00  0.00    +0.245 A 
ATOM     10  N   UNL     1       1.979   7.716   3.639  0.00  0.00    -0.217 NA
ATOM     11  H   UNL     1       3.759   6.325   5.929  0.00  0.00    +0.154 HD
ENDROOT
BRANCH   1  16
ATOM     12  N   UNL     1       2.956   2.252   1.469  0.00  0.00    -0.259 N 
ATOM     13  C   UNL     1       3.257   3.213   2.401  0.00  0.00    +0.069 A 
ATOM     14  C   UNL     1       4.407   3.526   3.123  0.00  0.00    +0.030 A 
ATOM     15  C   UNL     1       4.399   4.569   4.002  0.00  0.00    +0.025 A 
ATOM     16  C   UNL     1       3.248   5.335   4.192  0.00  0.00    +0.033 A 
ATOM     17  C   UNL     1       2.095   5.046   3.489  0.00  0.00    +0.034 A 
ATOM     18  C   UNL     1       2.090   3.978   2.584  0.00  0.00    +0.021 A 
ATOM     19  C   UNL     1       1.081   3.406   1.699  0.00  0.00    +0.143 A 
ATOM     20  N   UNL     1       1.626   2.408   1.065  0.00  0.00    -0.178 NA
BRANCH  12  21
ATOM     21  C   UNL     1       3.881   1.230   0.972  0.00  0.00    +0.179 C 
BRANCH  21  24
ATOM     22  C   UNL     1       6.485   2.921  -1.176  0.00  0.00    +0.003 A 
ATOM     23  C   UNL     1       5.811   2.434  -0.072  0.00  0.00    +0.005 A 
ATOM     24  C   UNL     1       4.615   1.760  -0.233  0.00  0.00    -0.023 A 
ATOM     25  C   UNL     1       4.092   1.572  -1.498  0.00  0.00    +0.043 A 
ATOM     26  C   UNL     1       4.767   2.059  -2.605  0.00  0.00    +0.124 A 
ATOM     27  C   UNL     1       5.965   2.734  -2.442  0.00  0.00    +0.038 A 
ATOM     28  F   UNL     1       4.257   1.875  -3.842  0.00  0.00    -0.205 F 
ENDBRANCH  21  24
ENDBRANCH  12  21
ENDBRANCH   1  16
BRANCH   4  29
ATOM     29  C   UNL     1       3.795   7.766   7.832  0.00  0.00    +0.121 C 
BRANCH  29  30
ATOM     30  N   UNL     1       5.196   7.850   7.396  0.00  0.00    -0.302 NA
ATOM     31  C   UNL     1       5.782   9.148   7.758  0.00  0.00    +0.065 C 
ATOM     32  C   UNL     1       7.219   9.218   7.236  0.00  0.00    -0.067 C 
ATOM     33  N   UNL     1       8.007   8.125   7.820  0.00  0.00    +0.381 N 
ATOM     34  C   UNL     1       7.423   6.835   7.430  0.00  0.00    -0.067 C 
ATOM     35  C   UNL     1       5.988   6.745   7.954  0.00  0.00    +0.065 C 
ATOM     36  H   UNL     1       8.957   8.179   7.485  0.00  0.00    -0.086 HD
ATOM     37  H   UNL     1       8.000   8.207   8.826  0.00  0.00    -0.086 HD
ENDBRANCH  29  30
ENDBRANCH   4  29
TORSDOF 5
