REMARK  Name = CHEMBL340484
REMARK  6 active torsions:
REMARK  status: ('A' for Active; 'I' for Inactive)
REMARK    1  A    between atoms: C_1  and  N_2
REMARK    2  A    between atoms: N_5  and  C_8
REMARK    3  A    between atoms: C_8  and  C_9
REMARK    4  A    between atoms: C_9  and  C_10
REMARK    5  A    between atoms: C_10  and  N_11
REMARK    6  A    between atoms: N_22  and  C_23
REMARK                            x       y       z     vdW  Elec       q    Type
REMARK                         _______ _______ _______ _____ _____    ______ ____
ROOT
ATOM      1  N   UNL     1       1.455  -6.677   3.106  0.00  0.00    -0.329 N 
ATOM      2  C   UNL     1       1.400  -8.037   3.384  0.00  0.00    +0.121 A 
ATOM      3  C   UNL     1       0.800  -8.888   2.474  0.00  0.00    +0.072 A 
ATOM      4  C   UNL     1       0.753 -10.255   2.769  0.00  0.00    +0.081 A 
ATOM      5  C   UNL     1       1.326 -10.699   3.991  0.00  0.00    +0.059 A 
ATOM      6  C   UNL     1       1.910  -9.763   4.847  0.00  0.00    +0.126 A 
ATOM      7  N   UNL     1       1.930  -8.491   4.517  0.00  0.00    -0.240 NA
ATOM      8  C   UNL     1       1.277 -12.081   4.287  0.00  0.00    +0.135 A 
ATOM      9  N   UNL     1       0.699 -12.889   3.405  0.00  0.00    -0.220 NA
ATOM     10  C   UNL     1       0.179 -12.428   2.279  0.00  0.00    +0.223 A 
ATOM     11  N   UNL     1       0.195 -11.156   1.951  0.00  0.00    -0.235 NA
ATOM     12  N   UNL     1       1.815 -12.575   5.455  0.00  0.00    -0.299 N 
ATOM     13  H   UNL     1       1.877  -6.071   3.735  0.00  0.00    +0.147 HD
ATOM     14  H   UNL     1       2.159 -11.966   6.127  0.00  0.00    +0.154 HD
ENDROOT
BRANCH  12  15
ATOM     15  C   UNL     1       1.864 -13.956   5.673  0.00  0.00    +0.033 A 
ATOM     16  C   UNL     1       1.680 -14.466   6.952  0.00  0.00    +0.023 A 
ATOM     17  C   UNL     1       1.730 -15.829   7.164  0.00  0.00    +0.003 A 
ATOM     18  C   UNL     1       1.962 -16.687   6.105  0.00  0.00    +0.015 A 
ATOM     19  C   UNL     1       2.146 -16.183   4.830  0.00  0.00    +0.020 A 
ATOM     20  C   UNL     1       2.092 -14.820   4.610  0.00  0.00    +0.038 A 
ATOM     21 BR   UNL     1       2.464 -17.361   3.385  0.00  0.00    -0.050 Br
ENDBRANCH  12  15
BRANCH   1  22
ATOM     22  C   UNL     1       0.877  -6.159   1.864  0.00  0.00    +0.101 C 
BRANCH  22  23
ATOM     23  C   UNL     1       1.070  -4.643   1.805  0.00  0.00    +0.000 C 
BRANCH  23  24
ATOM     24  C   UNL     1       0.466  -4.102   0.507  0.00  0.00    -0.077 C 
BRANCH  24  29
ATOM     25  C   UNL     1       1.790   1.179  -0.943  0.00  0.00    +0.104 C 
ATOM     26  N   UNL     1       1.579  -0.271  -0.838  0.00  0.00    -0.309 NA
ATOM     27  C   UNL     1       0.146  -0.592  -0.784  0.00  0.00    +0.065 C 
ATOM     28  C   UNL     1      -0.031  -2.111  -0.735  0.00  0.00    -0.063 C 
ATOM     29  N   UNL     1       0.652  -2.646   0.450  0.00  0.00    +0.381 N 
ATOM     30  C   UNL     1       2.086  -2.338   0.371  0.00  0.00    -0.063 C 
ATOM     31  C   UNL     1       2.281  -0.821   0.331  0.00  0.00    +0.065 C 
ATOM     32  H   UNL     1       0.264  -2.225   1.281  0.00  0.00    -0.082 HD
ENDBRANCH  24  29
ENDBRANCH  23  24
ENDBRANCH  22  23
ENDBRANCH   1  22
TORSDOF 5
