REMARK  Name = CHEMBL32844
REMARK  9 active torsions:
REMARK  status: ('A' for Active; 'I' for Inactive)
REMARK    1  A    between atoms: C_1  and  N_2
REMARK    2  A    between atoms: N_5  and  C_8
REMARK    3  A    between atoms: C_8  and  C_9
REMARK    4  A    between atoms: C_9  and  C_10
REMARK    5  A    between atoms: C_10  and  O_11
REMARK    6  A    between atoms: O_11  and  C_12
REMARK    7  A    between atoms: C_17  and  N_18
REMARK    8  A    between atoms: C_19  and  C_21
REMARK    9  A    between atoms: N_27  and  C_28
REMARK                            x       y       z     vdW  Elec       q    Type
REMARK                         _______ _______ _______ _____ _____    ______ ____
ROOT
ATOM      1  C   UNL     1       0.684  -7.757   3.753  0.00  0.00    +0.144 A 
ATOM      2  C   UNL     1       0.059  -8.358   2.684  0.00  0.00    +0.076 A 
ATOM      3  C   UNL     1       0.065  -9.753   2.572  0.00  0.00    +0.080 A 
ATOM      4  C   UNL     1       0.717 -10.531   3.561  0.00  0.00    +0.042 A 
ATOM      5  C   UNL     1       1.347  -9.903   4.641  0.00  0.00    +0.040 A 
ATOM      6  C   UNL     1       1.333  -8.528   4.729  0.00  0.00    +0.077 A 
ATOM      7  C   UNL     1       0.705 -11.940   3.417  0.00  0.00    +0.134 A 
ATOM      8  N   UNL     1       0.086 -12.458   2.365  0.00  0.00    -0.220 NA
ATOM      9  C   UNL     1      -0.509 -11.691   1.466  0.00  0.00    +0.223 A 
ATOM     10  N   UNL     1      -0.531 -10.382   1.546  0.00  0.00    -0.235 NA
ATOM     11  N   UNL     1       1.323 -12.752   4.348  0.00  0.00    -0.299 N 
ATOM     12  H   UNL     1       1.705 -12.365   5.151  0.00  0.00    +0.154 HD
ENDROOT
BRANCH  11  13
ATOM     13  C   UNL     1       1.396 -14.131   4.132  0.00  0.00    +0.033 A 
ATOM     14  C   UNL     1       1.351 -15.007   5.210  0.00  0.00    +0.023 A 
ATOM     15  C   UNL     1       1.424 -16.369   4.994  0.00  0.00    +0.003 A 
ATOM     16  C   UNL     1       1.543 -16.861   3.707  0.00  0.00    +0.015 A 
ATOM     17  C   UNL     1       1.589 -15.992   2.632  0.00  0.00    +0.020 A 
ATOM     18  C   UNL     1       1.510 -14.628   2.841  0.00  0.00    +0.038 A 
ATOM     19 BR   UNL     1       1.751 -16.671   0.874  0.00  0.00    -0.050 Br
ENDBRANCH  11  13
BRANCH   6  20
ATOM     20  N   UNL     1       1.968  -7.896   5.805  0.00  0.00    -0.279 N 
ATOM     21  C   UNL     1       1.992  -8.487   7.016  0.00  0.00    +0.241 C 
ATOM     22  O   UNL     1       1.538  -9.607   7.155  0.00  0.00    -0.271 OA
ATOM     23  H   UNL     1       2.390  -7.032   5.679  0.00  0.00    +0.155 HD
BRANCH  21  24
ATOM     24  C   UNL     1       2.567  -7.779   8.169  0.00  0.00    +0.060 C 
ATOM     25  C   UNL     1       2.591  -8.363   9.364  0.00  0.00    +0.013 C 
ENDBRANCH  21  24
ENDBRANCH   6  20
BRANCH   1  26
ATOM     26  O   UNL     1       0.677  -6.403   3.862  0.00  0.00    -0.490 OA
BRANCH  26  27
ATOM     27  C   UNL     1      -0.001  -5.673   2.837  0.00  0.00    +0.227 C 
BRANCH  27  28
ATOM     28  C   UNL     1       0.098  -4.175   3.127  0.00  0.00    +0.022 C 
BRANCH  28  29
ATOM     29  C   UNL     1      -0.628  -3.393   2.030  0.00  0.00    -0.075 C 
BRANCH  29  34
ATOM     30  C   UNL     1       0.273   2.164   1.799  0.00  0.00    +0.104 C 
ATOM     31  N   UNL     1       0.157   0.717   1.570  0.00  0.00    -0.309 NA
ATOM     32  C   UNL     1      -1.247   0.286   1.624  0.00  0.00    +0.065 C 
ATOM     33  C   UNL     1      -1.330  -1.212   1.323  0.00  0.00    -0.063 C 
ATOM     34  N   UNL     1      -0.533  -1.954   2.308  0.00  0.00    +0.381 N 
ATOM     35  C   UNL     1       0.871  -1.531   2.225  0.00  0.00    -0.063 C 
ATOM     36  C   UNL     1       0.972  -0.036   2.534  0.00  0.00    +0.065 C 
ATOM     37  H   UNL     1      -0.887  -1.768   3.235  0.00  0.00    -0.082 HD
ENDBRANCH  29  34
ENDBRANCH  28  29
ENDBRANCH  27  28
ENDBRANCH  26  27
ENDBRANCH   1  26
TORSDOF 8
