REMARK  Name = CHEMBL32844
REMARK  9 active torsions:
REMARK  status: ('A' for Active; 'I' for Inactive)
REMARK    1  A    between atoms: C_1  and  N_2
REMARK    2  A    between atoms: N_5  and  C_8
REMARK    3  A    between atoms: C_8  and  C_9
REMARK    4  A    between atoms: C_9  and  C_10
REMARK    5  A    between atoms: C_10  and  O_11
REMARK    6  A    between atoms: O_11  and  C_12
REMARK    7  A    between atoms: C_17  and  N_18
REMARK    8  A    between atoms: C_19  and  C_21
REMARK    9  A    between atoms: N_27  and  C_28
REMARK                            x       y       z     vdW  Elec       q    Type
REMARK                         _______ _______ _______ _____ _____    ______ ____
ROOT
ATOM      1  C   UNL     1       0.405  -7.568   4.214  0.00  0.00    +0.144 A 
ATOM      2  C   UNL     1      -0.218  -8.213   3.170  0.00  0.00    +0.076 A 
ATOM      3  C   UNL     1      -0.263  -9.612   3.147  0.00  0.00    +0.080 A 
ATOM      4  C   UNL     1       0.334 -10.348   4.200  0.00  0.00    +0.042 A 
ATOM      5  C   UNL     1       0.963  -9.675   5.254  0.00  0.00    +0.040 A 
ATOM      6  C   UNL     1       1.001  -8.298   5.254  0.00  0.00    +0.077 A 
ATOM      7  C   UNL     1       0.271 -11.761   4.147  0.00  0.00    +0.134 A 
ATOM      8  N   UNL     1      -0.343 -12.324   3.114  0.00  0.00    -0.220 NA
ATOM      9  C   UNL     1      -0.886 -11.595   2.152  0.00  0.00    +0.223 A 
ATOM     10  N   UNL     1      -0.859 -10.284   2.149  0.00  0.00    -0.235 NA
ATOM     11  N   UNL     1       0.835 -12.534   5.143  0.00  0.00    -0.299 N 
ATOM     12  H   UNL     1       1.213 -12.110   5.929  0.00  0.00    +0.154 HD
ENDROOT
BRANCH  11  13
ATOM     13  C   UNL     1       0.860 -13.925   5.018  0.00  0.00    +0.033 A 
ATOM     14  C   UNL     1       0.754 -14.728   6.148  0.00  0.00    +0.023 A 
ATOM     15  C   UNL     1       0.779 -16.103   6.021  0.00  0.00    +0.003 A 
ATOM     16  C   UNL     1       0.909 -16.682   4.772  0.00  0.00    +0.015 A 
ATOM     17  C   UNL     1       1.014 -15.886   3.645  0.00  0.00    +0.020 A 
ATOM     18  C   UNL     1       0.984 -14.510   3.764  0.00  0.00    +0.038 A 
ATOM     19 BR   UNL     1       1.192 -16.683   1.939  0.00  0.00    -0.050 Br
ENDBRANCH  11  13
BRANCH   6  20
ATOM     20  N   UNL     1       1.634  -7.621   6.303  0.00  0.00    -0.279 N 
ATOM     21  C   UNL     1       1.606  -8.133   7.550  0.00  0.00    +0.241 C 
ATOM     22  O   UNL     1       1.106  -9.224   7.748  0.00  0.00    -0.271 OA
ATOM     23  H   UNL     1       2.092  -6.783   6.133  0.00  0.00    +0.155 HD
BRANCH  21  24
ATOM     24  C   UNL     1       2.182  -7.374   8.670  0.00  0.00    +0.060 C 
ATOM     25  C   UNL     1       2.155  -7.879   9.900  0.00  0.00    +0.013 C 
ENDBRANCH  21  24
ENDBRANCH   6  20
BRANCH   1  26
ATOM     26  O   UNL     1       0.448  -6.210   4.236  0.00  0.00    -0.490 OA
BRANCH  26  27
ATOM     27  C   UNL     1      -0.177  -5.524   3.149  0.00  0.00    +0.230 C 
BRANCH  27  28
ATOM     28  C   UNL     1      -0.027  -4.014   3.345  0.00  0.00    +0.056 C 
BRANCH  28  29
ATOM     29  C   UNL     1      -0.696  -3.279   2.182  0.00  0.00    +0.087 C 
BRANCH  29  34
ATOM     30  C   UNL     1       0.284   2.255   1.787  0.00  0.00    -0.096 C 
ATOM     31  N   UNL     1       0.160   0.811   1.547  0.00  0.00    +0.379 N 
ATOM     32  C   UNL     1      -1.247   0.412   1.676  0.00  0.00    -0.064 C 
ATOM     33  C   UNL     1      -1.379  -1.089   1.408  0.00  0.00    +0.066 C 
ATOM     34  N   UNL     1      -0.552  -1.830   2.370  0.00  0.00    -0.306 NA
ATOM     35  C   UNL     1       0.857  -1.423   2.271  0.00  0.00    +0.066 C 
ATOM     36  C   UNL     1       0.970   0.081   2.532  0.00  0.00    -0.064 C 
ATOM     37  H   UNL     1       0.487   0.596   0.617  0.00  0.00    -0.082 HD
ENDBRANCH  29  34
ENDBRANCH  28  29
ENDBRANCH  27  28
ENDBRANCH  26  27
ENDBRANCH   1  26
TORSDOF 8
