REMARK  Name = CHEMBL308593
REMARK  4 active torsions:
REMARK  status: ('A' for Active; 'I' for Inactive)
REMARK    1  A    between atoms: C_1  and  C_2
REMARK    2  A    between atoms: C_3  and  C_20
REMARK    3  A    between atoms: C_11  and  N_12
REMARK    4  A    between atoms: N_12  and  C_13
REMARK                            x       y       z     vdW  Elec       q    Type
REMARK                         _______ _______ _______ _____ _____    ______ ____
ROOT
ATOM      1  C   UNL     1      -0.927   1.407   0.015  0.00  0.00    +0.064 C 
ATOM      2  C   UNL     1      -0.633  -0.071   0.005  0.00  0.00    +0.023 A 
ATOM      3  C   UNL     1      -0.489  -0.831  -1.108  0.00  0.00    +0.015 A 
ATOM      4  C   UNL     1      -0.214  -2.198  -0.647  0.00  0.00    +0.067 A 
ATOM      5  C   UNL     1      -0.216  -2.145   0.758  0.00  0.00    +0.144 A 
ATOM      6  N   UNL     1      -0.466  -0.848   1.118  0.00  0.00    -0.343 N 
ATOM      7  H   UNL     1      -0.519  -0.527   2.032  0.00  0.00    +0.167 HD
ATOM      8  N   UNL     1       0.011  -3.269   1.437  0.00  0.00    -0.218 NA
ATOM      9  C   UNL     1       0.233  -4.402   0.806  0.00  0.00    +0.225 A 
ATOM     10  N   UNL     1       0.244  -4.495  -0.511  0.00  0.00    -0.220 NA
ATOM     11  C   UNL     1       0.026  -3.427  -1.275  0.00  0.00    +0.136 A 
ENDROOT
BRANCH   3  12
ATOM     12  C   UNL     1      -0.589  -0.373  -2.514  0.00  0.00    -0.015 A 
ATOM     13  C   UNL     1      -1.618  -0.840  -3.331  0.00  0.00    +0.008 A 
ATOM     14  C   UNL     1      -1.707  -0.409  -4.639  0.00  0.00    +0.001 A 
ATOM     15  C   UNL     1      -0.776   0.483  -5.141  0.00  0.00    +0.000 A 
ATOM     16  C   UNL     1       0.247   0.949  -4.335  0.00  0.00    +0.001 A 
ATOM     17  C   UNL     1       0.343   0.530  -3.024  0.00  0.00    +0.008 A 
ENDBRANCH   3  12
BRANCH  11  18
ATOM     18  N   UNL     1       0.038  -3.529  -2.655  0.00  0.00    -0.299 N 
ATOM     19  H   UNL     1      -0.037  -2.730  -3.201  0.00  0.00    +0.154 HD
BRANCH  18  20
ATOM     20  C   UNL     1       0.158  -4.782  -3.263  0.00  0.00    +0.034 A 
ATOM     21  C   UNL     1      -0.420  -5.899  -2.674  0.00  0.00    +0.023 A 
ATOM     22  C   UNL     1      -0.300  -7.136  -3.277  0.00  0.00    +0.003 A 
ATOM     23  C   UNL     1       0.395  -7.263  -4.466  0.00  0.00    +0.020 A 
ATOM     24  C   UNL     1       0.973  -6.153  -5.055  0.00  0.00    +0.043 A 
ATOM     25  C   UNL     1       0.851  -4.911  -4.460  0.00  0.00    +0.043 A 
ATOM     26 CL   UNL     1       1.845  -6.318  -6.547  0.00  0.00    -0.083 Cl
ENDBRANCH  18  20
ENDBRANCH  11  18
TORSDOF 3
