REMARK  Name = CHEMBL248322
REMARK  7 active torsions:
REMARK  status: ('A' for Active; 'I' for Inactive)
REMARK    1  A    between atoms: C_6  and  C_8
REMARK    2  A    between atoms: C_8  and  O_9
REMARK    3  A    between atoms: O_9  and  C_10
REMARK    4  A    between atoms: C_13  and  N_17
REMARK    5  A    between atoms: C_20  and  C_27
REMARK    6  A    between atoms: C_27  and  N_28
REMARK    7  A    between atoms: C_31  and  N_34
REMARK                            x       y       z     vdW  Elec       q    Type
REMARK                         _______ _______ _______ _____ _____    ______ ____
ROOT
ATOM      1  N   UNL     1      -0.746  -8.196   0.385  0.00  0.00    -0.298 N 
ATOM      2  C   UNL     1      -1.994  -8.785   0.414  0.00  0.00    +0.151 A 
ATOM      3  C   UNL     1      -2.125 -10.190   0.320  0.00  0.00    +0.110 A 
ATOM      4  C   UNL     1      -1.223 -11.228   0.194  0.00  0.00    -0.003 A 
ATOM      5  C   UNL     1      -1.967 -12.408   0.151  0.00  0.00    +0.027 A 
ATOM      6  C   UNL     1      -3.282 -12.077   0.250  0.00  0.00    +0.113 A 
ATOM      7  N   UNL     1      -3.393 -10.739   0.353  0.00  0.00    -0.235 N 
ATOM      8  N   UNL     1      -4.489  -9.874   0.478  0.00  0.00    -0.155 NA
ATOM      9  C   UNL     1      -4.299  -8.586   0.559  0.00  0.00    +0.245 A 
ATOM     10  N   UNL     1      -3.083  -8.043   0.535  0.00  0.00    -0.217 NA
ATOM     11  H   UNL     1       0.043  -8.738   0.229  0.00  0.00    +0.154 HD
ENDROOT
BRANCH   1  15
ATOM     12  C   UNL     1      -0.366  -4.085   0.969  0.00  0.00    +0.139 A 
ATOM     13  C   UNL     1       0.592  -4.949   1.479  0.00  0.00    +0.049 A 
ATOM     14  C   UNL     1       0.467  -6.311   1.286  0.00  0.00    +0.027 A 
ATOM     15  C   UNL     1      -0.619  -6.816   0.581  0.00  0.00    +0.034 A 
ATOM     16  C   UNL     1      -1.578  -5.950   0.071  0.00  0.00    +0.047 A 
ATOM     17  C   UNL     1      -1.454  -4.588   0.270  0.00  0.00    +0.084 A 
ATOM     18 CL   UNL     1      -2.656  -3.506  -0.361  0.00  0.00    -0.080 Cl
BRANCH  12  19
ATOM     19  O   UNL     1      -0.241  -2.744   1.161  0.00  0.00    -0.484 OA
BRANCH  19  20
ATOM     20  C   UNL     1       0.903  -2.296   1.889  0.00  0.00    +0.286 C 
BRANCH  20  26
ATOM     21  C   UNL     1      -0.192   1.294   1.538  0.00  0.00    +0.003 A 
ATOM     22  C   UNL     1       0.843   1.918   2.217  0.00  0.00    +0.021 A 
ATOM     23  C   UNL     1       1.853   1.149   2.761  0.00  0.00    +0.133 A 
ATOM     24  N   UNL     1       1.840  -0.166   2.639  0.00  0.00    -0.141 N 
ATOM     25  O   UNL     1       2.893  -0.922   3.209  0.00  0.00    -0.164 OA
ATOM     26  C   UNL     1       0.871  -0.793   2.001  0.00  0.00    +0.099 A 
ATOM     27  C   UNL     1      -0.172  -0.088   1.431  0.00  0.00    +0.028 A 
ENDBRANCH  20  26
ENDBRANCH  19  20
ENDBRANCH  12  19
ENDBRANCH   1  15
BRANCH   4  28
ATOM     28  C   UNL     1       0.278 -11.110   0.116  0.00  0.00    +0.121 C 
BRANCH  28  29
ATOM     29  N   UNL     1       0.667 -10.703  -1.241  0.00  0.00    -0.298 NA
ATOM     30  C   UNL     1       0.416 -11.780  -2.206  0.00  0.00    +0.083 C 
ATOM     31  C   UNL     1       0.695 -11.274  -3.623  0.00  0.00    -0.001 C 
ATOM     32  C   UNL     1       2.151 -10.809  -3.716  0.00  0.00    -0.073 C 
ATOM     33  C   UNL     1       2.399  -9.720  -2.667  0.00  0.00    -0.001 C 
ATOM     34  C   UNL     1       2.071 -10.272  -1.278  0.00  0.00    +0.083 C 
BRANCH  32  35
ATOM     35  N   UNL     1       2.409 -10.267  -5.056  0.00  0.00    +0.380 N 
ATOM     36  H   UNL     1       1.795  -9.484  -5.227  0.00  0.00    -0.090 HD
ATOM     37  H   UNL     1       3.368  -9.960  -5.117  0.00  0.00    -0.090 HD
ATOM     38  H   UNL     1       2.240 -10.983  -5.747  0.00  0.00    -0.090 HD
ENDBRANCH  32  35
ENDBRANCH  28  29
ENDBRANCH   4  28
TORSDOF 7
