REMARK  Name = CHEMBL81712
REMARK  4 active torsions:
REMARK  status: ('A' for Active; 'I' for Inactive)
REMARK    1  A    between atoms: C_4  and  C_7
REMARK    2  A    between atoms: C_7  and  C_9
REMARK    3  A    between atoms: C_14  and  N_18
REMARK    4  A    between atoms: N_18  and  C_19
REMARK                            x       y       z     vdW  Elec       q    Type
REMARK                         _______ _______ _______ _____ _____    ______ ____
ROOT
ATOM      1  C   UNL     1       3.786  -2.194  -0.106  0.00  0.00    +0.062 A 
ATOM      2  C   UNL     1       4.837  -3.048  -0.270  0.00  0.00    +0.048 A 
ATOM      3  C   UNL     1       4.623  -4.433  -0.222  0.00  0.00    +0.084 A 
ATOM      4  C   UNL     1       3.287  -4.835   0.001  0.00  0.00    +0.078 A 
ATOM      5  S   UNL     1       2.408  -3.302   0.138  0.00  0.00    -0.080 S 
ATOM      6  C   UNL     1       2.947  -6.180   0.070  0.00  0.00    +0.141 A 
ATOM      7  N   UNL     1       3.914  -7.084  -0.078  0.00  0.00    -0.219 NA
ATOM      8  C   UNL     1       5.160  -6.693  -0.286  0.00  0.00    +0.224 A 
ATOM      9  N   UNL     1       5.523  -5.440  -0.358  0.00  0.00    -0.235 NA
ENDROOT
BRANCH   1  10
ATOM     10  C   UNL     1       3.789  -0.723  -0.120  0.00  0.00    +0.200 C 
ATOM     11  O   UNL     1       4.843  -0.117  -0.159  0.00  0.00    -0.286 OA
BRANCH  10  15
ATOM     12  C   UNL     1       0.117   1.409  -0.027  0.00  0.00    +0.000 A 
ATOM     13  C   UNL     1       1.312   2.089   0.131  0.00  0.00    +0.001 A 
ATOM     14  C   UNL     1       2.508   1.403   0.102  0.00  0.00    +0.012 A 
ATOM     15  C   UNL     1       2.511   0.019  -0.087  0.00  0.00    +0.023 A 
ATOM     16  C   UNL     1       1.301  -0.660  -0.246  0.00  0.00    +0.012 A 
ATOM     17  C   UNL     1       0.112   0.038  -0.215  0.00  0.00    +0.001 A 
ENDBRANCH  10  15
ENDBRANCH   1  10
BRANCH   6  18
ATOM     18  N   UNL     1       1.636  -6.571   0.289  0.00  0.00    -0.298 N 
ATOM     19  H   UNL     1       0.929  -5.907   0.312  0.00  0.00    +0.154 HD
BRANCH  18  20
ATOM     20  C   UNL     1       1.332  -7.924   0.478  0.00  0.00    +0.033 A 
ATOM     21  C   UNL     1       2.211  -8.742   1.187  0.00  0.00    +0.025 A 
ATOM     22  C   UNL     1       1.926 -10.075   1.380  0.00  0.00    +0.028 A 
ATOM     23  C   UNL     1       0.752 -10.618   0.867  0.00  0.00    +0.047 A 
ATOM     24  C   UNL     1      -0.137  -9.796   0.152  0.00  0.00    +0.001 A 
ATOM     25  C   UNL     1       0.158  -8.444  -0.035  0.00  0.00    +0.033 A 
ATOM     26  C   UNL     1      -1.254 -10.657  -0.245  0.00  0.00    +0.027 A 
ATOM     27  C   UNL     1      -0.990 -11.886   0.227  0.00  0.00    +0.083 A 
ATOM     28  N   UNL     1       0.204 -11.883   0.894  0.00  0.00    -0.361 N 
ATOM     29  H   UNL     1       0.605 -12.655   1.323  0.00  0.00    +0.165 HD
ENDBRANCH  18  20
ENDBRANCH   6  18
TORSDOF 4
