REMARK  Name = CHEMBL152905
REMARK  2 active torsions:
REMARK  status: ('A' for Active; 'I' for Inactive)
REMARK    1  A    between atoms: C_3  and  N_8
REMARK    2  A    between atoms: C_14  and  N_19
REMARK                            x       y       z     vdW  Elec       q    Type
REMARK                         _______ _______ _______ _____ _____    ______ ____
ROOT
ATOM      1  N   UNL     1       3.583   2.124  -0.021  0.00  0.00    -0.298 N 
ATOM      2  C   UNL     1       4.791   1.449   0.068  0.00  0.00    +0.141 A 
ATOM      3  C   UNL     1       5.989   2.144   0.171  0.00  0.00    +0.079 A 
ATOM      4  C   UNL     1       7.210   1.465   0.262  0.00  0.00    +0.091 A 
ATOM      5  C   UNL     1       8.415   2.311   0.367  0.00  0.00    +0.017 A 
ATOM      6  C   UNL     1       9.757   1.881   0.469  0.00  0.00    +0.034 A 
ATOM      7  C   UNL     1      10.781   2.797   0.560  0.00  0.00    +0.025 A 
ATOM      8  C   UNL     1      10.524   4.166   0.555  0.00  0.00    +0.024 A 
ATOM      9  C   UNL     1       9.221   4.611   0.456  0.00  0.00    +0.017 A 
ATOM     10  C   UNL     1       8.190   3.697   0.364  0.00  0.00    +0.022 A 
ATOM     11  S   UNL     1       6.428   3.860   0.225  0.00  0.00    -0.083 S 
ATOM     12  N   UNL     1       7.141   0.114   0.241  0.00  0.00    -0.234 NA
ATOM     13  C   UNL     1       5.994  -0.508   0.143  0.00  0.00    +0.224 A 
ATOM     14  N   UNL     1       4.833   0.117   0.063  0.00  0.00    -0.219 NA
ATOM     15  H   UNL     1       3.571   3.091  -0.094  0.00  0.00    +0.154 HD
ENDROOT
BRANCH   1  18
ATOM     16  C   UNL     1       1.089  -0.467   0.741  0.00  0.00    +0.003 A 
ATOM     17  C   UNL     1       2.278   0.236   0.729  0.00  0.00    +0.023 A 
ATOM     18  C   UNL     1       2.381   1.410  -0.007  0.00  0.00    +0.033 A 
ATOM     19  C   UNL     1       1.288   1.873  -0.728  0.00  0.00    +0.038 A 
ATOM     20  C   UNL     1       0.102   1.165  -0.712  0.00  0.00    +0.020 A 
ATOM     21  C   UNL     1       0.002  -0.004   0.023  0.00  0.00    +0.015 A 
ATOM     22 BR   UNL     1      -1.387   1.793  -1.693  0.00  0.00    -0.050 Br
ENDBRANCH   1  18
BRANCH   7  23
ATOM     23  N   UNL     1      12.102   2.345   0.661  0.00  0.00    -0.358 N 
ATOM     24  H   UNL     1      12.290   1.394   0.666  0.00  0.00    +0.142 HD
ATOM     25  H   UNL     1      12.830   2.984   0.726  0.00  0.00    +0.142 HD
ENDBRANCH   7  23
TORSDOF 2
