REMARK  Name = CHEMBL286343
REMARK  8 active torsions:
REMARK  status: ('A' for Active; 'I' for Inactive)
REMARK    1  A    between atoms: C_2  and  C_3
REMARK    2  A    between atoms: N_5  and  C_6
REMARK    3  A    between atoms: C_11  and  O_12
REMARK    4  A    between atoms: O_12  and  C_13
REMARK    5  A    between atoms: C_13  and  C_14
REMARK    6  A    between atoms: C_14  and  C_15
REMARK    7  A    between atoms: C_15  and  N_16
REMARK    8  A    between atoms: N_25  and  C_26
REMARK                            x       y       z     vdW  Elec       q    Type
REMARK                         _______ _______ _______ _____ _____    ______ ____
ROOT
ATOM      1  C   UNL     1      -2.473  -2.783   0.190  0.00  0.00    +0.077 A 
ATOM      2  C   UNL     1      -3.646  -2.061   0.165  0.00  0.00    +0.040 A 
ATOM      3  C   UNL     1      -4.872  -2.735   0.187  0.00  0.00    +0.042 A 
ATOM      4  C   UNL     1      -4.901  -4.151   0.236  0.00  0.00    +0.080 A 
ATOM      5  C   UNL     1      -3.696  -4.865   0.261  0.00  0.00    +0.076 A 
ATOM      6  C   UNL     1      -2.500  -4.186   0.232  0.00  0.00    +0.144 A 
ATOM      7  N   UNL     1      -6.091  -4.771   0.256  0.00  0.00    -0.235 NA
ATOM      8  C   UNL     1      -7.204  -4.077   0.232  0.00  0.00    +0.223 A 
ATOM      9  N   UNL     1      -7.226  -2.755   0.187  0.00  0.00    -0.220 NA
ATOM     10  C   UNL     1      -6.107  -2.043   0.163  0.00  0.00    +0.134 A 
ATOM     11  N   UNL     1      -6.145  -0.664   0.115  0.00  0.00    -0.299 N 
ATOM     12  H   UNL     1      -5.324  -0.159   0.004  0.00  0.00    +0.154 HD
ENDROOT
BRANCH  11  13
ATOM     13  C   UNL     1      -7.367   0.006   0.227  0.00  0.00    +0.033 A 
ATOM     14  C   UNL     1      -7.534   1.253  -0.361  0.00  0.00    +0.023 A 
ATOM     15  C   UNL     1      -8.742   1.912  -0.249  0.00  0.00    +0.003 A 
ATOM     16  C   UNL     1      -9.786   1.333   0.449  0.00  0.00    +0.015 A 
ATOM     17  C   UNL     1      -9.624   0.090   1.036  0.00  0.00    +0.020 A 
ATOM     18  C   UNL     1      -8.419  -0.577   0.922  0.00  0.00    +0.038 A 
ATOM     19 BR   UNL     1     -11.054  -0.698   1.989  0.00  0.00    -0.050 Br
ENDBRANCH  11  13
BRANCH   1  22
ATOM     20  C   UNL     1      -1.162  -0.875  -0.361  0.00  0.00    +0.241 C 
ATOM     21  O   UNL     1      -2.130  -0.381  -0.906  0.00  0.00    -0.271 OA
ATOM     22  N   UNL     1      -1.244  -2.112   0.167  0.00  0.00    -0.279 N 
ATOM     23  H   UNL     1      -0.453  -2.538   0.531  0.00  0.00    +0.155 HD
BRANCH  20  25
ATOM     24  C   UNL     1       0.180   1.099  -0.798  0.00  0.00    +0.013 C 
ATOM     25  C   UNL     1       0.099  -0.123  -0.277  0.00  0.00    +0.060 C 
ENDBRANCH  20  25
ENDBRANCH   1  22
BRANCH   6  26
ATOM     26  O   UNL     1      -1.332  -4.880   0.250  0.00  0.00    -0.490 OA
BRANCH  26  27
ATOM     27  C   UNL     1      -1.425  -6.305   0.293  0.00  0.00    +0.231 C 
BRANCH  27  28
ATOM     28  C   UNL     1      -0.019  -6.908   0.308  0.00  0.00    +0.062 C 
BRANCH  28  29
ATOM     29  C   UNL     1      -0.119  -8.434   0.354  0.00  0.00    +0.126 C 
BRANCH  29  30
ATOM     30  N   UNL     1       1.228  -9.011   0.368  0.00  0.00    -0.338 N 
ATOM     31  C   UNL     1       1.974  -9.358  -0.726  0.00  0.00    +0.104 A 
ATOM     32  C   UNL     1       3.141  -9.846  -0.262  0.00  0.00    +0.101 A 
ATOM     33  N   UNL     1       3.108  -9.798   1.078  0.00  0.00    -0.352 N 
ATOM     34  C   UNL     1       1.967  -9.294   1.462  0.00  0.00    +0.173 A 
ATOM     35  H   UNL     1       3.821 -10.088   1.668  0.00  0.00    +0.166 HD
ENDBRANCH  29  30
ENDBRANCH  28  29
ENDBRANCH  27  28
ENDBRANCH  26  27
ENDBRANCH   6  26
TORSDOF 8
