REMARK  Name = CHEMBL475769
REMARK  12 active torsions:
REMARK  status: ('A' for Active; 'I' for Inactive)
REMARK    1  A    between atoms: C_1  and  S_2
REMARK    2  A    between atoms: S_2  and  C_5
REMARK    3  A    between atoms: C_5  and  C_6
REMARK    4  A    between atoms: C_6  and  N_7
REMARK    5  A    between atoms: N_7  and  C_8
REMARK    6  A    between atoms: C_8  and  C_9
REMARK    7  A    between atoms: C_11  and  C_14
REMARK    8  A    between atoms: C_19  and  N_23
REMARK    9  A    between atoms: N_23  and  C_24
REMARK   10  A    between atoms: C_27  and  O_31
REMARK   11  A    between atoms: O_31  and  C_32
REMARK   12  A    between atoms: C_32  and  C_33
REMARK                            x       y       z     vdW  Elec       q    Type
REMARK                         _______ _______ _______ _____ _____    ______ ____
ROOT
ATOM      1  C   UNL     1       5.514  -4.043  -6.747  0.00  0.00    +0.025 A 
ATOM      2  C   UNL     1       5.738  -4.506  -8.006  0.00  0.00    +0.044 A 
ATOM      3  C   UNL     1       7.018  -4.948  -8.371  0.00  0.00    +0.084 A 
ATOM      4  C   UNL     1       8.001  -4.869  -7.358  0.00  0.00    +0.078 A 
ATOM      5  S   UNL     1       7.118  -4.192  -5.978  0.00  0.00    -0.083 S 
ATOM      6  C   UNL     1       9.302  -5.274  -7.592  0.00  0.00    +0.141 A 
ATOM      7  N   UNL     1       9.611  -5.743  -8.803  0.00  0.00    -0.219 NA
ATOM      8  C   UNL     1       8.684  -5.812  -9.742  0.00  0.00    +0.224 A 
ATOM      9  N   UNL     1       7.443  -5.441  -9.562  0.00  0.00    -0.235 NA
ENDROOT
BRANCH   1  12
ATOM     10  C   UNL     1       2.755  -2.684  -4.721  0.00  0.00    +0.089 A 
ATOM     11  C   UNL     1       4.050  -3.035  -4.796  0.00  0.00    +0.051 A 
ATOM     12  C   UNL     1       4.255  -3.535  -6.162  0.00  0.00    +0.027 A 
ATOM     13  C   UNL     1       3.045  -3.433  -6.777  0.00  0.00    +0.204 A 
ATOM     14  O   UNL     1       2.165  -2.930  -5.900  0.00  0.00    -0.469 OA
BRANCH  10  15
ATOM     15  C   UNL     1       2.074  -2.114  -3.504  0.00  0.00    -0.007 C 
BRANCH  15  16
ATOM     16  N   UNL     1       2.168  -0.648  -3.532  0.00  0.00    +0.385 N 
ATOM     17  H   UNL     1       1.718  -0.298  -4.365  0.00  0.00    -0.085 HD
ATOM     18  H   UNL     1       3.139  -0.373  -3.534  0.00  0.00    -0.085 HD
BRANCH  16  19
ATOM     19  C   UNL     1       1.503  -0.091  -2.346  0.00  0.00    -0.059 C 
BRANCH  19  20
ATOM     20  C   UNL     1       1.602   1.435  -2.376  0.00  0.00    +0.146 C 
BRANCH  20  22
ATOM     21  C   UNL     1       1.003   3.910  -1.129  0.00  0.00    +0.193 C 
ATOM     22  S   UNL     1       0.781   2.123  -0.911  0.00  0.00    -0.036 S 
ATOM     23  O   UNL     1       1.506   1.717   0.242  0.00  0.00    -0.175 OA
ATOM     24  O   UNL     1      -0.607   1.829  -0.994  0.00  0.00    -0.175 OA
ENDBRANCH  20  22
ENDBRANCH  19  20
ENDBRANCH  16  19
ENDBRANCH  15  16
ENDBRANCH  10  15
ENDBRANCH   1  12
BRANCH   6  25
ATOM     25  N   UNL     1      10.262  -5.194  -6.595  0.00  0.00    -0.298 N 
ATOM     26  H   UNL     1      10.007  -4.930  -5.697  0.00  0.00    +0.154 HD
BRANCH  25  27
ATOM     27  C   UNL     1      11.598  -5.493  -6.884  0.00  0.00    +0.034 A 
ATOM     28  C   UNL     1      12.393  -6.116  -5.930  0.00  0.00    +0.027 A 
ATOM     29  C   UNL     1      13.711  -6.410  -6.215  0.00  0.00    +0.049 A 
ATOM     30  C   UNL     1      14.243  -6.085  -7.454  0.00  0.00    +0.139 A 
ATOM     31  C   UNL     1      13.451  -5.462  -8.408  0.00  0.00    +0.084 A 
ATOM     32  C   UNL     1      12.129  -5.172  -8.126  0.00  0.00    +0.047 A 
ATOM     33 CL   UNL     1      14.117  -5.054  -9.958  0.00  0.00    -0.080 Cl
BRANCH  30  34
ATOM     34  O   UNL     1      15.542  -6.375  -7.734  0.00  0.00    -0.486 OA
BRANCH  34  35
ATOM     35  C   UNL     1      16.300  -7.016  -6.705  0.00  0.00    +0.264 C 
BRANCH  35  36
ATOM     36  C   UNL     1      17.705  -7.258  -7.193  0.00  0.00    -0.008 A 
ATOM     37  C   UNL     1      18.017  -8.436  -7.845  0.00  0.00    +0.007 A 
ATOM     38  C   UNL     1      19.306  -8.659  -8.293  0.00  0.00    +0.003 A 
ATOM     39  C   UNL     1      20.284  -7.704  -8.089  0.00  0.00    +0.038 A 
ATOM     40  C   UNL     1      19.972  -6.523  -7.436  0.00  0.00    +0.124 A 
ATOM     41  C   UNL     1      18.680  -6.298  -6.993  0.00  0.00    +0.045 A 
ATOM     42  F   UNL     1      20.927  -5.589  -7.236  0.00  0.00    -0.205 F 
ENDBRANCH  35  36
ENDBRANCH  34  35
ENDBRANCH  30  34
ENDBRANCH  25  27
ENDBRANCH   6  25
TORSDOF 11
