REMARK  Name = CHEMBL473320
REMARK  5 active torsions:
REMARK  status: ('A' for Active; 'I' for Inactive)
REMARK    1  A    between atoms: C_1  and  O_2
REMARK    2  A    between atoms: O_2  and  C_3
REMARK    3  A    between atoms: C_8  and  O_9
REMARK    4  A    between atoms: O_9  and  C_10
REMARK    5  A    between atoms: C_14  and  C_15
REMARK                            x       y       z     vdW  Elec       q    Type
REMARK                         _______ _______ _______ _____ _____    ______ ____
ROOT
ATOM      1  C   UNL     1       0.172  -0.610  -1.346  0.00  0.00    +0.162 A 
ATOM      2  C   UNL     1       0.866   0.156  -2.241  0.00  0.00    +0.061 A 
ATOM      3  C   UNL     1       1.637  -0.463  -3.230  0.00  0.00    +0.030 A 
ATOM      4  C   UNL     1       1.696  -1.878  -3.299  0.00  0.00    +0.078 A 
ATOM      5  C   UNL     1       0.977  -2.643  -2.372  0.00  0.00    +0.077 A 
ATOM      6  C   UNL     1       0.230  -2.009  -1.404  0.00  0.00    +0.164 A 
ATOM      7  N   UNL     1       2.444  -2.446  -4.258  0.00  0.00    -0.235 NA
ATOM      8  C   UNL     1       3.107  -1.704  -5.113  0.00  0.00    +0.222 A 
ATOM      9  N   UNL     1       3.085  -0.383  -5.090  0.00  0.00    -0.235 NA
ATOM     10  C   UNL     1       2.376   0.284  -4.183  0.00  0.00    +0.084 A 
ENDROOT
BRANCH  10  11
ATOM     11  C   UNL     1       2.359   1.758  -4.168  0.00  0.00    +0.026 A 
ATOM     12  C   UNL     1       2.552   2.564  -3.088  0.00  0.00    +0.093 A 
ATOM     13  N   UNL     1       2.463   3.867  -3.465  0.00  0.00    -0.360 N 
ATOM     14  H   UNL     1       2.566   4.624  -2.868  0.00  0.00    +0.165 HD
ATOM     15  C   UNL     1       2.207   3.958  -4.817  0.00  0.00    +0.047 A 
ATOM     16  C   UNL     1       2.136   2.648  -5.321  0.00  0.00    +0.010 A 
ATOM     17  C   UNL     1       1.890   2.433  -6.675  0.00  0.00    +0.026 A 
ATOM     18  C   UNL     1       1.721   3.512  -7.517  0.00  0.00    +0.019 A 
ATOM     19  C   UNL     1       1.795   4.806  -7.021  0.00  0.00    +0.017 A 
ATOM     20  C   UNL     1       2.029   5.032  -5.682  0.00  0.00    +0.027 A 
ATOM     21 BR   UNL     1       1.389   3.226  -9.357  0.00  0.00    -0.050 Br
ENDBRANCH  10  11
BRANCH   1  23
ATOM     22  C   UNL     1      -0.596   1.422  -0.378  0.00  0.00    +0.277 C 
ATOM     23  O   UNL     1      -0.578  -0.007  -0.385  0.00  0.00    -0.491 OA
ENDBRANCH   1  23
BRANCH   6  24
ATOM     24  O   UNL     1      -0.464  -2.748  -0.500  0.00  0.00    -0.491 OA
ATOM     25  C   UNL     1      -0.365  -4.170  -0.611  0.00  0.00    +0.277 C 
ENDBRANCH   6  24
TORSDOF 3
