REMARK  Name = CHEMBL593860
REMARK  12 active torsions:
REMARK  status: ('A' for Active; 'I' for Inactive)
REMARK    1  A    between atoms: C_1  and  N_2
REMARK    2  A    between atoms: N_5  and  C_8
REMARK    3  A    between atoms: C_8  and  C_9
REMARK    4  A    between atoms: C_9  and  C_10
REMARK    5  A    between atoms: C_10  and  O_11
REMARK    6  A    between atoms: O_11  and  C_12
REMARK    7  A    between atoms: C_17  and  O_18
REMARK    8  A    between atoms: O_18  and  C_19
REMARK    9  A    between atoms: N_24  and  C_25
REMARK   10  A    between atoms: C_28  and  C_33
REMARK   11  A    between atoms: C_29  and  O_31
REMARK   12  A    between atoms: O_31  and  C_32
REMARK                            x       y       z     vdW  Elec       q    Type
REMARK                         _______ _______ _______ _____ _____    ______ ____
ROOT
ATOM      1  C   UNL     1       1.339  -8.002   3.283  0.00  0.00    +0.164 A 
ATOM      2  C   UNL     1       0.711  -8.800   2.353  0.00  0.00    +0.078 A 
ATOM      3  C   UNL     1       0.634 -10.181   2.569  0.00  0.00    +0.080 A 
ATOM      4  C   UNL     1       1.203 -10.736   3.742  0.00  0.00    +0.044 A 
ATOM      5  C   UNL     1       1.836  -9.902   4.672  0.00  0.00    +0.062 A 
ATOM      6  C   UNL     1       1.905  -8.558   4.439  0.00  0.00    +0.162 A 
ATOM      7  C   UNL     1       1.110 -12.135   3.933  0.00  0.00    +0.134 A 
ATOM      8  N   UNL     1       0.495 -12.855   3.004  0.00  0.00    -0.220 NA
ATOM      9  C   UNL     1      -0.023 -12.293   1.923  0.00  0.00    +0.223 A 
ATOM     10  N   UNL     1       0.033 -11.003   1.694  0.00  0.00    -0.235 NA
ATOM     11  N   UNL     1       1.646 -12.735   5.055  0.00  0.00    -0.299 N 
ATOM     12  H   UNL     1       2.019 -12.190   5.765  0.00  0.00    +0.154 HD
ENDROOT
BRANCH  11  13
ATOM     13  C   UNL     1       1.650 -14.125   5.168  0.00  0.00    +0.036 A 
ATOM     14  C   UNL     1       1.853 -14.913   4.038  0.00  0.00    +0.024 A 
ATOM     15  C   UNL     1       1.858 -16.285   4.142  0.00  0.00    +0.016 A 
ATOM     16  C   UNL     1       1.660 -16.892   5.385  0.00  0.00    +0.049 A 
ATOM     17  C   UNL     1       1.456 -16.099   6.522  0.00  0.00    +0.132 A 
ATOM     18  C   UNL     1       1.458 -14.720   6.409  0.00  0.00    +0.069 A 
BRANCH  16  19
ATOM     19  C   UNL     1       1.664 -18.363   5.500  0.00  0.00    +0.113 A 
ATOM     20  N   UNL     1       1.490 -19.108   6.571  0.00  0.00    -0.239 NA
ATOM     21  C   UNL     1       1.520 -20.455   6.528  0.00  0.00    +0.079 A 
ATOM     22  C   UNL     1       1.350 -21.368   7.596  0.00  0.00    +0.029 A 
ATOM     23  C   UNL     1       1.410 -22.709   7.383  0.00  0.00    +0.002 A 
ATOM     24  C   UNL     1       1.638 -23.237   6.120  0.00  0.00    +0.001 A 
ATOM     25  C   UNL     1       1.810 -22.380   5.049  0.00  0.00    +0.017 A 
ATOM     26  C   UNL     1       1.751 -21.024   5.253  0.00  0.00    +0.040 A 
ATOM     27  S   UNL     1       1.899 -19.587   4.218  0.00  0.00    -0.067 S 
ENDBRANCH  16  19
BRANCH  17  28
ATOM     28  O   UNL     1       1.262 -16.682   7.733  0.00  0.00    -0.494 OA
ATOM     29  C   UNL     1       1.061 -15.810   8.848  0.00  0.00    +0.277 C 
ENDBRANCH  17  28
ENDBRANCH  11  13
BRANCH   6  30
ATOM     30  O   UNL     1       2.525  -7.750   5.340  0.00  0.00    -0.491 OA
ATOM     31  C   UNL     1       3.083  -8.377   6.497  0.00  0.00    +0.277 C 
ENDBRANCH   6  30
BRANCH   1  32
ATOM     32  O   UNL     1       1.415  -6.661   3.076  0.00  0.00    -0.488 OA
BRANCH  32  33
ATOM     33  C   UNL     1       0.819  -6.155   1.880  0.00  0.00    +0.227 C 
BRANCH  33  34
ATOM     34  C   UNL     1       1.004  -4.637   1.822  0.00  0.00    +0.022 C 
BRANCH  34  35
ATOM     35  C   UNL     1       0.365  -4.095   0.541  0.00  0.00    -0.075 C 
BRANCH  35  40
ATOM     36  C   UNL     1       1.628   1.198  -0.922  0.00  0.00    +0.104 C 
ATOM     37  N   UNL     1       1.427  -0.253  -0.816  0.00  0.00    -0.309 NA
ATOM     38  C   UNL     1      -0.003  -0.582  -0.729  0.00  0.00    +0.065 C 
ATOM     39  C   UNL     1      -0.172  -2.102  -0.681  0.00  0.00    -0.063 C 
ATOM     40  N   UNL     1       0.543  -2.638   0.485  0.00  0.00    +0.381 N 
ATOM     41  C   UNL     1       1.973  -2.323   0.372  0.00  0.00    -0.063 C 
ATOM     42  C   UNL     1       2.160  -0.804   0.333  0.00  0.00    +0.065 C 
ATOM     43  H   UNL     1       0.172  -2.221   1.327  0.00  0.00    -0.082 HD
ENDBRANCH  35  40
ENDBRANCH  34  35
ENDBRANCH  33  34
ENDBRANCH  32  33
ENDBRANCH   1  32
TORSDOF 9
