REMARK  Name = CHEMBL30432
REMARK  5 active torsions:
REMARK  status: ('A' for Active; 'I' for Inactive)
REMARK    1  A    between atoms: C_1  and  N_2
REMARK    2  A    between atoms: N_2  and  C_3
REMARK    3  A    between atoms: N_14  and  C_15
REMARK    4  A    between atoms: N_23  and  C_24
REMARK    5  A    between atoms: C_24  and  C_25
REMARK                            x       y       z     vdW  Elec       q    Type
REMARK                         _______ _______ _______ _____ _____    ______ ____
ROOT
ATOM      1  C   UNL     1       0.450   1.941  -6.266  0.00  0.00    +0.033 A 
ATOM      2  C   UNL     1       0.430   1.181  -7.437  0.00  0.00    +0.025 A 
ATOM      3  C   UNL     1       0.602   1.773  -8.655  0.00  0.00    +0.030 A 
ATOM      4  C   UNL     1       0.798   3.149  -8.742  0.00  0.00    +0.069 A 
ATOM      5  C   UNL     1       0.819   3.925  -7.567  0.00  0.00    +0.021 A 
ATOM      6  C   UNL     1       0.637   3.307  -6.324  0.00  0.00    +0.034 A 
ATOM      7  C   UNL     1       1.041   5.304  -7.989  0.00  0.00    +0.143 A 
ATOM      8  N   UNL     1       1.138   5.312  -9.288  0.00  0.00    -0.178 NA
ATOM      9  N   UNL     1       0.995   4.013  -9.789  0.00  0.00    -0.259 N 
ENDROOT
BRANCH   1  23
ATOM     10  C   UNL     1      -1.912   0.852  -0.500  0.00  0.00    +0.130 C 
ATOM     11  N   UNL     1      -1.234  -0.440  -0.363  0.00  0.00    -0.321 N 
ATOM     12  C   UNL     1      -1.357  -1.202   0.882  0.00  0.00    +0.130 C 
ATOM     13  C   UNL     1      -0.473  -0.942  -1.415  0.00  0.00    +0.122 A 
ATOM     14  C   UNL     1      -0.277  -0.162  -2.542  0.00  0.00    +0.057 A 
ATOM     15  C   UNL     1       0.490  -0.686  -3.585  0.00  0.00    +0.045 A 
ATOM     16  C   UNL     1       1.032  -1.990  -3.446  0.00  0.00    +0.094 A 
ATOM     17  C   UNL     1       0.777  -2.701  -2.267  0.00  0.00    +0.141 A 
ATOM     18  N   UNL     1       0.053  -2.158  -1.315  0.00  0.00    -0.238 NA
ATOM     19  N   UNL     1       1.767  -2.486  -4.451  0.00  0.00    -0.234 NA
ATOM     20  C   UNL     1       1.982  -1.787  -5.537  0.00  0.00    +0.224 A 
ATOM     21  N   UNL     1       1.509  -0.567  -5.735  0.00  0.00    -0.220 NA
ATOM     22  C   UNL     1       0.765   0.043  -4.819  0.00  0.00    +0.134 A 
ATOM     23  N   UNL     1       0.272   1.314  -5.027  0.00  0.00    -0.299 N 
ATOM     24  H   UNL     1      -0.198   1.774  -4.313  0.00  0.00    +0.154 HD
ENDBRANCH   1  23
BRANCH   9  25
ATOM     25  C   UNL     1       1.048   3.637 -11.204  0.00  0.00    +0.179 C 
BRANCH  25  26
ATOM     26  C   UNL     1      -0.338   3.702 -11.793  0.00  0.00    -0.026 A 
ATOM     27  C   UNL     1      -1.155   2.588 -11.760  0.00  0.00    +0.005 A 
ATOM     28  C   UNL     1      -2.426   2.648 -12.300  0.00  0.00    +0.000 A 
ATOM     29  C   UNL     1      -2.880   3.821 -12.873  0.00  0.00    +0.000 A 
ATOM     30  C   UNL     1      -2.062   4.936 -12.905  0.00  0.00    +0.000 A 
ATOM     31  C   UNL     1      -0.793   4.877 -12.361  0.00  0.00    +0.005 A 
ENDBRANCH  25  26
ENDBRANCH   9  25
TORSDOF 3
