REMARK  Name = CHEMBL311129
REMARK  4 active torsions:
REMARK  status: ('A' for Active; 'I' for Inactive)
REMARK    1  A    between atoms: C_1  and  C_2
REMARK    2  A    between atoms: C_7  and  C_8
REMARK    3  A    between atoms: C_17  and  N_18
REMARK    4  A    between atoms: N_18  and  C_19
REMARK                            x       y       z     vdW  Elec       q    Type
REMARK                         _______ _______ _______ _____ _____    ______ ____
ROOT
ATOM      1  C   UNL     1      -0.619   1.473  -0.040  0.00  0.00    +0.047 C 
ATOM      2  C   UNL     1      -0.490  -0.029  -0.039  0.00  0.00    -0.013 A 
ATOM      3  C   UNL     1      -0.218  -0.879  -1.192  0.00  0.00    +0.062 A 
ATOM      4  C   UNL     1      -0.186  -2.203  -0.713  0.00  0.00    +0.144 A 
ATOM      5  N   UNL     1      -0.423  -2.157   0.634  0.00  0.00    -0.339 N 
ATOM      6  H   UNL     1      -0.457  -2.929   1.220  0.00  0.00    +0.167 HD
ATOM      7  C   UNL     1      -0.600  -0.850   1.036  0.00  0.00    +0.052 A 
ATOM      8  N   UNL     1       0.048  -3.188  -1.579  0.00  0.00    -0.218 NA
ATOM      9  C   UNL     1       0.246  -2.929  -2.854  0.00  0.00    +0.225 A 
ATOM     10  N   UNL     1       0.226  -1.704  -3.346  0.00  0.00    -0.220 NA
ATOM     11  C   UNL     1       0.000  -0.653  -2.562  0.00  0.00    +0.136 A 
ENDROOT
BRANCH   7  12
ATOM     12  C   UNL     1      -0.870  -0.412   2.422  0.00  0.00    -0.001 A 
ATOM     13  C   UNL     1      -0.189   0.684   2.955  0.00  0.00    +0.010 A 
ATOM     14  C   UNL     1      -0.446   1.088   4.249  0.00  0.00    +0.001 A 
ATOM     15  C   UNL     1      -1.375   0.409   5.018  0.00  0.00    +0.000 A 
ATOM     16  C   UNL     1      -2.053  -0.678   4.495  0.00  0.00    +0.001 A 
ATOM     17  C   UNL     1      -1.810  -1.088   3.200  0.00  0.00    +0.010 A 
ENDBRANCH   7  12
BRANCH  11  18
ATOM     18  N   UNL     1      -0.021   0.629  -3.082  0.00  0.00    -0.299 N 
ATOM     19  H   UNL     1      -0.103   1.391  -2.488  0.00  0.00    +0.154 HD
BRANCH  18  20
ATOM     20  C   UNL     1       0.076   0.825  -4.462  0.00  0.00    +0.034 A 
ATOM     21  C   UNL     1       0.759   1.926  -4.963  0.00  0.00    +0.023 A 
ATOM     22  C   UNL     1       0.853   2.117  -6.327  0.00  0.00    +0.003 A 
ATOM     23  C   UNL     1       0.268   1.214  -7.196  0.00  0.00    +0.020 A 
ATOM     24  C   UNL     1      -0.414   0.116  -6.701  0.00  0.00    +0.043 A 
ATOM     25  C   UNL     1      -0.506  -0.084  -5.336  0.00  0.00    +0.043 A 
ATOM     26 CL   UNL     1      -1.147  -1.015  -7.795  0.00  0.00    -0.083 Cl
ENDBRANCH  18  20
ENDBRANCH  11  18
TORSDOF 3
