REMARK  Name = CHEMBL566350
REMARK  10 active torsions:
REMARK  status: ('A' for Active; 'I' for Inactive)
REMARK    1  A    between atoms: C_1  and  C_2
REMARK    2  A    between atoms: C_2  and  C_3
REMARK    3  A    between atoms: C_9  and  N_10
REMARK    4  A    between atoms: N_10  and  C_11
REMARK    5  A    between atoms: N_19  and  C_20
REMARK    6  A    between atoms: C_20  and  C_21
REMARK    7  A    between atoms: C_30  and  O_32
REMARK    8  A    between atoms: O_32  and  C_33
REMARK    9  A    between atoms: C_33  and  C_34
REMARK   10  A    between atoms: C_34  and  N_35
REMARK                            x       y       z     vdW  Elec       q    Type
REMARK                         _______ _______ _______ _____ _____    ______ ____
ROOT
ATOM      1  C   UNL     1      -0.884   0.513  -0.218  0.00  0.00    +0.003 C 
ATOM      2  C   UNL     1      -1.548  -0.164  -1.143  0.00  0.00    +0.047 C 
ATOM      3  C   UNL     1      -2.767  -0.757  -0.440  0.00  0.00    +0.258 C 
ATOM      4  N   UNL     1      -3.893  -0.487  -1.334  0.00  0.00    -0.241 NA
ATOM      5  C   UNL     1      -3.688  -0.403  -2.614  0.00  0.00    +0.220 C 
ATOM      6  N   UNL     1      -2.517  -0.511  -3.245  0.00  0.00    -0.219 NA
ATOM      7  C   UNL     1      -1.358  -0.399  -2.580  0.00  0.00    +0.152 C 
ATOM      8  N   UNL     1      -2.825  -0.077   0.844  0.00  0.00    -0.237 NA
ATOM      9  C   UNL     1      -1.720   0.600   0.993  0.00  0.00    +0.129 C 
ATOM     10  N   UNL     1      -1.381   1.310   2.134  0.00  0.00    -0.236 N 
ATOM     11  C   UNL     1      -2.217   1.327   3.191  0.00  0.00    +0.406 C 
ATOM     12  O   UNL     1      -3.269   0.721   3.143  0.00  0.00    -0.226 OA
ATOM     13  H   UNL     1      -0.541   1.794   2.172  0.00  0.00    +0.160 HD
ENDROOT
BRANCH   1  15
ATOM     14  C   UNL     1       0.394   2.559  -0.793  0.00  0.00    +0.009 C 
ATOM     15  C   UNL     1       0.499   1.091  -0.375  0.00  0.00    +0.036 C 
ENDBRANCH   1  15
BRANCH   7  16
ATOM     16  N   UNL     1      -0.126  -0.493  -3.179  0.00  0.00    -0.196 NA
BRANCH  16  17
ATOM     17  C   UNL     1      -0.018  -0.422  -4.572  0.00  0.00    +0.056 A 
ATOM     18  C   UNL     1       1.057  -1.035  -5.217  0.00  0.00    +0.027 A 
ATOM     19  C   UNL     1       1.181  -0.977  -6.575  0.00  0.00    +0.030 A 
ATOM     20  C   UNL     1       0.229  -0.300  -7.335  0.00  0.00    +0.069 A 
ATOM     21  C   UNL     1      -0.860   0.321  -6.695  0.00  0.00    +0.022 A 
ATOM     22  C   UNL     1      -0.979   0.250  -5.302  0.00  0.00    +0.036 A 
ATOM     23  C   UNL     1      -1.662   0.933  -7.749  0.00  0.00    +0.143 A 
ATOM     24  N   UNL     1      -1.081   0.682  -8.888  0.00  0.00    -0.178 NA
ATOM     25  N   UNL     1       0.080  -0.070  -8.679  0.00  0.00    -0.259 N 
BRANCH  25  26
ATOM     26  C   UNL     1       0.989  -0.538  -9.728  0.00  0.00    +0.179 C 
BRANCH  26  27
ATOM     27  C   UNL     1       0.547  -1.896 -10.209  0.00  0.00    -0.026 A 
ATOM     28  C   UNL     1       1.029  -3.037  -9.596  0.00  0.00    +0.005 A 
ATOM     29  C   UNL     1       0.623  -4.283 -10.036  0.00  0.00    +0.000 A 
ATOM     30  C   UNL     1      -0.266  -4.387 -11.090  0.00  0.00    +0.000 A 
ATOM     31  C   UNL     1      -0.749  -3.246 -11.702  0.00  0.00    +0.000 A 
ATOM     32  C   UNL     1      -0.346  -2.000 -11.259  0.00  0.00    +0.005 A 
ENDBRANCH  26  27
ENDBRANCH  25  26
ENDBRANCH  16  17
ENDBRANCH   7  16
BRANCH  11  33
ATOM     33  O   UNL     1      -1.888   2.016   4.299  0.00  0.00    -0.452 OA
BRANCH  33  34
ATOM     34  C   UNL     1      -2.821   1.991   5.381  0.00  0.00    +0.215 C 
BRANCH  34  35
ATOM     35  C   UNL     1      -2.278   2.824   6.543  0.00  0.00    -0.037 C 
BRANCH  35  36
ATOM     36  N   UNL     1      -2.151   4.226   6.124  0.00  0.00    +0.382 N 
ATOM     37  C   UNL     1      -1.493   4.995   7.187  0.00  0.00    -0.079 C 
ATOM     38  C   UNL     1      -1.285   6.438   6.723  0.00  0.00    -0.019 C 
ATOM     39  C   UNL     1      -2.644   7.067   6.402  0.00  0.00    -0.004 C 
ATOM     40  C   UNL     1      -3.353   6.214   5.346  0.00  0.00    -0.019 C 
ATOM     41  C   UNL     1      -3.485   4.779   5.861  0.00  0.00    -0.079 C 
ATOM     42  H   UNL     1      -1.595   4.275   5.283  0.00  0.00    -0.082 HD
ENDBRANCH  35  36
ENDBRANCH  34  35
ENDBRANCH  33  34
ENDBRANCH  11  33
TORSDOF 9
