REMARK  Name = ZINC49453932
REMARK  6 active torsions:
REMARK  status: ('A' for Active; 'I' for Inactive)
REMARK    1  A    between atoms: C_1  and  C_2
REMARK    2  A    between atoms: C_7  and  C_21
REMARK    3  A    between atoms: C_15  and  C_16
REMARK    4  A    between atoms: C_16  and  C_17
REMARK    5  A    between atoms: C_16  and  C_18
REMARK    6  A    between atoms: C_16  and  C_19
REMARK                            x       y       z     vdW  Elec       q    Type
REMARK                         _______ _______ _______ _____ _____    ______ ____
ROOT
ATOM      1  C   UNL     1      -4.545  -1.613  -1.846  0.00  0.00    +0.054 C 
ATOM      2  C   UNL     1      -3.572  -2.720  -1.435  0.00  0.00    +0.190 C 
ATOM      3  C   UNL     1      -4.358  -3.963  -1.010  0.00  0.00    +0.166 C 
ATOM      4  N   UNL     1      -3.425  -4.971  -0.483  0.00  0.00    -0.339 N 
ATOM      5  C   UNL     1      -3.748  -6.267  -0.605  0.00  0.00    +0.105 A 
ATOM      6  C   UNL     1      -2.947  -7.283  -0.123  0.00  0.00    +0.126 A 
ATOM      7  C   UNL     1      -1.685  -6.934   0.552  0.00  0.00    +0.204 A 
ATOM      8  O   UNL     1      -0.947  -7.791   1.004  0.00  0.00    -0.286 OA
ATOM      9  C   UNL     1      -1.357  -5.500   0.656  0.00  0.00    +0.053 A 
ATOM     10  C   UNL     1      -2.252  -4.560   0.122  0.00  0.00    +0.095 A 
ATOM     11  C   UNL     1      -1.936  -3.202   0.206  0.00  0.00    +0.145 A 
ATOM     12  C   UNL     1      -0.767  -2.799   0.822  0.00  0.00    +0.048 A 
ATOM     13  C   UNL     1       0.109  -3.734   1.355  0.00  0.00    +0.008 A 
ATOM     14  C   UNL     1      -0.179  -5.078   1.274  0.00  0.00    -0.029 A 
ATOM     15  O   UNL     1      -2.777  -2.275  -0.329  0.00  0.00    -0.485 OA
ENDROOT
BRANCH  14  16
ATOM     16  C   UNL     1       0.776  -6.091   1.853  0.00  0.00    -0.012 C 
ATOM     17  C   UNL     1       1.986  -5.369   2.449  0.00  0.00    +0.015 C 
ATOM     18  C   UNL     1       0.068  -6.891   2.948  0.00  0.00    +0.015 C 
ATOM     19  C   UNL     1       1.242  -7.041   0.748  0.00  0.00    +0.015 C 
ENDBRANCH  14  16
BRANCH   6  20
ATOM     20  C   UNL     1      -3.345  -8.685  -0.280  0.00  0.00    +0.392 C 
ATOM     21  O   UNL     1      -4.396  -8.964  -0.843  0.00  0.00    -0.240 OA
ATOM     22  O   UNL     1      -2.627  -9.578   0.151  0.00  0.00    -0.240 OA
ENDBRANCH   6  20
TORSDOF 2
