REMARK  Name = ZINC06014932
REMARK  13 active torsions:
REMARK  status: ('A' for Active; 'I' for Inactive)
REMARK    1  A    between atoms: C_1  and  C_2
REMARK    2  A    between atoms: C_2  and  C_3
REMARK    3  A    between atoms: C_2  and  C_4
REMARK    4  A    between atoms: C_2  and  N_5
REMARK    5  A    between atoms: C_6  and  C_10
REMARK    6  A    between atoms: C_10  and  C_12
REMARK    7  A    between atoms: C_10  and  N_64
REMARK    8  A    between atoms: C_16  and  O_24
REMARK    9  A    between atoms: O_24  and  C_25
REMARK   10  A    between atoms: C_26  and  C_27
REMARK   11  A    between atoms: C_26  and  N_64
REMARK   12  A    between atoms: C_32  and  C_33
REMARK   13  A    between atoms: C_32  and  N_64
REMARK                            x       y       z     vdW  Elec       q    Type
REMARK                         _______ _______ _______ _____ _____    ______ ____
ROOT
ATOM      1  C   UNL     1      -2.670   2.611   1.077  0.00  0.00    +0.040 C 
ENDROOT
BRANCH   1   2
ATOM      2  C   UNL     1      -3.384   2.891   2.374  0.00  0.00    +0.011 A 
ATOM      3  C   UNL     1      -4.058   4.056   2.537  0.00  0.00    +0.017 A 
ATOM      4  C   UNL     1      -4.745   4.296   3.807  0.00  0.00    +0.002 A 
ATOM      5  C   UNL     1      -5.460   5.478   4.029  0.00  0.00    +0.055 A 
ATOM      6  C   UNL     1      -6.092   5.674   5.240  0.00  0.00    +0.121 A 
ATOM      7  C   UNL     1      -6.021   4.703   6.236  0.00  0.00    +0.047 A 
ATOM      8  C   UNL     1      -5.320   3.535   6.029  0.00  0.00    +0.030 A 
ATOM      9  C   UNL     1      -4.676   3.317   4.816  0.00  0.00    +0.049 A 
ATOM     10  N   UNL     1      -3.969   2.154   4.589  0.00  0.00    -0.322 N 
ATOM     11  H   UNL     1      -3.921   1.459   5.307  0.00  0.00    +0.169 HD
ATOM     12  C   UNL     1      -3.345   1.941   3.418  0.00  0.00    +0.251 A 
ATOM     13  O   UNL     1      -2.731   0.901   3.252  0.00  0.00    -0.268 OA
BRANCH   6  14
ATOM     14  O   UNL     1      -6.788   6.821   5.462  0.00  0.00    -0.495 OA
ATOM     15  C   UNL     1      -7.418   6.961   6.737  0.00  0.00    +0.277 C 
ENDBRANCH   6  14
ENDBRANCH   1   2
BRANCH   1  17
ATOM     16  N   UNL     1      -4.001   1.722  -0.909  0.00  0.00    -0.225 N 
ATOM     17  C   UNL     1      -3.430   1.567   0.300  0.00  0.00    +0.143 A 
ATOM     18  N   UNL     1      -3.658   0.330   0.668  0.00  0.00    -0.115 NA
ATOM     19  N   UNL     1      -4.340  -0.243  -0.263  0.00  0.00    -0.023 NA
ATOM     20  N   UNL     1      -4.547   0.595  -1.218  0.00  0.00    -0.043 NA
BRANCH  16  22
ATOM     21  C   UNL     1      -2.562   3.331  -2.059  0.00  0.00    +0.036 C 
ATOM     22  C   UNL     1      -4.003   2.942  -1.720  0.00  0.00    +0.059 C 
ATOM     23  C   UNL     1      -4.781   2.693  -3.013  0.00  0.00    +0.036 C 
ATOM     24  C   UNL     1      -4.666   4.075  -0.935  0.00  0.00    +0.036 C 
ENDBRANCH  16  22
ENDBRANCH   1  17
BRANCH   1  25
ATOM     25  N   UNL     1      -1.316   2.102   1.383  0.00  0.00    +0.397 N 
ATOM     26  H   UNL     1      -1.377   1.443   2.168  0.00  0.00    -0.079 HD
BRANCH  25  27
ATOM     27  C   UNL     1      -0.764   1.397   0.206  0.00  0.00    -0.001 C 
BRANCH  27  28
ATOM     28  C   UNL     1       0.511   0.703   0.610  0.00  0.00    +0.089 A 
ATOM     29  C   UNL     1       0.605  -0.545   1.103  0.00  0.00    +0.042 A 
ATOM     30  C   UNL     1       1.978  -0.790   1.337  0.00  0.00    +0.041 A 
ATOM     31  C   UNL     1       2.640   0.322   0.972  0.00  0.00    +0.195 A 
ATOM     32  O   UNL     1       1.747   1.223   0.533  0.00  0.00    -0.470 OA
ENDBRANCH  27  28
ENDBRANCH  25  27
BRANCH  25  33
ATOM     33  C   UNL     1      -0.429   3.222   1.762  0.00  0.00    -0.034 C 
BRANCH  33  34
ATOM     34  C   UNL     1      -0.758   3.642   3.172  0.00  0.00    -0.027 A 
ATOM     35  C   UNL     1      -0.387   3.068   4.342  0.00  0.00    +0.009 A 
ATOM     36  C   UNL     1      -0.811   3.633   5.530  0.00  0.00    +0.008 A 
ATOM     37  C   UNL     1      -1.585   4.745   5.490  0.00  0.00    +0.045 A 
ATOM     38  S   UNL     1      -1.731   5.029   3.733  0.00  0.00    -0.103 S 
ENDBRANCH  33  34
ENDBRANCH  25  33
ENDBRANCH   1  25
TORSDOF 9
