REMARK  Name = ZINC50351856
REMARK  3 active torsions:
REMARK  status: ('A' for Active; 'I' for Inactive)
REMARK    1  A    between atoms: C_3  and  N_17
REMARK    2  A    between atoms: C_4  and  N_8
REMARK    3  A    between atoms: N_8  and  C_9
REMARK                            x       y       z     vdW  Elec       q    Type
REMARK                         _______ _______ _______ _____ _____    ______ ____
ROOT
ATOM      1  C   UNL     1       2.341   1.828   2.753  0.00  0.00    +0.004 A 
ATOM      2  C   UNL     1       3.651   1.885   2.313  0.00  0.00    +0.035 A 
ATOM      3  C   UNL     1       4.137   0.915   1.458  0.00  0.00    +0.148 A 
ATOM      4  C   UNL     1       3.309  -0.120   1.042  0.00  0.00    +0.077 A 
ATOM      5  C   UNL     1       1.993  -0.174   1.486  0.00  0.00    +0.064 A 
ATOM      6  C   UNL     1       1.514   0.800   2.341  0.00  0.00    +0.022 A 
ATOM      7 CL   UNL     1       0.954  -1.464   0.968  0.00  0.00    -0.082 Cl
ENDROOT
BRANCH   3   8
ATOM      8  N   UNL     1       5.539   0.977   0.987  0.00  0.00    +0.058 N 
ATOM      9  O   UNL     1       6.289   1.814   1.432  0.00  0.00    -0.126 OA
ATOM     10  O   UNL     1       5.933   0.192   0.157  0.00  0.00    -0.126 OA
ENDBRANCH   3   8
BRANCH   4  11
ATOM     11  N   UNL     1       3.798  -1.103   0.177  0.00  0.00    -0.336 N 
ATOM     12  H   UNL     1       4.018  -0.876  -0.740  0.00  0.00    +0.147 HD
BRANCH  11  13
ATOM     13  C   UNL     1       3.977  -2.476   0.655  0.00  0.00    +0.093 C 
ATOM     14  C   UNL     1       3.889  -3.446  -0.534  0.00  0.00    +0.046 C 
ATOM     15  C   UNL     1       4.389  -4.841  -0.059  0.00  0.00    +0.168 C 
ATOM     16  S   UNL     1       5.827  -4.347   0.982  0.00  0.00    -0.029 S 
ATOM     17  O   UNL     1       5.799  -5.091   2.192  0.00  0.00    -0.174 OA
ATOM     18  O   UNL     1       7.001  -4.356   0.182  0.00  0.00    -0.174 OA
ATOM     19  C   UNL     1       5.360  -2.605   1.339  0.00  0.00    +0.188 C 
ENDBRANCH  11  13
ENDBRANCH   4  11
TORSDOF 3
