REMARK  Name = ZINC67028499
REMARK  6 active torsions:
REMARK  status: ('A' for Active; 'I' for Inactive)
REMARK    1  A    between atoms: C_1  and  C_2
REMARK    2  A    between atoms: C_2  and  O_3
REMARK    3  A    between atoms: O_3  and  C_4
REMARK    4  A    between atoms: C_7  and  C_25
REMARK    5  A    between atoms: C_12  and  C_14
REMARK    6  A    between atoms: C_16  and  C_19
REMARK                            x       y       z     vdW  Elec       q    Type
REMARK                         _______ _______ _______ _____ _____    ______ ____
ROOT
ATOM      1  C   UNL     1       0.814  -1.814   1.296  0.00  0.00    +0.339 C 
ATOM      2  O   UNL     1       0.302  -2.637   0.360  0.00  0.00    -0.245 OA
ATOM      3  C   UNL     1       1.461  -2.337   2.393  0.00  0.00    +0.082 C 
ATOM      4  C   UNL     1       1.501  -3.714   2.629  0.00  0.00    +0.042 C 
ATOM      5  N   UNL     1       2.122  -4.202   3.679  0.00  0.00    -0.197 NA
ATOM      6  C   UNL     1       2.753  -3.468   4.592  0.00  0.00    +0.155 C 
ATOM      7  S   UNL     1       3.513  -4.266   5.902  0.00  0.00    -0.017 S 
ATOM      8  N   UNL     1       2.820  -2.124   4.529  0.00  0.00    -0.312 N 
ATOM      9  C   UNL     1       2.168  -1.444   3.395  0.00  0.00    +0.167 C 
ATOM     10  C   UNL     1       0.821  -4.653   1.665  0.00  0.00    +0.063 C 
ATOM     11  H   UNL     1       3.288  -1.617   5.211  0.00  0.00    +0.149 HD
ENDROOT
BRANCH   9  12
ATOM     12  C   UNL     1       3.214  -0.647   2.658  0.00  0.00    +0.104 A 
ATOM     13  N   UNL     1       3.183   0.617   2.325  0.00  0.00    -0.242 NA
ATOM     14  C   UNL     1       4.187   1.183   1.672  0.00  0.00    +0.079 A 
ATOM     15  C   UNL     1       5.250   0.376   1.368  0.00  0.00    +0.075 A 
ATOM     16  S   UNL     1       4.702  -1.170   2.073  0.00  0.00    -0.078 S 
BRANCH  14  17
ATOM     17  C   UNL     1       4.161   2.616   1.289  0.00  0.00    +0.001 A 
ATOM     18  C   UNL     1       3.113   3.433   1.710  0.00  0.00    +0.010 A 
ATOM     19  C   UNL     1       3.094   4.766   1.351  0.00  0.00    +0.001 A 
ATOM     20  C   UNL     1       4.112   5.291   0.576  0.00  0.00    +0.000 A 
ATOM     21  C   UNL     1       5.154   4.485   0.156  0.00  0.00    +0.001 A 
ATOM     22  C   UNL     1       5.187   3.152   0.513  0.00  0.00    +0.010 A 
ENDBRANCH  14  17
ENDBRANCH   9  12
BRANCH   1  23
ATOM     23  O   UNL     1       0.694  -0.479   1.158  0.00  0.00    -0.462 OA
BRANCH  23  25
ATOM     24  C   UNL     1      -0.027   1.523   0.013  0.00  0.00    +0.048 C 
ATOM     25  C   UNL     1       0.010  -0.006  -0.005  0.00  0.00    +0.229 C 
ENDBRANCH  23  25
ENDBRANCH   1  23
TORSDOF 4
