REMARK  Name = ZINC21345363
REMARK  10 active torsions:
REMARK  status: ('A' for Active; 'I' for Inactive)
REMARK    1  A    between atoms: C_1  and  C_2
REMARK    2  A    between atoms: C_3  and  C_26
REMARK    3  A    between atoms: C_4  and  C_25
REMARK    4  A    between atoms: C_7  and  C_8
REMARK    5  A    between atoms: N_10  and  N_11
REMARK    6  A    between atoms: N_11  and  C_12
REMARK    7  A    between atoms: C_12  and  N_14
REMARK    8  A    between atoms: N_14  and  C_15
REMARK    9  A    between atoms: C_20  and  C_21
REMARK   10  A    between atoms: C_26  and  C_28
REMARK                            x       y       z     vdW  Elec       q    Type
REMARK                         _______ _______ _______ _____ _____    ______ ____
ROOT
ATOM      1  N   UNL     1      -4.736  -0.061  -0.147  0.00  0.00    -0.245 N 
ATOM      2  H   UNL     1      -5.678  -0.624  -0.237  0.00  0.00    +0.172 HD
ENDROOT
BRANCH   1   5
ATOM      3  C   UNL     1      -5.926   1.998  -0.240  0.00  0.00    +0.277 C 
ATOM      4  O   UNL     1      -6.967   1.377  -0.339  0.00  0.00    -0.267 OA
ATOM      5  N   UNL     1      -4.755   1.339  -0.139  0.00  0.00    -0.230 N 
ATOM      6  H   UNL     1      -3.814   1.901  -0.049  0.00  0.00    +0.173 HD
BRANCH   3  13
ATOM      7  C   UNL     1      -8.479   3.774  -0.472  0.00  0.00    +0.047 C 
ATOM      8  C   UNL     1      -7.056   4.250  -0.332  0.00  0.00    -0.010 A 
ATOM      9  C   UNL     1      -6.620   5.595  -0.276  0.00  0.00    +0.041 A 
ATOM     10  C   UNL     1      -5.239   5.568  -0.152  0.00  0.00    +0.024 A 
ATOM     11  N   UNL     1      -4.843   4.287  -0.125  0.00  0.00    -0.354 N 
ATOM     12  H   UNL     1      -3.775   4.044  -0.030  0.00  0.00    +0.166 HD
ATOM     13  C   UNL     1      -5.946   3.467  -0.231  0.00  0.00    +0.107 A 
ATOM     14  C   UNL     1      -4.338   6.772  -0.061  0.00  0.00    +0.064 C 
BRANCH   9  15
ATOM     15  C   UNL     1      -7.466   6.790  -0.344  0.00  0.00    +0.162 C 
ATOM     16  O   UNL     1      -7.977   7.230   0.665  0.00  0.00    -0.292 OA
ATOM     17  C   UNL     1      -7.701   7.473  -1.667  0.00  0.00    +0.091 C 
ENDBRANCH   9  15
ENDBRANCH   3  13
ENDBRANCH   1   5
BRANCH   1  18
ATOM     18  C   UNL     1      -3.565  -0.721  -0.046  0.00  0.00    +0.151 C 
ATOM     19  S   UNL     1      -3.542  -2.432  -0.056  0.00  0.00    -0.017 S 
BRANCH  18  20
ATOM     20  N   UNL     1      -2.412  -0.032   0.064  0.00  0.00    -0.295 N 
ATOM     21  H   UNL     1      -2.432   1.065   0.148  0.00  0.00    +0.154 HD
BRANCH  20  22
ATOM     22  C   UNL     1      -1.189  -0.712   0.072  0.00  0.00    +0.044 A 
ATOM     23  C   UNL     1      -1.022  -1.834   0.873  0.00  0.00    +0.024 A 
ATOM     24  C   UNL     1       0.186  -2.503   0.877  0.00  0.00    +0.002 A 
ATOM     25  C   UNL     1       1.229  -2.057   0.085  0.00  0.00    +0.001 A 
ATOM     26  C   UNL     1       1.063  -0.944  -0.718  0.00  0.00    +0.014 A 
ATOM     27  C   UNL     1      -0.141  -0.267  -0.723  0.00  0.00    +0.076 A 
BRANCH  27  28
ATOM     28  C   UNL     1      -0.318   0.950  -1.594  0.00  0.00    +0.419 C 
ATOM     29  F   UNL     1       0.867   1.200  -2.294  0.00  0.00    -0.166 F 
ATOM     30  F   UNL     1      -1.358   0.726  -2.502  0.00  0.00    -0.166 F 
ATOM     31  F   UNL     1      -0.628   2.055  -0.793  0.00  0.00    -0.166 F 
ENDBRANCH  27  28
ENDBRANCH  20  22
ENDBRANCH  18  20
ENDBRANCH   1  18
TORSDOF 7
