REMARK  Name = ZINC44784407
REMARK  4 active torsions:
REMARK  status: ('A' for Active; 'I' for Inactive)
REMARK    1  A    between atoms: C_4  and  C_6
REMARK    2  A    between atoms: C_4  and  C_10
REMARK    3  A    between atoms: N_7  and  O_8
REMARK    4  A    between atoms: N_12  and  C_13
REMARK                            x       y       z     vdW  Elec       q    Type
REMARK                         _______ _______ _______ _____ _____    ______ ____
ROOT
ATOM      1  C   UNL     1       2.030  -1.147  -0.523  0.00  0.00    +0.227 C 
ATOM      2  O   UNL     1       3.095  -0.738  -0.933  0.00  0.00    -0.275 OA
ATOM      3  N   UNL     1       1.485  -2.259  -1.055  0.00  0.00    -0.313 N 
ATOM      4  H   UNL     1       0.602  -2.548  -0.776  0.00  0.00    +0.149 HD
ENDROOT
BRANCH   3   5
ATOM      5  C   UNL     1       2.226  -3.032  -2.054  0.00  0.00    +0.059 C 
ATOM      6  C   UNL     1       1.987  -2.436  -3.444  0.00  0.00    -0.056 C 
ATOM      7  N   UNL     1       1.371  -3.436  -4.319  0.00  0.00    +0.381 N 
ATOM      8  C   UNL     1       0.070  -3.852  -3.790  0.00  0.00    -0.078 C 
ATOM      9  C   UNL     1       0.245  -4.495  -2.412  0.00  0.00    -0.014 C 
ATOM     10  C   UNL     1       1.737  -4.486  -2.046  0.00  0.00    +0.004 C 
ATOM     11  C   UNL     1       2.504  -5.261  -3.126  0.00  0.00    -0.014 C 
ATOM     12  C   UNL     1       2.255  -4.593  -4.483  0.00  0.00    -0.078 C 
ATOM     13  H   UNL     1       1.220  -3.018  -5.225  0.00  0.00    -0.082 HD
ENDBRANCH   3   5
BRANCH   1  17
ATOM     14  C   UNL     1      -0.178   1.517   0.183  0.00  0.00    +0.001 C 
ATOM     15  C   UNL     1       1.298   1.974   0.071  0.00  0.00    +0.001 C 
ATOM     16  C   UNL     1       2.051   0.906   0.902  0.00  0.00    +0.024 C 
ATOM     17  C   UNL     1       1.315  -0.411   0.581  0.00  0.00    +0.105 C 
ATOM     18  C   UNL     1      -0.102  -0.023   0.124  0.00  0.00    +0.024 C 
BRANCH  17  19
ATOM     19  C   UNL     1       1.241  -1.275   1.814  0.00  0.00    +0.147 C 
ATOM     20  N   UNL     1       0.668  -0.828   2.882  0.00  0.00    -0.076 NA
ATOM     21  N   UNL     1       1.785  -2.540   1.802  0.00  0.00    -0.343 N 
ATOM     22  H   UNL     1       2.156  -2.901   0.982  0.00  0.00    +0.144 HD
ATOM     23  H   UNL     1       1.797  -3.071   2.614  0.00  0.00    +0.144 HD
BRANCH  20  24
ATOM     24  O   UNL     1       0.012   0.427   2.862  0.00  0.00    -0.408 OA
ATOM     25  H   UNL     1      -0.386   0.676   3.707  0.00  0.00    +0.328 HD
ENDBRANCH  20  24
ENDBRANCH  17  19
ENDBRANCH   1  17
TORSDOF 4
