REMARK  Name = ZINC21729835
REMARK  5 active torsions:
REMARK  status: ('A' for Active; 'I' for Inactive)
REMARK    1  A    between atoms: C_3  and  N_25
REMARK    2  A    between atoms: C_6  and  C_7
REMARK    3  A    between atoms: C_7  and  N_8
REMARK    4  A    between atoms: C_10  and  C_13
REMARK    5  A    between atoms: C_15  and  C_18
REMARK                            x       y       z     vdW  Elec       q    Type
REMARK                         _______ _______ _______ _____ _____    ______ ____
ROOT
ATOM      1  N   UNL     1       5.500   1.654  -0.040  0.00  0.00    -0.332 N 
ATOM      2  C   UNL     1       4.184   2.005  -0.032  0.00  0.00    +0.120 A 
ATOM      3  C   UNL     1       3.468   0.845  -0.026  0.00  0.00    +0.146 A 
ATOM      4  N   UNL     1       4.348  -0.180  -0.040  0.00  0.00    -0.231 NA
ATOM      5  C   UNL     1       5.559   0.297  -0.049  0.00  0.00    +0.200 A 
ENDROOT
BRANCH   3   6
ATOM      6  C   UNL     1       1.997   0.730  -0.013  0.00  0.00    +0.279 A 
ATOM      7  N   UNL     1       1.295  -0.390  -0.012  0.00  0.00    -0.186 NA
ATOM      8  C   UNL     1       0.002  -0.004   0.002  0.00  0.00    +0.202 A 
ATOM      9  N   UNL     1      -0.016   1.304   0.009  0.00  0.00    -0.056 NA
ATOM     10  O   UNL     1       1.115   1.742   0.001  0.00  0.00    -0.331 OA
BRANCH   8  11
ATOM     11  C   UNL     1      -1.182  -0.899   0.009  0.00  0.00    +0.023 A 
ATOM     12  C   UNL     1      -1.012  -2.282  -0.005  0.00  0.00    +0.014 A 
ATOM     13  C   UNL     1      -2.115  -3.110   0.007  0.00  0.00    +0.039 A 
ATOM     14  C   UNL     1      -3.391  -2.569   0.022  0.00  0.00    +0.123 A 
ATOM     15  C   UNL     1      -3.564  -1.194   0.031  0.00  0.00    +0.039 A 
ATOM     16  C   UNL     1      -2.466  -0.358   0.025  0.00  0.00    +0.014 A 
ATOM     17  F   UNL     1      -4.468  -3.384   0.029  0.00  0.00    -0.205 F 
ENDBRANCH   8  11
ENDBRANCH   3   6
BRANCH   1  18
ATOM     18  C   UNL     1       6.642   2.571  -0.046  0.00  0.00    +0.157 C 
BRANCH  18  24
ATOM     19  C   UNL     1       7.947   2.112  -2.131  0.00  0.00    +0.007 A 
ATOM     20  C   UNL     1       8.292   2.401  -3.436  0.00  0.00    +0.023 A 
ATOM     21  C   UNL     1       7.714   3.488  -4.080  0.00  0.00    +0.025 A 
ATOM     22  C   UNL     1       6.786   4.276  -3.411  0.00  0.00    +0.023 A 
ATOM     23  C   UNL     1       6.442   3.977  -2.107  0.00  0.00    +0.007 A 
ATOM     24  C   UNL     1       7.020   2.894  -1.468  0.00  0.00    -0.028 A 
BRANCH  21  25
ATOM     25  N   UNL     1       8.064   3.788  -5.399  0.00  0.00    -0.358 N 
ATOM     26  H   UNL     1       7.606   4.648  -5.908  0.00  0.00    +0.142 HD
ATOM     27  H   UNL     1       8.799   3.163  -5.928  0.00  0.00    +0.142 HD
ENDBRANCH  21  25
ENDBRANCH  18  24
ENDBRANCH   1  18
TORSDOF 5
