REMARK  Name = ZINC06845155
REMARK  6 active torsions:
REMARK  status: ('A' for Active; 'I' for Inactive)
REMARK    1  A    between atoms: C_1  and  C_2
REMARK    2  A    between atoms: C_5  and  C_8
REMARK    3  A    between atoms: C_8  and  C_10
REMARK    4  A    between atoms: C_11  and  C_22
REMARK    5  A    between atoms: N_13  and  C_16
REMARK    6  A    between atoms: C_14  and  O_15
REMARK                            x       y       z     vdW  Elec       q    Type
REMARK                         _______ _______ _______ _____ _____    ______ ____
ROOT
ATOM      1  C   UNL     1       0.073  -5.086   1.186  0.00  0.00    +0.106 A 
ATOM      2  C   UNL     1       0.146  -6.499   1.233  0.00  0.00    +0.075 A 
ATOM      3  N   UNL     1       0.136  -6.866   2.483  0.00  0.00    -0.168 NA
ATOM      4  N   UNL     1       0.058  -5.730   3.296  0.00  0.00    -0.200 N 
ATOM      5  C   UNL     1       0.025  -4.638   2.503  0.00  0.00    +0.227 A 
ATOM      6  C   UNL     1       0.223  -7.420   0.043  0.00  0.00    +0.068 C 
ENDROOT
BRANCH   4   7
ATOM      7  C   UNL     1       0.024  -5.726   4.697  0.00  0.00    +0.069 A 
ATOM      8  C   UNL     1       0.639  -4.702   5.405  0.00  0.00    +0.028 A 
ATOM      9  C   UNL     1       0.604  -4.700   6.785  0.00  0.00    +0.002 A 
ATOM     10  C   UNL     1      -0.042  -5.718   7.463  0.00  0.00    +0.000 A 
ATOM     11  C   UNL     1      -0.655  -6.739   6.761  0.00  0.00    +0.002 A 
ATOM     12  C   UNL     1      -0.628  -6.743   5.380  0.00  0.00    +0.028 A 
ENDBRANCH   4   7
BRANCH   1  13
ATOM     13  C   UNL     1       0.058  -4.252  -0.021  0.00  0.00    +0.200 C 
ATOM     14  O   UNL     1      -1.001  -3.884  -0.494  0.00  0.00    -0.286 OA
BRANCH  13  19
ATOM     15  C   UNL     1       5.010  -2.718  -2.521  0.00  0.00    +0.044 C 
ATOM     16  C   UNL     1       3.714  -3.120  -1.867  0.00  0.00    -0.050 A 
ATOM     17  C   UNL     1       2.510  -2.796  -2.467  0.00  0.00    +0.004 A 
ATOM     18  C   UNL     1       1.319  -3.160  -1.873  0.00  0.00    +0.012 A 
ATOM     19  C   UNL     1       1.331  -3.858  -0.664  0.00  0.00    +0.023 A 
ATOM     20  C   UNL     1       2.549  -4.182  -0.064  0.00  0.00    +0.012 A 
ATOM     21  C   UNL     1       3.732  -3.817  -0.671  0.00  0.00    +0.004 A 
ENDBRANCH  13  19
ENDBRANCH   1  13
BRANCH   5  22
ATOM     22  O   UNL     1      -0.046  -3.350   2.912  0.00  0.00    -0.492 OA
ATOM     23  H   UNL     1      -0.946  -3.041   3.086  0.00  0.00    +0.294 HD
ENDBRANCH   5  22
TORSDOF 4
