REMARK  Name = ZINC06668237
REMARK  5 active torsions:
REMARK  status: ('A' for Active; 'I' for Inactive)
REMARK    1  A    between atoms: C_6  and  S_17
REMARK    2  A    between atoms: C_13  and  N_14
REMARK    3  A    between atoms: S_17  and  N_20
REMARK    4  A    between atoms: N_20  and  C_21
REMARK    5  A    between atoms: C_21  and  C_22
REMARK                            x       y       z     vdW  Elec       q    Type
REMARK                         _______ _______ _______ _____ _____    ______ ____
ROOT
ATOM      1  C   UNL     1       4.276   5.514   0.368  0.00  0.00    +0.033 A 
ATOM      2  C   UNL     1       2.911   5.321   0.327  0.00  0.00    +0.014 A 
ATOM      3  C   UNL     1       2.399   4.031   0.241  0.00  0.00    +0.028 A 
ATOM      4  C   UNL     1       1.036   3.470   0.179  0.00  0.00    +0.030 A 
ATOM      5  C   UNL     1      -0.239   4.027   0.182  0.00  0.00    +0.040 A 
ATOM      6  C   UNL     1      -1.344   3.205   0.111  0.00  0.00    +0.106 A 
ATOM      7  C   UNL     1      -1.185   1.831   0.031  0.00  0.00    +0.032 A 
ATOM      8  C   UNL     1       0.074   1.269   0.031  0.00  0.00    +0.049 A 
ATOM      9  C   UNL     1       1.200   2.080   0.103  0.00  0.00    +0.136 A 
ATOM     10  O   UNL     1       2.522   1.803   0.116  0.00  0.00    -0.455 OA
ATOM     11  C   UNL     1       3.265   2.929   0.198  0.00  0.00    +0.138 A 
ATOM     12  C   UNL     1       4.637   3.143   0.240  0.00  0.00    +0.079 A 
ATOM     13  C   UNL     1       5.134   4.428   0.324  0.00  0.00    +0.130 A 
ENDROOT
BRANCH  13  14
ATOM     14  N   UNL     1       6.597   4.646   0.370  0.00  0.00    +0.057 N 
ATOM     15  O   UNL     1       7.042   5.778   0.445  0.00  0.00    -0.126 OA
ATOM     16  O   UNL     1       7.356   3.695   0.332  0.00  0.00    -0.126 OA
ENDBRANCH  13  14
BRANCH   6  17
ATOM     17  S   UNL     1      -2.961   3.905   0.116  0.00  0.00    +0.058 S 
ATOM     18  O   UNL     1      -3.840   2.893   0.590  0.00  0.00    -0.153 OA
ATOM     19  O   UNL     1      -2.853   5.175   0.743  0.00  0.00    -0.153 OA
BRANCH  17  20
ATOM     20  N   UNL     1      -3.376   4.190  -1.462  0.00  0.00    -0.190 NA
ATOM     21  H   UNL     1      -3.509   5.100  -1.772  0.00  0.00    +0.148 HD
BRANCH  20  22
ATOM     22  C   UNL     1      -3.541   3.069  -2.390  0.00  0.00    +0.109 C 
BRANCH  22  23
ATOM     23  C   UNL     1      -4.272   3.550  -3.646  0.00  0.00    +0.008 C 
ATOM     24  C   UNL     1      -3.351   4.460  -4.490  0.00  0.00    +0.008 C 
ATOM     25  C   UNL     1      -3.209   3.719  -5.855  0.00  0.00    -0.010 C 
ATOM     26  C   UNL     1      -2.333   2.466  -5.550  0.00  0.00    +0.004 C 
ATOM     27  C   UNL     1      -3.263   1.547  -4.669  0.00  0.00    +0.004 C 
ATOM     28  C   UNL     1      -4.599   2.345  -4.580  0.00  0.00    -0.006 C 
ATOM     29  C   UNL     1      -4.628   3.060  -5.976  0.00  0.00    +0.007 C 
ENDBRANCH  22  23
ENDBRANCH  20  22
ENDBRANCH  17  20
ENDBRANCH   6  17
TORSDOF 5
