REMARK  Name = ZINC44920648
REMARK  6 active torsions:
REMARK  status: ('A' for Active; 'I' for Inactive)
REMARK    1  A    between atoms: C_1  and  C_2
REMARK    2  A    between atoms: C_2  and  C_3
REMARK    3  A    between atoms: C_2  and  N_4
REMARK    4  A    between atoms: C_5  and  C_7
REMARK    5  A    between atoms: N_10  and  C_17
REMARK    6  A    between atoms: C_11  and  N_12
REMARK                            x       y       z     vdW  Elec       q    Type
REMARK                         _______ _______ _______ _____ _____    ______ ____
ROOT
ATOM      1  C   UNL     1       0.697  -1.389   3.516  0.00  0.00    +0.099 A 
ATOM      2  C   UNL     1       2.082  -1.664   3.595  0.00  0.00    +0.150 A 
ATOM      3  N   UNL     1       2.414  -1.723   4.855  0.00  0.00    -0.172 NA
ATOM      4  N   UNL     1       1.280  -1.492   5.640  0.00  0.00    -0.212 N 
ATOM      5  C   UNL     1       0.228  -1.281   4.820  0.00  0.00    +0.153 A 
ENDROOT
BRANCH   4   6
ATOM      6  C   UNL     1       1.242  -1.476   7.042  0.00  0.00    +0.103 A 
ATOM      7  C   UNL     1       0.606  -0.439   7.709  0.00  0.00    +0.031 A 
ATOM      8  C   UNL     1       0.571  -0.426   9.090  0.00  0.00    +0.002 A 
ATOM      9  C   UNL     1       1.169  -1.445   9.809  0.00  0.00    +0.003 A 
ATOM     10  C   UNL     1       1.804  -2.481   9.149  0.00  0.00    +0.040 A 
ATOM     11  C   UNL     1       1.838  -2.503   7.766  0.00  0.00    +0.149 A 
ATOM     12  F   UNL     1       2.454  -3.518   7.120  0.00  0.00    -0.203 F 
ENDBRANCH   4   6
BRANCH   5  13
ATOM     13  N   UNL     1      -1.079  -1.011   5.207  0.00  0.00    -0.307 N 
ATOM     14  C   UNL     1      -1.837  -1.778   6.048  0.00  0.00    +0.092 A 
ATOM     15  C   UNL     1      -3.043  -1.192   6.181  0.00  0.00    +0.019 A 
ATOM     16  C   UNL     1      -3.034  -0.020   5.395  0.00  0.00    +0.019 A 
ATOM     17  C   UNL     1      -1.820   0.070   4.816  0.00  0.00    +0.092 A 
ENDBRANCH   5  13
BRANCH   1  19
ATOM     18  N   UNL     1       0.497  -1.369   1.083  0.00  0.00    -0.309 N 
ATOM     19  C   UNL     1      -0.095  -1.238   2.287  0.00  0.00    +0.249 C 
ATOM     20  O   UNL     1      -1.285  -0.994   2.356  0.00  0.00    -0.270 OA
ATOM     21  H   UNL     1       1.446  -1.563   1.028  0.00  0.00    +0.149 HD
BRANCH  18  23
ATOM     22  C   UNL     1      -0.383   0.263  -0.512  0.00  0.00    +0.027 C 
ATOM     23  C   UNL     1      -0.292  -1.219  -0.142  0.00  0.00    +0.067 C 
ATOM     24  C   UNL     1       0.380  -1.988  -1.280  0.00  0.00    +0.027 C 
ENDBRANCH  18  23
ENDBRANCH   1  19
TORSDOF 4
