REMARK  Name = ZINC19878658
REMARK  5 active torsions:
REMARK  status: ('A' for Active; 'I' for Inactive)
REMARK    1  A    between atoms: C_1  and  C_2
REMARK    2  A    between atoms: C_7  and  C_8
REMARK    3  A    between atoms: C_8  and  C_19
REMARK    4  A    between atoms: C_9  and  C_10
REMARK    5  A    between atoms: C_15  and  N_16
REMARK                            x       y       z     vdW  Elec       q    Type
REMARK                         _______ _______ _______ _____ _____    ______ ____
ROOT
ATOM      1  C   UNL     1      -1.266   2.211   0.047  0.00  0.00    +0.071 C 
ATOM      2  C   UNL     1      -1.722   2.802  -1.091  0.00  0.00    +0.026 C 
ENDROOT
BRANCH   1   9
ATOM      3  C   UNL     1      -0.949  -0.665   0.028  0.00  0.00    +0.044 C 
ATOM      4  C   UNL     1       0.256   0.238   0.071  0.00  0.00    -0.043 A 
ATOM      5  C   UNL     1       1.525  -0.304   0.098  0.00  0.00    +0.004 A 
ATOM      6  C   UNL     1       2.633   0.523   0.137  0.00  0.00    +0.000 A 
ATOM      7  C   UNL     1       2.477   1.898   0.149  0.00  0.00    +0.001 A 
ATOM      8  C   UNL     1       1.214   2.452   0.122  0.00  0.00    +0.009 A 
ATOM      9  C   UNL     1       0.092   1.623   0.082  0.00  0.00    -0.008 A 
ENDBRANCH   1   9
BRANCH   2  10
ATOM     10  C   UNL     1      -0.923   2.741  -2.321  0.00  0.00    +0.006 A 
ATOM     11  C   UNL     1      -0.267   1.556  -2.677  0.00  0.00    +0.010 A 
ATOM     12  C   UNL     1       0.476   1.506  -3.837  0.00  0.00    +0.001 A 
ATOM     13  C   UNL     1       0.586   2.626  -4.643  0.00  0.00    +0.002 A 
ATOM     14  C   UNL     1      -0.054   3.803  -4.296  0.00  0.00    +0.033 A 
ATOM     15  C   UNL     1      -0.807   3.869  -3.142  0.00  0.00    +0.133 A 
BRANCH  15  16
ATOM     16  N   UNL     1      -1.491   5.129  -2.773  0.00  0.00    +0.057 N 
ATOM     17  O   UNL     1      -1.322   6.132  -3.442  0.00  0.00    -0.126 OA
ATOM     18  O   UNL     1      -2.223   5.162  -1.800  0.00  0.00    -0.126 OA
ENDBRANCH  15  16
ENDBRANCH   2  10
BRANCH   1  19
ATOM     19  C   UNL     1      -2.123   2.156   1.241  0.00  0.00    +0.387 C 
ATOM     20  O   UNL     1      -3.238   2.639   1.212  0.00  0.00    -0.241 OA
ATOM     21  O   UNL     1      -1.671   1.571   2.368  0.00  0.00    -0.241 OA
ENDBRANCH   1  19
TORSDOF 4
