REMARK  Name = ZINC01423728
REMARK  9 active torsions:
REMARK  status: ('A' for Active; 'I' for Inactive)
REMARK    1  A    between atoms: C_1  and  C_2
REMARK    2  A    between atoms: C_2  and  O_3
REMARK    3  A    between atoms: O_3  and  C_4
REMARK    4  A    between atoms: C_4  and  C_6
REMARK    5  A    between atoms: C_6  and  C_7
REMARK    6  A    between atoms: C_14  and  N_33
REMARK    7  A    between atoms: C_15  and  C_31
REMARK    8  A    between atoms: C_16  and  C_18
REMARK    9  A    between atoms: C_20  and  C_24
REMARK                            x       y       z     vdW  Elec       q    Type
REMARK                         _______ _______ _______ _____ _____    ______ ____
ROOT
ATOM      1  C   UNL     1      -2.782  -3.930   0.007  0.00  0.00    +0.055 A 
ATOM      2  C   UNL     1      -2.630  -4.720   1.081  0.00  0.00    +0.050 A 
ATOM      3  C   UNL     1      -2.581  -6.060   0.637  0.00  0.00    +0.245 A 
ATOM      4  N   UNL     1      -2.701  -6.059  -0.659  0.00  0.00    -0.135 NA
ATOM      5  N   UNL     1      -2.835  -4.728  -1.084  0.00  0.00    -0.277 N 
ATOM      6  H   UNL     1      -2.944  -4.431  -2.002  0.00  0.00    +0.189 HD
ATOM      7  O   UNL     1      -2.429  -7.101   1.499  0.00  0.00    -0.421 OA
ATOM      8  C   UNL     1      -2.055  -6.811   2.761  0.00  0.00    +0.201 C 
ATOM      9  C   UNL     1      -2.072  -5.574   3.299  0.00  0.00    +0.098 C 
ATOM     10  C   UNL     1      -2.522  -4.352   2.539  0.00  0.00    +0.103 C 
ENDROOT
BRANCH  10  11
ATOM     11  C   UNL     1      -3.865  -3.901   3.051  0.00  0.00    -0.016 A 
ATOM     12  C   UNL     1      -4.027  -2.624   3.562  0.00  0.00    +0.016 A 
ATOM     13  C   UNL     1      -5.291  -2.251   4.025  0.00  0.00    +0.001 A 
ATOM     14  C   UNL     1      -6.334  -3.173   3.955  0.00  0.00    +0.119 A 
ATOM     15  N   UNL     1      -6.132  -4.377   3.461  0.00  0.00    -0.262 NA
ATOM     16  C   UNL     1      -4.951  -4.756   3.011  0.00  0.00    +0.115 A 
BRANCH  13  17
ATOM     17  C   UNL     1      -5.520  -0.895   4.582  0.00  0.00    -0.016 A 
ATOM     18  C   UNL     1      -4.472   0.021   4.642  0.00  0.00    +0.011 A 
ATOM     19  C   UNL     1      -4.689   1.281   5.161  0.00  0.00    +0.039 A 
ATOM     20  C   UNL     1      -5.947   1.636   5.622  0.00  0.00    +0.123 A 
ATOM     21  C   UNL     1      -6.991   0.728   5.564  0.00  0.00    +0.039 A 
ATOM     22  C   UNL     1      -6.785  -0.532   5.041  0.00  0.00    +0.011 A 
ATOM     23  F   UNL     1      -6.154   2.870   6.131  0.00  0.00    -0.205 F 
ENDBRANCH  13  17
ENDBRANCH  10  11
BRANCH   8  24
ATOM     24  N   UNL     1      -1.629  -7.847   3.555  0.00  0.00    -0.328 N 
ATOM     25  H   UNL     1      -1.604  -8.750   3.201  0.00  0.00    +0.145 HD
ATOM     26  H   UNL     1      -1.352  -7.676   4.468  0.00  0.00    +0.145 HD
ENDBRANCH   8  24
BRANCH   9  27
ATOM     27  C   UNL     1      -1.642  -5.413   4.656  0.00  0.00    +0.101 C 
ATOM     28  N   UNL     1      -1.301  -5.286   5.732  0.00  0.00    -0.191 NA
ENDBRANCH   9  27
BRANCH   1  29
ATOM     29  C   UNL     1      -2.881  -2.427   0.017  0.00  0.00    +0.175 C 
BRANCH  29  30
ATOM     30  C   UNL     1      -1.496  -1.832   0.006  0.00  0.00    +0.313 C 
ATOM     31  O   UNL     1      -0.528  -2.555  -0.007  0.00  0.00    -0.250 OA
BRANCH  30  32
ATOM     32  O   UNL     1      -1.339  -0.499   0.012  0.00  0.00    -0.465 OA
BRANCH  32  34
ATOM     33  C   UNL     1      -0.019   1.526   0.010  0.00  0.00    +0.048 C 
ATOM     34  C   UNL     1       0.002  -0.004   0.002  0.00  0.00    +0.229 C 
ENDBRANCH  32  34
ENDBRANCH  30  32
ENDBRANCH  29  30
ENDBRANCH   1  29
TORSDOF 8
