REMARK  Name = ZINC66593800
REMARK  14 active torsions:
REMARK  status: ('A' for Active; 'I' for Inactive)
REMARK    1  A    between atoms: C_1  and  C_2
REMARK    2  A    between atoms: C_2  and  C_3
REMARK    3  A    between atoms: C_2  and  C_4
REMARK    4  A    between atoms: C_7  and  C_10
REMARK    5  A    between atoms: C_10  and  C_12
REMARK    6  A    between atoms: C_10  and  N_21
REMARK    7  A    between atoms: C_12  and  N_13
REMARK    8  A    between atoms: N_13  and  C_14
REMARK    9  A    between atoms: C_14  and  C_15
REMARK   10  A    between atoms: C_22  and  O_24
REMARK   11  A    between atoms: O_24  and  C_25
REMARK   12  A    between atoms: C_25  and  C_26
REMARK   13  A    between atoms: C_25  and  C_27
REMARK   14  A    between atoms: C_25  and  C_28
REMARK                            x       y       z     vdW  Elec       q    Type
REMARK                         _______ _______ _______ _____ _____    ______ ____
ROOT
ATOM      1  C   UNL     1      -5.419  -2.005   0.043  0.00  0.00    +0.120 C 
ENDROOT
BRANCH   1   5
ATOM      2  C   UNL     1      -1.285  -0.938  -0.099  0.00  0.00    -0.045 A 
ATOM      3  C   UNL     1      -1.825  -1.747  -1.082  0.00  0.00    +0.004 A 
ATOM      4  C   UNL     1      -3.162  -2.092  -1.036  0.00  0.00    +0.006 A 
ATOM      5  C   UNL     1      -3.961  -1.629  -0.007  0.00  0.00    -0.026 A 
ATOM      6  C   UNL     1      -3.421  -0.821   0.977  0.00  0.00    +0.006 A 
ATOM      7  C   UNL     1      -2.082  -0.479   0.933  0.00  0.00    +0.004 A 
BRANCH   2   9
ATOM      8  C   UNL     1       1.029  -1.828  -0.103  0.00  0.00    +0.012 C 
ATOM      9  C   UNL     1       0.173  -0.561  -0.150  0.00  0.00    +0.013 C 
ATOM     10  C   UNL     1       0.459   0.200  -1.446  0.00  0.00    +0.012 C 
ENDBRANCH   2   9
ENDBRANCH   1   5
BRANCH   1  11
ATOM     11  N   UNL     1      -6.012  -1.837  -1.286  0.00  0.00    -0.273 N 
ATOM     12  C   UNL     1      -6.495  -0.636  -1.661  0.00  0.00    +0.401 C 
ATOM     13  O   UNL     1      -6.357   0.329  -0.935  0.00  0.00    -0.226 OA
ATOM     14  H   UNL     1      -6.058  -2.590  -1.895  0.00  0.00    +0.153 HD
BRANCH  12  15
ATOM     15  O   UNL     1      -7.130  -0.504  -2.841  0.00  0.00    -0.445 OA
BRANCH  15  16
ATOM     16  C   UNL     1      -7.616   0.797  -3.175  0.00  0.00    +0.107 C 
ATOM     17  C   UNL     1      -6.445   1.781  -3.227  0.00  0.00    +0.055 C 
ATOM     18  C   UNL     1      -8.303   0.750  -4.541  0.00  0.00    +0.055 C 
ATOM     19  C   UNL     1      -8.620   1.255  -2.115  0.00  0.00    +0.055 C 
ENDBRANCH  15  16
ENDBRANCH  12  15
ENDBRANCH   1  11
BRANCH   1  20
ATOM     20  C   UNL     1      -5.555  -3.464   0.482  0.00  0.00    +0.108 C 
BRANCH  20  21
ATOM     21  N   UNL     1      -6.966  -3.866   0.415  0.00  0.00    -0.307 NA
ATOM     22  H   UNL     1      -7.544  -3.252   0.970  0.00  0.00    +0.122 HD
BRANCH  21  23
ATOM     23  C   UNL     1      -7.136  -5.265   0.830  0.00  0.00    +0.153 C 
BRANCH  23  24
ATOM     24  C   UNL     1      -8.593  -5.640   0.749  0.00  0.00    +0.098 A 
ATOM     25  N   UNL     1      -9.607  -4.790   0.728  0.00  0.00    -0.349 N 
ATOM     26  H   UNL     1      -9.539  -3.823   0.763  0.00  0.00    +0.166 HD
ATOM     27  C   UNL     1     -10.752  -5.500   0.651  0.00  0.00    +0.101 A 
ATOM     28  C   UNL     1     -10.414  -6.805   0.625  0.00  0.00    +0.101 A 
ATOM     29  N   UNL     1      -9.068  -6.874   0.682  0.00  0.00    -0.349 N 
ATOM     30  H   UNL     1      -8.539  -7.687   0.676  0.00  0.00    +0.166 HD
ENDBRANCH  23  24
ENDBRANCH  21  23
ENDBRANCH  20  21
ENDBRANCH   1  20
TORSDOF 9
