REMARK  Name = ZINC24145636
REMARK  12 active torsions:
REMARK  status: ('A' for Active; 'I' for Inactive)
REMARK    1  A    between atoms: C_1  and  C_2
REMARK    2  A    between atoms: C_2  and  N_3
REMARK    3  A    between atoms: N_3  and  C_4
REMARK    4  A    between atoms: C_4  and  C_5
REMARK    5  A    between atoms: C_6  and  C_8
REMARK    6  A    between atoms: C_8  and  S_9
REMARK    7  A    between atoms: S_9  and  C_10
REMARK    8  A    between atoms: C_13  and  S_16
REMARK    9  A    between atoms: N_14  and  N_15
REMARK   10  A    between atoms: S_16  and  C_17
REMARK   11  A    between atoms: C_17  and  C_18
REMARK   12  A    between atoms: C_24  and  C_27
REMARK                            x       y       z     vdW  Elec       q    Type
REMARK                         _______ _______ _______ _____ _____    ______ ____
ROOT
ATOM      1  C   UNL     1       0.023  -0.814   1.103  0.00  0.00    +0.209 A 
ATOM      2  N   UNL     1       0.035  -2.058   0.691  0.00  0.00    -0.120 NA
ATOM      3  N   UNL     1       0.022  -2.050  -0.710  0.00  0.00    -0.120 NA
ATOM      4  C   UNL     1      -0.003  -0.802  -1.108  0.00  0.00    +0.209 A 
ATOM      5  N   UNL     1       0.002  -0.004   0.002  0.00  0.00    -0.219 N 
ENDROOT
BRANCH   5   6
ATOM      6  N   UNL     1      -0.016   1.362   0.009  0.00  0.00    -0.294 N 
ATOM      7  H   UNL     1      -0.033   1.917  -0.940  0.00  0.00    +0.163 HD
ATOM      8  H   UNL     1      -0.015   1.907   0.965  0.00  0.00    +0.163 HD
ENDBRANCH   5   6
BRANCH   1   9
ATOM      9  S   UNL     1       0.032  -0.278   2.782  0.00  0.00    -0.075 S 
BRANCH   9  10
ATOM     10  C   UNL     1       0.061  -1.822   3.735  0.00  0.00    +0.173 C 
BRANCH  10  12
ATOM     11  N   UNL     1       0.092  -2.501   6.113  0.00  0.00    -0.301 N 
ATOM     12  C   UNL     1       0.071  -1.503   5.207  0.00  0.00    +0.226 C 
ATOM     13  O   UNL     1       0.059  -0.348   5.578  0.00  0.00    -0.275 OA
BRANCH  11  15
ATOM     14  C   UNL     1       1.554  -4.363   5.496  0.00  0.00    +0.024 C 
ATOM     15  C   UNL     1       0.106  -3.896   5.665  0.00  0.00    +0.104 C 
ENDBRANCH  11  15
BRANCH  11  16
ATOM     16  C   UNL     1       0.102  -2.191   7.545  0.00  0.00    +0.104 C 
ATOM     17  C   UNL     1      -1.337  -2.102   8.057  0.00  0.00    +0.024 C 
ENDBRANCH  11  16
ENDBRANCH  10  12
ENDBRANCH   9  10
ENDBRANCH   1   9
BRANCH   4  18
ATOM     18  S   UNL     1      -0.034  -0.248  -2.781  0.00  0.00    -0.075 S 
BRANCH  18  19
ATOM     19  C   UNL     1      -0.028  -1.782  -3.750  0.00  0.00    +0.173 C 
BRANCH  19  20
ATOM     20  C   UNL     1      -0.053  -1.447  -5.219  0.00  0.00    +0.226 C 
ATOM     21  O   UNL     1      -0.074  -0.289  -5.577  0.00  0.00    -0.275 OA
ATOM     22  N   UNL     1      -0.053  -2.436  -6.136  0.00  0.00    -0.300 N 
ATOM     23  C   UNL     1      -0.028  -3.844  -5.718  0.00  0.00    +0.108 C 
ATOM     24  C   UNL     1      -1.196  -4.577  -6.385  0.00  0.00    +0.020 C 
ATOM     25  C   UNL     1      -1.125  -4.370  -7.900  0.00  0.00    +0.016 C 
ATOM     26  C   UNL     1      -1.246  -2.878  -8.218  0.00  0.00    +0.092 C 
ATOM     27  C   UNL     1      -0.084  -2.125  -7.571  0.00  0.00    +0.120 C 
BRANCH  26  28
ATOM     28  C   UNL     1      -1.208  -2.677  -9.711  0.00  0.00    +0.215 C 
ATOM     29  O   UNL     1      -1.095  -3.634 -10.449  0.00  0.00    -0.276 OA
ATOM     30  N   UNL     1      -1.299  -1.436 -10.227  0.00  0.00    -0.329 N 
ATOM     31  H   UNL     1      -1.271  -1.290 -11.317  0.00  0.00    +0.145 HD
ATOM     32  H   UNL     1      -1.401  -0.568  -9.558  0.00  0.00    +0.145 HD
ENDBRANCH  26  28
ENDBRANCH  19  20
ENDBRANCH  18  19
ENDBRANCH   4  18
TORSDOF 10
