REMARK  Name = ZINC67304525
REMARK  9 active torsions:
REMARK  status: ('A' for Active; 'I' for Inactive)
REMARK    1  A    between atoms: C_1  and  C_2
REMARK    2  A    between atoms: C_3  and  C_13
REMARK    3  A    between atoms: C_5  and  C_7
REMARK    4  A    between atoms: N_15  and  C_16
REMARK    5  A    between atoms: C_16  and  C_17
REMARK    6  A    between atoms: C_17  and  C_19
REMARK    7  A    between atoms: C_17  and  N_22
REMARK    8  A    between atoms: C_19  and  C_20
REMARK    9  A    between atoms: C_19  and  C_21
REMARK                            x       y       z     vdW  Elec       q    Type
REMARK                         _______ _______ _______ _____ _____    ______ ____
ROOT
ATOM      1  C   UNL     1      -0.668  -0.887  -2.438  0.00  0.00    +0.252 C 
ATOM      2  O   UNL     1      -0.909   0.304  -2.512  0.00  0.00    -0.270 OA
ATOM      3  N   UNL     1      -0.387  -1.587  -3.555  0.00  0.00    -0.312 N 
ATOM      4  H   UNL     1      -0.195  -2.537  -3.496  0.00  0.00    +0.149 HD
ENDROOT
BRANCH   1   7
ATOM      5  C   UNL     1      -1.273   0.415   0.336  0.00  0.00    +0.067 C 
ATOM      6  C   UNL     1      -0.943  -1.040   0.127  0.00  0.00    +0.058 A 
ATOM      7  C   UNL     1      -0.683  -1.558  -1.136  0.00  0.00    +0.097 A 
ATOM      8  S   UNL     1      -0.373  -3.270  -0.731  0.00  0.00    -0.059 S 
ATOM      9  C   UNL     1      -0.596  -3.160   0.934  0.00  0.00    +0.148 A 
ATOM     10  N   UNL     1      -0.880  -1.882   1.125  0.00  0.00    -0.240 NA
BRANCH   9  11
ATOM     11  C   UNL     1      -0.491  -4.234   1.943  0.00  0.00    +0.206 A 
ATOM     12  N   UNL     1      -0.680  -4.088   3.263  0.00  0.00    -0.213 NA
ATOM     13  H   UNL     1      -0.028  -7.101   3.087  0.00  0.00    +0.190 HD
ATOM     14  C   UNL     1      -0.512  -5.236   3.864  0.00  0.00    +0.216 A 
ATOM     15  N   UNL     1      -0.206  -6.160   2.933  0.00  0.00    -0.265 N 
ATOM     16  N   UNL     1      -0.203  -5.495   1.696  0.00  0.00    -0.150 NA
ENDBRANCH   9  11
ENDBRANCH   1   7
BRANCH   3  17
ATOM     17  C   UNL     1      -0.372  -0.916  -4.857  0.00  0.00    +0.089 C 
BRANCH  17  18
ATOM     18  C   UNL     1       0.086  -1.902  -5.934  0.00  0.00    -0.049 C 
BRANCH  18  19
ATOM     19  N   UNL     1      -0.806  -3.069  -5.940  0.00  0.00    +0.383 N 
ATOM     20  C   UNL     1      -0.216  -4.111  -6.804  0.00  0.00    -0.078 C 
ATOM     21  C   UNL     1      -0.748  -5.450  -6.361  0.00  0.00    -0.019 C 
ATOM     22  C   UNL     1      -1.959  -5.884  -7.208  0.00  0.00    -0.002 C 
ATOM     23  C   UNL     1      -2.907  -4.702  -7.498  0.00  0.00    -0.002 C 
ATOM     24  C   UNL     1      -3.100  -3.813  -6.297  0.00  0.00    -0.019 C 
ATOM     25  C   UNL     1      -2.075  -2.661  -6.353  0.00  0.00    -0.078 C 
ATOM     26  H   UNL     1      -0.872  -3.430  -5.000  0.00  0.00    -0.081 HD
ENDBRANCH  18  19
BRANCH  18  27
ATOM     27  C   UNL     1       0.042  -1.219  -7.302  0.00  0.00    -0.029 C 
ATOM     28  C   UNL     1      -1.130  -0.236  -7.344  0.00  0.00    +0.005 C 
ATOM     29  C   UNL     1       1.351  -0.463  -7.537  0.00  0.00    +0.005 C 
ENDBRANCH  18  27
ENDBRANCH  17  18
ENDBRANCH   3  17
TORSDOF 6
