REMARK  Name = ZINC39502125
REMARK  6 active torsions:
REMARK  status: ('A' for Active; 'I' for Inactive)
REMARK    1  A    between atoms: C_1  and  C_2
REMARK    2  A    between atoms: C_7  and  N_12
REMARK    3  A    between atoms: C_9  and  C_11
REMARK    4  A    between atoms: C_13  and  C_15
REMARK    5  A    between atoms: C_15  and  O_16
REMARK    6  A    between atoms: O_16  and  C_17
REMARK                            x       y       z     vdW  Elec       q    Type
REMARK                         _______ _______ _______ _____ _____    ______ ____
ROOT
ATOM      1  N   UNL     1      -0.612  -2.548   1.244  0.00  0.00    -0.309 N 
ATOM      2  C   UNL     1      -0.873  -3.776   1.733  0.00  0.00    +0.251 C 
ATOM      3  O   UNL     1       0.030  -4.462   2.164  0.00  0.00    -0.272 OA
ATOM      4  H   UNL     1      -1.333  -2.000   0.898  0.00  0.00    +0.149 HD
ENDROOT
BRANCH   1  10
ATOM      5  C   UNL     1      -0.019   1.526   0.010  0.00  0.00    +0.008 C 
ATOM      6  C   UNL     1       0.002  -0.004   0.002  0.00  0.00    -0.009 C 
ATOM      7  C   UNL     1       0.718  -0.497  -1.257  0.00  0.00    +0.003 C 
ATOM      8  C   UNL     1       0.739  -2.027  -1.265  0.00  0.00    +0.002 C 
ATOM      9  C   UNL     1       1.479  -2.534  -0.026  0.00  0.00    +0.022 C 
ATOM     10  C   UNL     1       0.763  -2.041   1.233  0.00  0.00    +0.076 C 
ATOM     11  C   UNL     1       0.742  -0.511   1.242  0.00  0.00    +0.009 C 
ATOM     12  C   UNL     1       0.026  -0.018   2.500  0.00  0.00    +0.009 C 
ENDBRANCH   1  10
BRANCH   2  13
ATOM     13  C   UNL     1      -2.287  -4.298   1.743  0.00  0.00    +0.326 C 
BRANCH  13  14
ATOM     14  O   UNL     1      -2.306  -5.611   2.306  0.00  0.00    -0.466 OA
BRANCH  14  15
ATOM     15  C   UNL     1      -3.509  -6.227   2.389  0.00  0.00    +0.227 A 
ATOM     16  C   UNL     1      -3.612  -7.532   2.942  0.00  0.00    +0.069 A 
ATOM     17  C   UNL     1      -2.576  -8.398   3.479  0.00  0.00    +0.023 A 
ATOM     18  C   UNL     1      -2.914  -9.605   3.953  0.00  0.00    +0.048 A 
ATOM     19  S   UNL     1      -4.679  -9.671   3.709  0.00  0.00    -0.077 S 
ATOM     20  C   UNL     1      -4.916  -8.073   2.977  0.00  0.00    +0.115 A 
ATOM     21  N   UNL     1      -5.953  -7.399   2.522  0.00  0.00    -0.228 NA
ATOM     22  C   UNL     1      -5.793  -6.190   2.019  0.00  0.00    +0.226 A 
ATOM     23  N   UNL     1      -4.602  -5.620   1.962  0.00  0.00    -0.201 NA
ENDBRANCH  14  15
ENDBRANCH  13  14
ENDBRANCH   2  13
TORSDOF 4
