REMARK  Name = ZINC08448662
REMARK  12 active torsions:
REMARK  status: ('A' for Active; 'I' for Inactive)
REMARK    1  A    between atoms: C_1  and  C_2
REMARK    2  A    between atoms: C_2  and  O_3
REMARK    3  A    between atoms: O_3  and  C_4
REMARK    4  A    between atoms: C_4  and  C_6
REMARK    5  A    between atoms: C_7  and  C_23
REMARK    6  A    between atoms: C_9  and  N_22
REMARK    7  A    between atoms: C_10  and  C_20
REMARK    8  A    between atoms: C_11  and  C_13
REMARK    9  A    between atoms: C_23  and  S_24
REMARK   10  A    between atoms: S_24  and  C_25
REMARK   11  A    between atoms: C_26  and  C_37
REMARK   12  A    between atoms: C_29  and  C_31
REMARK                            x       y       z     vdW  Elec       q    Type
REMARK                         _______ _______ _______ _____ _____    ______ ____
ROOT
ATOM      1  C   UNL     1      -0.748   6.595  -1.159  0.00  0.00    +0.088 C 
ATOM      2  C   UNL     1      -1.776   7.426  -0.946  0.00  0.00    +0.128 C 
ATOM      3  O   UNL     1      -2.488   7.410   0.190  0.00  0.00    -0.444 OA
ATOM      4  C   UNL     1      -1.966   6.832   1.287  0.00  0.00    +0.198 C 
ATOM      5  C   UNL     1      -0.938   5.953   1.210  0.00  0.00    +0.098 C 
ATOM      6  C   UNL     1      -0.335   5.588  -0.119  0.00  0.00    +0.105 C 
ENDROOT
BRANCH   6   7
ATOM      7  C   UNL     1      -0.815   4.220  -0.529  0.00  0.00    -0.034 A 
ATOM      8  C   UNL     1       0.097   3.201  -0.735  0.00  0.00    +0.006 A 
ATOM      9  C   UNL     1      -0.343   1.946  -1.111  0.00  0.00    +0.020 A 
ATOM     10  C   UNL     1      -1.695   1.708  -1.280  0.00  0.00    +0.041 A 
ATOM     11  C   UNL     1      -2.607   2.730  -1.079  0.00  0.00    +0.020 A 
ATOM     12  C   UNL     1      -2.167   3.983  -0.697  0.00  0.00    +0.006 A 
ATOM     13 CL   UNL     1      -2.248   0.132  -1.752  0.00  0.00    -0.084 Cl
ENDBRANCH   6   7
BRANCH   4  14
ATOM     14  N   UNL     1      -2.489   7.143   2.518  0.00  0.00    -0.328 N 
ATOM     15  H   UNL     1      -2.122   6.734   3.317  0.00  0.00    +0.145 HD
ATOM     16  H   UNL     1      -3.225   7.771   2.587  0.00  0.00    +0.145 HD
ENDBRANCH   4  14
BRANCH   1  17
ATOM     17  C   UNL     1      -0.038   6.664  -2.382  0.00  0.00    +0.339 C 
ATOM     18  O   UNL     1      -0.568   7.144  -3.367  0.00  0.00    -0.245 OA
BRANCH  17  19
ATOM     19  O   UNL     1       1.226   6.198  -2.456  0.00  0.00    -0.462 OA
BRANCH  19  21
ATOM     20  C   UNL     1       3.296   5.725  -3.610  0.00  0.00    +0.048 C 
ATOM     21  C   UNL     1       1.882   6.300  -3.721  0.00  0.00    +0.229 C 
ENDBRANCH  19  21
ENDBRANCH  17  19
ENDBRANCH   1  17
BRANCH   5  22
ATOM     22  C   UNL     1      -0.420   5.364   2.408  0.00  0.00    +0.101 C 
ATOM     23  N   UNL     1      -0.009   4.896   3.358  0.00  0.00    -0.191 NA
ENDBRANCH   5  22
BRANCH   2  24
ATOM     24  C   UNL     1      -2.145   8.416  -2.021  0.00  0.00    +0.150 C 
BRANCH  24  25
ATOM     25  S   UNL     1      -3.636   7.849  -2.877  0.00  0.00    -0.097 S 
BRANCH  25  26
ATOM     26  C   UNL     1      -3.833   9.154  -4.044  0.00  0.00    +0.115 A 
ATOM     27  C   UNL     1      -4.906   9.120  -4.955  0.00  0.00    +0.084 A 
ATOM     28  C   UNL     1      -5.050  10.169  -5.872  0.00  0.00    +0.023 A 
ATOM     29  C   UNL     1      -4.123  11.193  -5.852  0.00  0.00    +0.030 A 
ATOM     30  C   UNL     1      -3.083  11.158  -4.925  0.00  0.00    +0.072 A 
ATOM     31  N   UNL     1      -2.970  10.155  -4.062  0.00  0.00    -0.239 NA
BRANCH  30  32
ATOM     32  C   UNL     1      -2.087  12.256  -4.902  0.00  0.00    +0.003 A 
ATOM     33  C   UNL     1      -2.174  13.323  -5.801  0.00  0.00    +0.030 A 
ATOM     34  C   UNL     1      -1.229  14.327  -5.742  0.00  0.00    +0.111 A 
ATOM     35  N   UNL     1      -0.248  14.283  -4.861  0.00  0.00    -0.263 NA
ATOM     36  C   UNL     1      -0.127  13.292  -3.999  0.00  0.00    +0.111 A 
ATOM     37  C   UNL     1      -1.032  12.250  -3.985  0.00  0.00    +0.030 A 
ENDBRANCH  30  32
BRANCH  27  38
ATOM     38  C   UNL     1      -5.838   8.033  -4.942  0.00  0.00    +0.102 C 
ATOM     39  N   UNL     1      -6.577   7.170  -4.931  0.00  0.00    -0.191 NA
ENDBRANCH  27  38
ENDBRANCH  25  26
ENDBRANCH  24  25
ENDBRANCH   2  24
TORSDOF 11
