REMARK  Name = ZINC35641655
REMARK  9 active torsions:
REMARK  status: ('A' for Active; 'I' for Inactive)
REMARK    1  A    between atoms: C_1  and  C_2
REMARK    2  A    between atoms: C_2  and  O_3
REMARK    3  A    between atoms: O_3  and  C_4
REMARK    4  A    between atoms: C_4  and  C_6
REMARK    5  A    between atoms: C_7  and  C_22
REMARK    6  A    between atoms: N_8  and  C_21
REMARK    7  A    between atoms: C_12  and  C_14
REMARK    8  A    between atoms: C_22  and  N_23
REMARK    9  A    between atoms: C_28  and  C_30
REMARK                            x       y       z     vdW  Elec       q    Type
REMARK                         _______ _______ _______ _____ _____    ______ ____
ROOT
ATOM      1  C   UNL     1       1.256  -2.341  -2.510  0.00  0.00    +0.076 C 
ATOM      2  C   UNL     1       1.617  -3.633  -2.671  0.00  0.00    +0.010 C 
ATOM      3  N   UNL     1       2.512  -3.999  -3.636  0.00  0.00    -0.264 N 
ATOM      4  C   UNL     1       3.091  -3.134  -4.479  0.00  0.00    +0.307 C 
ATOM      5  O   UNL     1       3.877  -3.555  -5.305  0.00  0.00    -0.252 OA
ATOM      6  N   UNL     1       2.831  -1.812  -4.440  0.00  0.00    -0.288 N 
ATOM      7  C   UNL     1       1.873  -1.315  -3.438  0.00  0.00    +0.143 C 
ATOM      8  C   UNL     1       2.859  -5.417  -3.755  0.00  0.00    +0.139 C 
ATOM      9  H   UNL     1       3.262  -1.203  -5.060  0.00  0.00    +0.151 HD
ENDROOT
BRANCH   7  10
ATOM     10  C   UNL     1       2.583  -0.290  -2.592  0.00  0.00    -0.022 A 
ATOM     11  C   UNL     1       3.841  -0.561  -2.090  0.00  0.00    +0.007 A 
ATOM     12  C   UNL     1       4.493   0.378  -1.313  0.00  0.00    +0.020 A 
ATOM     13  C   UNL     1       3.885   1.591  -1.039  0.00  0.00    +0.041 A 
ATOM     14  C   UNL     1       2.626   1.861  -1.542  0.00  0.00    +0.020 A 
ATOM     15  C   UNL     1       1.977   0.923  -2.323  0.00  0.00    +0.007 A 
ATOM     16 CL   UNL     1       4.703   2.771  -0.064  0.00  0.00    -0.084 Cl
ENDBRANCH   7  10
BRANCH   1  17
ATOM     17  C   UNL     1       0.329  -1.961  -1.512  0.00  0.00    +0.339 C 
ATOM     18  O   UNL     1      -0.245  -2.812  -0.858  0.00  0.00    -0.245 OA
BRANCH  17  19
ATOM     19  O   UNL     1       0.080  -0.654  -1.284  0.00  0.00    -0.462 OA
BRANCH  19  21
ATOM     20  C   UNL     1      -1.016   1.176  -0.150  0.00  0.00    +0.048 C 
ATOM     21  C   UNL     1      -0.867  -0.343  -0.261  0.00  0.00    +0.229 C 
ENDBRANCH  19  21
ENDBRANCH  17  19
ENDBRANCH   1  17
BRANCH   2  22
ATOM     22  C   UNL     1       1.024  -4.687  -1.773  0.00  0.00    -0.026 C 
BRANCH  22  23
ATOM     23  N   UNL     1      -0.290  -5.090  -2.292  0.00  0.00    +0.385 N 
ATOM     24  C   UNL     1      -0.127  -5.679  -3.627  0.00  0.00    -0.078 C 
ATOM     25  C   UNL     1      -1.500  -6.027  -4.206  0.00  0.00    -0.019 C 
ATOM     26  C   UNL     1      -2.197  -7.032  -3.284  0.00  0.00    -0.003 C 
ATOM     27  C   UNL     1      -2.295  -6.436  -1.877  0.00  0.00    -0.016 C 
ATOM     28  C   UNL     1      -0.892  -6.073  -1.384  0.00  0.00    -0.071 C 
ATOM     29  C   UNL     1      -0.985  -5.478   0.022  0.00  0.00    -0.013 C 
ATOM     30  H   UNL     1      -0.889  -4.280  -2.355  0.00  0.00    -0.081 HD
ENDBRANCH  22  23
ENDBRANCH   2  22
TORSDOF 6
