REMARK  Name = ZINC14898503
REMARK  5 active torsions:
REMARK  status: ('A' for Active; 'I' for Inactive)
REMARK    1  A    between atoms: C_1  and  S_2
REMARK    2  A    between atoms: S_2  and  C_3
REMARK    3  A    between atoms: C_6  and  N_9
REMARK    4  A    between atoms: N_9  and  S_10
REMARK    5  A    between atoms: S_10  and  C_13
REMARK                            x       y       z     vdW  Elec       q    Type
REMARK                         _______ _______ _______ _____ _____    ______ ____
ROOT
ATOM      1  S   UNL     1      -6.178  -2.770  -0.937  0.00  0.00    +0.072 S 
ATOM      2  O   UNL     1      -7.576  -2.950  -0.755  0.00  0.00    -0.150 OA
ATOM      3  O   UNL     1      -5.602  -2.513  -2.210  0.00  0.00    -0.150 OA
ENDROOT
BRANCH   1   4
ATOM      4  C   UNL     1      -5.398  -4.224  -0.317  0.00  0.00    +0.110 A 
ATOM      5  C   UNL     1      -4.100  -4.522  -0.689  0.00  0.00    +0.032 A 
ATOM      6  C   UNL     1      -3.481  -5.661  -0.206  0.00  0.00    +0.049 A 
ATOM      7  C   UNL     1      -4.163  -6.505   0.652  0.00  0.00    +0.142 A 
ATOM      8  C   UNL     1      -5.472  -6.205   1.027  0.00  0.00    +0.078 A 
ATOM      9  C   UNL     1      -6.085  -5.060   0.544  0.00  0.00    +0.055 A 
ATOM     10  N   UNL     1      -6.152  -7.070   1.895  0.00  0.00    -0.280 N 
ATOM     11  C   UNL     1      -5.446  -7.987   2.592  0.00  0.00    +0.255 C 
ATOM     12  O   UNL     1      -6.017  -8.766   3.326  0.00  0.00    -0.272 OA
ATOM     13  C   UNL     1      -3.946  -8.037   2.455  0.00  0.00    +0.325 C 
ATOM     14  O   UNL     1      -3.570  -7.628   1.137  0.00  0.00    -0.481 OA
ATOM     15  H   UNL     1      -7.116  -7.011   1.994  0.00  0.00    +0.155 HD
ENDBRANCH   1   4
BRANCH   1  16
ATOM     16  N   UNL     1      -5.730  -1.516   0.048  0.00  0.00    -0.216 N 
ATOM     17  H   UNL     1      -5.231  -0.769  -0.316  0.00  0.00    +0.174 HD
BRANCH  16  21
ATOM     18  C   UNL     1      -6.749  -1.573   4.091  0.00  0.00    +0.008 A 
ATOM     19  C   UNL     1      -5.457  -1.238   3.704  0.00  0.00    +0.016 A 
ATOM     20  C   UNL     1      -5.120  -1.220   2.366  0.00  0.00    +0.025 A 
ATOM     21  C   UNL     1      -6.072  -1.536   1.405  0.00  0.00    +0.048 A 
ATOM     22  C   UNL     1      -7.363  -1.871   1.791  0.00  0.00    +0.025 A 
ATOM     23  C   UNL     1      -7.699  -1.895   3.130  0.00  0.00    +0.016 A 
BRANCH  18  25
ATOM     24  C   UNL     1      -5.648  -1.117   6.644  0.00  0.00    +0.090 C 
ATOM     25  S   UNL     1      -7.179  -1.596   5.799  0.00  0.00    -0.129 S 
ENDBRANCH  18  25
ENDBRANCH  16  21
ENDBRANCH   1  16
TORSDOF 4
