REMARK  Name = ZINC48255941
REMARK  9 active torsions:
REMARK  status: ('A' for Active; 'I' for Inactive)
REMARK    1  A    between atoms: C_1  and  C_2
REMARK    2  A    between atoms: C_5  and  N_24
REMARK    3  A    between atoms: C_7  and  N_8
REMARK    4  A    between atoms: N_11  and  C_12
REMARK    5  A    between atoms: C_12  and  C_14
REMARK    6  A    between atoms: C_12  and  C_15
REMARK    7  A    between atoms: C_25  and  C_27
REMARK    8  A    between atoms: C_27  and  C_28
REMARK    9  A    between atoms: C_27  and  C_29
REMARK                            x       y       z     vdW  Elec       q    Type
REMARK                         _______ _______ _______ _____ _____    ______ ____
ROOT
ATOM      1  N   UNL     1       0.300  -0.396   2.439  0.00  0.00    -0.269 N 
ATOM      2  C   UNL     1       0.058  -1.129   3.544  0.00  0.00    +0.304 C 
ATOM      3  O   UNL     1      -0.214  -2.309   3.442  0.00  0.00    -0.252 OA
ATOM      4  N   UNL     1       0.116  -0.553   4.761  0.00  0.00    -0.290 N 
ATOM      5  H   UNL     1       0.578   0.530   2.523  0.00  0.00    +0.156 HD
ATOM      6  H   UNL     1       0.333   0.389   4.842  0.00  0.00    +0.151 HD
ENDROOT
BRANCH   1  13
ATOM      7  C   UNL     1      -0.384   1.307   0.267  0.00  0.00    +0.045 C 
ATOM      8  C   UNL     1      -0.182  -0.174   0.083  0.00  0.00    -0.029 A 
ATOM      9  C   UNL     1      -0.323  -0.740  -1.170  0.00  0.00    +0.007 A 
ATOM     10  C   UNL     1      -0.139  -2.098  -1.343  0.00  0.00    +0.024 A 
ATOM     11  C   UNL     1       0.189  -2.900  -0.257  0.00  0.00    +0.035 A 
ATOM     12  C   UNL     1       0.332  -2.335   1.003  0.00  0.00    +0.047 A 
ATOM     13  C   UNL     1       0.151  -0.970   1.172  0.00  0.00    +0.039 A 
BRANCH  11  14
ATOM     14  N   UNL     1       0.375  -4.276  -0.432  0.00  0.00    -0.285 N 
ATOM     15  C   UNL     1       0.944  -4.739  -1.563  0.00  0.00    +0.220 C 
ATOM     16  O   UNL     1       1.220  -3.973  -2.461  0.00  0.00    -0.275 OA
ATOM     17  H   UNL     1       0.094  -4.895   0.259  0.00  0.00    +0.155 HD
BRANCH  15  18
ATOM     18  C   UNL     1       1.237  -6.210  -1.710  0.00  0.00    +0.069 C 
ATOM     19  C   UNL     1      -0.066  -7.004  -1.599  0.00  0.00    +0.017 C 
ATOM     20  C   UNL     1       1.878  -6.469  -3.075  0.00  0.00    +0.017 C 
ENDBRANCH  15  18
ENDBRANCH  11  14
ENDBRANCH   1  13
BRANCH   4  21
ATOM     21  C   UNL     1      -0.147  -1.350   5.962  0.00  0.00    +0.137 C 
ATOM     22  C   UNL     1       1.138  -2.057   6.397  0.00  0.00    +0.036 C 
BRANCH  21  23
ATOM     23  C   UNL     1      -0.623  -0.446   7.070  0.00  0.00    +0.126 A 
ATOM     24  C   UNL     1      -1.596  -0.747   7.941  0.00  0.00    +0.055 A 
ATOM     25  C   UNL     1      -1.720   0.413   8.832  0.00  0.00    +0.020 A 
ATOM     26  C   UNL     1      -2.532   0.722   9.922  0.00  0.00    +0.011 A 
ATOM     27  C   UNL     1      -2.392   1.928  10.552  0.00  0.00    +0.001 A 
ATOM     28  C   UNL     1      -1.447   2.844  10.112  0.00  0.00    +0.004 A 
ATOM     29  C   UNL     1      -0.636   2.556   9.036  0.00  0.00    +0.047 A 
ATOM     30  C   UNL     1      -0.762   1.337   8.382  0.00  0.00    +0.135 A 
ATOM     31  O   UNL     1      -0.128   0.777   7.332  0.00  0.00    -0.458 OA
ENDBRANCH  21  23
ENDBRANCH   4  21
TORSDOF 5
