REMARK  Name = ZINC63244334
REMARK  11 active torsions:
REMARK  status: ('A' for Active; 'I' for Inactive)
REMARK    1  A    between atoms: C_1  and  C_2
REMARK    2  A    between atoms: C_4  and  C_26
REMARK    3  A    between atoms: C_5  and  S_22
REMARK    4  A    between atoms: C_7  and  C_8
REMARK    5  A    between atoms: N_10  and  C_11
REMARK    6  A    between atoms: C_11  and  C_12
REMARK    7  A    between atoms: C_11  and  C_13
REMARK    8  A    between atoms: C_13  and  N_14
REMARK    9  A    between atoms: C_16  and  C_21
REMARK   10  A    between atoms: C_18  and  C_20
REMARK   11  A    between atoms: S_22  and  N_25
REMARK                            x       y       z     vdW  Elec       q    Type
REMARK                         _______ _______ _______ _____ _____    ______ ____
ROOT
ATOM      1  C   UNL     1       0.168   0.135   2.533  0.00  0.00    +0.245 C 
ATOM      2  O   UNL     1       0.159   1.350   2.556  0.00  0.00    -0.270 OA
ATOM      3  N   UNL     1       0.389  -0.559   3.666  0.00  0.00    -0.311 N 
ATOM      4  H   UNL     1       0.396  -1.529   3.648  0.00  0.00    +0.149 HD
ENDROOT
BRANCH   1  11
ATOM      5  C   UNL     1      -0.156   1.639   0.082  0.00  0.00    +0.044 C 
ATOM      6  C   UNL     1      -0.222   0.133   0.072  0.00  0.00    -0.038 A 
ATOM      7  C   UNL     1      -0.433  -0.542  -1.113  0.00  0.00    +0.009 A 
ATOM      8  C   UNL     1      -0.494  -1.924  -1.123  0.00  0.00    -0.024 A 
ATOM      9  C   UNL     1      -0.344  -2.638   0.052  0.00  0.00    +0.109 A 
ATOM     10  C   UNL     1      -0.132  -1.976   1.243  0.00  0.00    +0.042 A 
ATOM     11  C   UNL     1      -0.065  -0.582   1.260  0.00  0.00    +0.041 A 
ATOM     12  C   UNL     1      -0.725  -2.654  -2.421  0.00  0.00    +0.046 C 
BRANCH   9  13
ATOM     13  S   UNL     1      -0.424  -4.398   0.028  0.00  0.00    +0.056 S 
ATOM     14  O   UNL     1       0.434  -4.829  -1.019  0.00  0.00    -0.153 OA
ATOM     15  O   UNL     1      -0.264  -4.831   1.371  0.00  0.00    -0.153 OA
BRANCH  13  16
ATOM     16  N   UNL     1      -1.964  -4.812  -0.422  0.00  0.00    -0.204 NA
ATOM     17  H   UNL     1      -2.616  -4.120  -0.612  0.00  0.00    +0.144 HD
ATOM     18  H   UNL     1      -2.213  -5.747  -0.496  0.00  0.00    +0.144 HD
ENDBRANCH  13  16
ENDBRANCH   9  13
ENDBRANCH   1  11
BRANCH   3  19
ATOM     19  C   UNL     1       0.619   0.151   4.927  0.00  0.00    +0.054 C 
ATOM     20  C   UNL     1      -0.721   0.404   5.622  0.00  0.00    +0.026 C 
BRANCH  19  21
ATOM     21  C   UNL     1       1.512  -0.698   5.835  0.00  0.00    -0.057 C 
BRANCH  21  22
ATOM     22  N   UNL     1       2.758  -1.024   5.129  0.00  0.00    +0.381 N 
ATOM     23  C   UNL     1       3.545  -1.963   5.938  0.00  0.00    -0.076 C 
ATOM     24  C   UNL     1       4.806  -2.369   5.172  0.00  0.00    -0.031 C 
ATOM     25  C   UNL     1       5.642  -1.120   4.878  0.00  0.00    +0.003 C 
ATOM     26  C   UNL     1       4.788  -0.117   4.098  0.00  0.00    -0.031 C 
ATOM     27  C   UNL     1       3.527   0.205   4.904  0.00  0.00    -0.076 C 
ATOM     28  C   UNL     1       4.391  -0.723   2.750  0.00  0.00    +0.005 C 
ATOM     29  C   UNL     1       5.625  -3.345   6.019  0.00  0.00    +0.005 C 
ATOM     30  H   UNL     1       2.539  -1.450   4.241  0.00  0.00    -0.082 HD
ENDBRANCH  21  22
ENDBRANCH  19  21
ENDBRANCH   3  19
TORSDOF 6
