REMARK  Name = ZINC55386521
REMARK  2 active torsions:
REMARK  status: ('A' for Active; 'I' for Inactive)
REMARK    1  A    between atoms: C_3  and  C_22
REMARK    2  A    between atoms: C_5  and  C_6
REMARK                            x       y       z     vdW  Elec       q    Type
REMARK                         _______ _______ _______ _____ _____    ______ ____
ROOT
ATOM      1  C   UNL     1      -1.176  -0.884   0.009  0.00  0.00    +0.175 A 
ATOM      2  N   UNL     1      -1.138  -2.255   0.006  0.00  0.00    -0.335 N 
ATOM      3  H   UNL     1      -0.341  -2.809  -0.000  0.00  0.00    +0.167 HD
ATOM      4  C   UNL     1      -2.449  -2.700   0.015  0.00  0.00    +0.069 A 
ATOM      5  C   UNL     1      -3.031  -3.958   0.017  0.00  0.00    +0.055 A 
ATOM      6  C   UNL     1      -4.410  -4.077   0.027  0.00  0.00    +0.069 A 
ATOM      7  C   UNL     1      -5.218  -2.933   0.034  0.00  0.00    +0.069 A 
ATOM      8  C   UNL     1      -4.647  -1.676   0.032  0.00  0.00    +0.057 A 
ATOM      9  C   UNL     1      -3.255  -1.547   0.022  0.00  0.00    +0.092 A 
ATOM     10  N   UNL     1      -2.424  -0.475   0.023  0.00  0.00    -0.225 NA
ATOM     11  N   UNL     1      -6.541  -3.378   0.043  0.00  0.00    -0.306 N 
ATOM     12  H   UNL     1      -7.330  -2.813   0.049  0.00  0.00    +0.170 HD
ATOM     13  C   UNL     1      -6.537  -4.724   0.041  0.00  0.00    +0.325 A 
ATOM     14  O   UNL     1      -7.530  -5.426   0.046  0.00  0.00    -0.247 OA
ATOM     15  N   UNL     1      -5.269  -5.176   0.031  0.00  0.00    -0.306 N 
ATOM     16  H   UNL     1      -4.999  -6.107   0.028  0.00  0.00    +0.170 HD
ENDROOT
BRANCH   1  21
ATOM     17  C   UNL     1      -0.016   1.359   0.009  0.00  0.00    +0.053 A 
ATOM     18  C   UNL     1       1.325   1.782  -0.001  0.00  0.00    +0.048 A 
ATOM     19  C   UNL     1       2.091   0.671  -0.014  0.00  0.00    +0.134 A 
ATOM     20  O   UNL     1       1.289  -0.405  -0.012  0.00  0.00    -0.454 OA
ATOM     21  C   UNL     1       0.002  -0.004   0.002  0.00  0.00    +0.170 A 
BRANCH  19  22
ATOM     22  C   UNL     1       3.598   0.644  -0.029  0.00  0.00    +0.184 C 
ATOM     23  C   UNL     1       4.117   0.376   1.386  0.00  0.00    +0.039 C 
ATOM     24  C   UNL     1       5.646   0.289   1.351  0.00  0.00    +0.005 C 
ATOM     25  C   UNL     1       6.063  -0.803   0.362  0.00  0.00    +0.028 C 
ATOM     26  C   UNL     1       5.468  -0.490  -1.013  0.00  0.00    +0.161 C 
ATOM     27  O   UNL     1       4.046  -0.393  -0.905  0.00  0.00    -0.369 OA
ENDBRANCH  19  22
ENDBRANCH   1  21
TORSDOF 2
