REMARK  Name = ZINC36007382
REMARK  6 active torsions:
REMARK  status: ('A' for Active; 'I' for Inactive)
REMARK    1  A    between atoms: C_1  and  C_2
REMARK    2  A    between atoms: C_2  and  C_4
REMARK    3  A    between atoms: C_2  and  N_18
REMARK    4  A    between atoms: N_6  and  C_7
REMARK    5  A    between atoms: C_8  and  C_15
REMARK    6  A    between atoms: C_22  and  C_25
REMARK                            x       y       z     vdW  Elec       q    Type
REMARK                         _______ _______ _______ _____ _____    ______ ____
ROOT
ATOM      1  C   UNL     1       0.793  -0.386  -1.223  0.00  0.00    +0.204 C 
ATOM      2  O   UNL     1       1.870  -0.931  -1.103  0.00  0.00    -0.277 OA
ATOM      3  N   UNL     1       0.304  -0.121  -2.450  0.00  0.00    -0.281 N 
ATOM      4  H   UNL     1      -0.557   0.315  -2.546  0.00  0.00    +0.155 HD
ENDROOT
BRANCH   3   5
ATOM      5  C   UNL     1       1.032  -0.472  -3.577  0.00  0.00    +0.084 A 
ATOM      6  C   UNL     1       0.693  -0.276  -4.903  0.00  0.00    +0.068 A 
ATOM      7  C   UNL     1       1.642  -0.742  -5.913  0.00  0.00    -0.023 A 
ATOM      8  C   UNL     1       2.747  -1.315  -5.404  0.00  0.00    -0.004 A 
ATOM      9  S   UNL     1       2.528  -1.226  -3.645  0.00  0.00    -0.077 S 
ATOM     10  C   UNL     1       3.687  -1.779  -6.484  0.00  0.00    +0.043 C 
ATOM     11  C   UNL     1       2.825  -1.804  -7.766  0.00  0.00    +0.010 C 
ATOM     12  C   UNL     1       1.740  -0.760  -7.437  0.00  0.00    +0.037 C 
BRANCH   6  13
ATOM     13  C   UNL     1      -0.567   0.372  -5.281  0.00  0.00    +0.244 C 
ATOM     14  O   UNL     1      -0.612   1.580  -5.422  0.00  0.00    -0.270 OA
ATOM     15  N   UNL     1      -1.675  -0.371  -5.473  0.00  0.00    -0.325 N 
ATOM     16  H   UNL     1      -1.639  -1.333  -5.361  0.00  0.00    +0.145 HD
ATOM     17  H   UNL     1      -2.509   0.058  -5.723  0.00  0.00    +0.145 HD
ENDBRANCH   6  13
ENDBRANCH   3   5
BRANCH   1  19
ATOM     18  C   UNL     1       0.360   1.425   0.416  0.00  0.00    -0.004 C 
ATOM     19  C   UNL     1       0.002  -0.004   0.002  0.00  0.00    +0.016 C 
BRANCH  19  20
ATOM     20  N   UNL     1       0.323  -0.926   1.099  0.00  0.00    +0.388 N 
ATOM     21  C   UNL     1      -0.004  -2.299   0.694  0.00  0.00    -0.078 C 
ATOM     22  C   UNL     1       0.404  -3.272   1.802  0.00  0.00    -0.018 C 
ATOM     23  C   UNL     1      -0.355  -2.923   3.086  0.00  0.00    +0.008 C 
ATOM     24  C   UNL     1      -0.065  -1.466   3.458  0.00  0.00    +0.077 C 
ATOM     25  C   UNL     1      -0.455  -0.559   2.288  0.00  0.00    -0.066 C 
ATOM     26  H   UNL     1       1.308  -0.866   1.311  0.00  0.00    -0.081 HD
BRANCH  24  27
ATOM     27  C   UNL     1      -0.879  -1.083   4.696  0.00  0.00    +0.391 C 
ATOM     28  F   UNL     1      -0.524  -1.916   5.763  0.00  0.00    -0.171 F 
ATOM     29  F   UNL     1      -0.613   0.248   5.035  0.00  0.00    -0.171 F 
ATOM     30  F   UNL     1      -2.243  -1.232   4.422  0.00  0.00    -0.171 F 
ENDBRANCH  24  27
ENDBRANCH  19  20
ENDBRANCH   1  19
TORSDOF 5
