REMARK  Name = ZINC39658182
REMARK  7 active torsions:
REMARK  status: ('A' for Active; 'I' for Inactive)
REMARK    1  A    between atoms: C_1  and  C_2
REMARK    2  A    between atoms: C_12  and  O_13
REMARK    3  A    between atoms: O_13  and  C_14
REMARK    4  A    between atoms: C_14  and  C_15
REMARK    5  A    between atoms: C_19  and  C_28
REMARK    6  A    between atoms: N_30  and  C_31
REMARK    7  A    between atoms: C_34  and  C_37
REMARK                            x       y       z     vdW  Elec       q    Type
REMARK                         _______ _______ _______ _____ _____    ______ ____
ROOT
ATOM      1  C   UNL     1       0.141  -6.566   3.313  0.00  0.00    +0.253 C 
ATOM      2  O   UNL     1       0.091  -7.026   2.192  0.00  0.00    -0.272 OA
ATOM      3  N   UNL     1       0.125  -7.389   4.380  0.00  0.00    -0.297 N 
ATOM      4  C   UNL     1       0.171  -7.019   5.814  0.00  0.00    +0.121 C 
ATOM      5  C   UNL     1      -0.808  -7.996   6.502  0.00  0.00    +0.100 C 
ATOM      6  C   UNL     1      -0.878  -9.210   5.559  0.00  0.00    -0.004 C 
ATOM      7  C   UNL     1       0.050  -8.870   4.384  0.00  0.00    +0.115 C 
ATOM      8  C   UNL     1      -0.387 -10.464   6.276  0.00  0.00    -0.010 C 
ATOM      9  C   UNL     1      -0.520 -11.667   5.339  0.00  0.00    -0.082 C 
ATOM     10  N   UNL     1      -1.923 -11.826   4.939  0.00  0.00    +0.379 N 
ATOM     11  C   UNL     1      -2.360 -10.654   4.169  0.00  0.00    -0.082 C 
ATOM     12  C   UNL     1      -2.305  -9.408   5.058  0.00  0.00    -0.010 C 
ATOM     13  H   UNL     1      -2.018 -12.654   4.370  0.00  0.00    -0.086 HD
ATOM     14  H   UNL     1      -2.498 -11.918   5.763  0.00  0.00    -0.086 HD
ENDROOT
BRANCH   5  15
ATOM     15  C   UNL     1      -0.279  -8.406   7.852  0.00  0.00    +0.218 C 
ATOM     16  O   UNL     1       0.917  -8.472   8.040  0.00  0.00    -0.275 OA
ATOM     17  N   UNL     1      -1.135  -8.700   8.850  0.00  0.00    -0.312 N 
ATOM     18  H   UNL     1      -2.092  -8.648   8.700  0.00  0.00    +0.149 HD
BRANCH  17  19
ATOM     19  C   UNL     1      -0.621  -9.099  10.162  0.00  0.00    +0.073 C 
ATOM     20  C   UNL     1      -0.334 -10.602  10.163  0.00  0.00    +0.023 C 
ATOM     21  C   UNL     1       0.204 -11.019  11.533  0.00  0.00    +0.016 C 
ATOM     22  C   UNL     1      -0.837 -10.698  12.608  0.00  0.00    +0.102 C 
ATOM     23  C   UNL     1      -1.124  -9.195  12.608  0.00  0.00    +0.016 C 
ATOM     24  C   UNL     1      -1.661  -8.778  11.237  0.00  0.00    +0.023 C 
BRANCH  22  25
ATOM     25  C   UNL     1      -0.307 -11.108  13.958  0.00  0.00    +0.359 C 
ATOM     26  O   UNL     1      -0.654 -10.503  14.958  0.00  0.00    -0.246 OA
ATOM     27  O   UNL     1       0.468 -12.045  14.050  0.00  0.00    -0.246 OA
ENDBRANCH  22  25
ENDBRANCH  17  19
ENDBRANCH   5  15
BRANCH   1  28
ATOM     28  C   UNL     1       0.221  -5.075   3.513  0.00  0.00    +0.324 C 
BRANCH  28  29
ATOM     29  O   UNL     1       0.223  -4.423   2.242  0.00  0.00    -0.479 OA
BRANCH  29  41
ATOM     30  C   UNL     1       0.450   1.273  -0.243  0.00  0.00    +0.045 C 
ATOM     31  C   UNL     1       0.375  -0.232  -0.214  0.00  0.00    -0.033 A 
ATOM     32  C   UNL     1       0.312  -0.950  -1.363  0.00  0.00    +0.096 A 
ATOM     33  C   UNL     1       0.243  -2.359  -1.308  0.00  0.00    +0.338 A 
ATOM     34  O   UNL     1       0.187  -2.991  -2.347  0.00  0.00    -0.245 OA
ATOM     35  O   UNL     1       0.238  -3.018  -0.140  0.00  0.00    -0.418 OA
ATOM     36  C   UNL     1       0.298  -2.364   1.040  0.00  0.00    +0.181 A 
ATOM     37  C   UNL     1       0.374  -0.961   1.059  0.00  0.00    +0.024 A 
ATOM     38  C   UNL     1       0.443  -0.281   2.279  0.00  0.00    +0.012 A 
ATOM     39  C   UNL     1       0.441  -0.992   3.458  0.00  0.00    +0.004 A 
ATOM     40  C   UNL     1       0.371  -2.377   3.442  0.00  0.00    +0.049 A 
ATOM     41  C   UNL     1       0.292  -3.065   2.244  0.00  0.00    +0.164 A 
ENDBRANCH  29  41
ENDBRANCH  28  29
ENDBRANCH   1  28
TORSDOF 6
