REMARK  Name = ZINC36603509
REMARK  19 active torsions:
REMARK  status: ('A' for Active; 'I' for Inactive)
REMARK    1  A    between atoms: C_1  and  C_2
REMARK    2  A    between atoms: C_2  and  C_3
REMARK    3  A    between atoms: N_5  and  C_6
REMARK    4  A    between atoms: N_5  and  C_13
REMARK    5  A    between atoms: C_6  and  C_7
REMARK    6  A    between atoms: C_10  and  C_12
REMARK    7  A    between atoms: C_13  and  C_15
REMARK    8  A    between atoms: C_13  and  C_24
REMARK    9  A    between atoms: C_16  and  O_23
REMARK   10  A    between atoms: C_18  and  O_22
REMARK   11  A    between atoms: C_20  and  O_21
REMARK   12  A    between atoms: N_26  and  C_27
REMARK   13  A    between atoms: C_27  and  C_28
REMARK   14  A    between atoms: C_27  and  C_29
REMARK   15  A    between atoms: C_27  and  C_30
REMARK   16  A    between atoms: C_30  and  C_31
REMARK   17  A    between atoms: C_31  and  C_32
REMARK   18  A    between atoms: C_31  and  C_33
REMARK   19  A    between atoms: C_31  and  C_34
REMARK                            x       y       z     vdW  Elec       q    Type
REMARK                         _______ _______ _______ _____ _____    ______ ____
ROOT
ATOM      1  C   UNL     1       1.656  -3.359  -0.100  0.00  0.00    +0.200 C 
ENDROOT
BRANCH   1   2
ATOM      2  C   UNL     1       0.281  -2.796   0.152  0.00  0.00    +0.065 A 
ATOM      3  C   UNL     1       0.140  -1.522   0.682  0.00  0.00    +0.129 A 
ATOM      4  C   UNL     1      -1.126  -1.005   0.914  0.00  0.00    +0.091 A 
ATOM      5  C   UNL     1      -2.250  -1.760   0.616  0.00  0.00    +0.124 A 
ATOM      6  C   UNL     1      -2.108  -3.034   0.084  0.00  0.00    +0.091 A 
ATOM      7  C   UNL     1      -0.843  -3.550  -0.152  0.00  0.00    +0.129 A 
BRANCH   7   8
ATOM      8  O   UNL     1      -0.704  -4.795  -0.676  0.00  0.00    -0.506 OA
ATOM      9  H   UNL     1      -0.654  -5.498  -0.014  0.00  0.00    +0.292 HD
ENDBRANCH   7   8
BRANCH   5  10
ATOM     10  O   UNL     1      -3.490  -1.254   0.844  0.00  0.00    -0.507 OA
ATOM     11  H   UNL     1      -3.860  -0.767   0.094  0.00  0.00    +0.292 HD
ENDBRANCH   5  10
BRANCH   3  12
ATOM     12  O   UNL     1       1.241  -0.782   0.975  0.00  0.00    -0.506 OA
ATOM     13  H   UNL     1       1.500  -0.168   0.274  0.00  0.00    +0.292 HD
ENDBRANCH   3  12
ENDBRANCH   1   2
BRANCH   1  14
ATOM     14  C   UNL     1       2.172  -4.007   1.159  0.00  0.00    +0.239 C 
ATOM     15  O   UNL     1       3.113  -3.521   1.750  0.00  0.00    -0.273 OA
ATOM     16  N   UNL     1       1.588  -5.127   1.628  0.00  0.00    -0.308 N 
ATOM     17  H   UNL     1       0.836  -5.516   1.155  0.00  0.00    +0.149 HD
BRANCH  16  18
ATOM     18  C   UNL     1       2.090  -5.758   2.851  0.00  0.00    +0.030 C 
ATOM     19  C   UNL     1       3.352  -6.562   2.531  0.00  0.00    +0.031 C 
ATOM     20  C   UNL     1       2.422  -4.677   3.882  0.00  0.00    +0.031 C 
BRANCH  18  21
ATOM     21  C   UNL     1       1.020  -6.693   3.419  0.00  0.00    +0.031 C 
BRANCH  21  22
ATOM     22  C   UNL     1      -0.335  -5.983   3.408  0.00  0.00    -0.036 C 
ATOM     23  C   UNL     1      -0.913  -6.008   1.991  0.00  0.00    +0.010 C 
ATOM     24  C   UNL     1      -1.294  -6.699   4.362  0.00  0.00    +0.010 C 
ATOM     25  C   UNL     1      -0.155  -4.532   3.860  0.00  0.00    +0.010 C 
ENDBRANCH  21  22
ENDBRANCH  18  21
ENDBRANCH  16  18
ENDBRANCH   1  14
BRANCH   1  28
ATOM     26  C   UNL     1       2.201  -1.424  -1.477  0.00  0.00    +0.217 C 
ATOM     27  O   UNL     1       2.982  -0.582  -1.866  0.00  0.00    -0.276 OA
ATOM     28  N   UNL     1       2.561  -2.277  -0.499  0.00  0.00    -0.278 N 
BRANCH  26  30
ATOM     29  C   UNL     1       0.634  -0.369  -3.085  0.00  0.00    +0.013 C 
ATOM     30  C   UNL     1       0.826  -1.515  -2.089  0.00  0.00    +0.092 C 
ENDBRANCH  26  30
BRANCH  28  31
ATOM     31  C   UNL     1       3.857  -2.124   0.167  0.00  0.00    +0.183 C 
BRANCH  31  32
ATOM     32  C   UNL     1       3.737  -1.104   1.271  0.00  0.00    +0.122 A 
ATOM     33  C   UNL     1       3.584  -1.376   2.579  0.00  0.00    +0.046 A 
ATOM     34  C   UNL     1       3.516  -0.134   3.250  0.00  0.00    +0.045 A 
ATOM     35  C   UNL     1       3.632   0.823   2.312  0.00  0.00    +0.102 A 
ATOM     36  O   UNL     1       3.772   0.229   1.115  0.00  0.00    -0.463 OA
ATOM     37  C   UNL     1       3.614   2.309   2.561  0.00  0.00    +0.086 C 
ENDBRANCH  31  32
ENDBRANCH  28  31
ENDBRANCH   1  28
TORSDOF 12
