REMARK  Name = ZINC66740422
REMARK  1 active torsions:
REMARK  status: ('A' for Active; 'I' for Inactive)
REMARK    1  A    between atoms: C_1  and  C_2
REMARK                            x       y       z     vdW  Elec       q    Type
REMARK                         _______ _______ _______ _____ _____    ______ ____
ROOT
ATOM      1  C   UNL     1      -0.018   1.503   0.010  0.00  0.00    +0.067 C 
ATOM      2  C   UNL     1       0.002  -0.004   0.002  0.00  0.00    +0.055 A 
ATOM      3  C   UNL     1       0.008  -0.795  -1.075  0.00  0.00    +0.082 A 
ATOM      4  C   UNL     1       0.036  -2.137  -0.574  0.00  0.00    +0.168 A 
ATOM      5  N   UNL     1       0.036  -2.062   0.724  0.00  0.00    -0.167 NA
ATOM      6  N   UNL     1       0.024  -0.824   1.094  0.00  0.00    -0.279 N 
ATOM      7  H   UNL     1       0.027  -0.521   2.015  0.00  0.00    +0.189 HD
ATOM      8  C   UNL     1       0.068  -3.268  -1.522  0.00  0.00    +0.268 C 
ATOM      9  O   UNL     1       0.259  -4.409  -1.146  0.00  0.00    -0.268 OA
ATOM     10  N   UNL     1      -0.127  -2.976  -2.829  0.00  0.00    -0.278 N 
ATOM     11  C   UNL     1      -0.527  -1.657  -3.302  0.00  0.00    +0.206 C 
ATOM     12  N   UNL     1      -0.008  -0.570  -2.459  0.00  0.00    -0.309 N 
ATOM     13  C   UNL     1      -2.019  -1.560  -3.411  0.00  0.00    +0.025 A 
ATOM     14  C   UNL     1      -3.010  -1.661  -2.458  0.00  0.00    +0.010 A 
ATOM     15  C   UNL     1      -4.322  -1.522  -2.896  0.00  0.00    +0.002 A 
ATOM     16  C   UNL     1      -4.616  -1.293  -4.225  0.00  0.00    +0.022 A 
ATOM     17  C   UNL     1      -3.624  -1.188  -5.189  0.00  0.00    +0.063 A 
ATOM     18  C   UNL     1      -2.302  -1.327  -4.761  0.00  0.00    +0.059 A 
ATOM     19  N   UNL     1      -1.130  -1.271  -5.496  0.00  0.00    -0.280 N 
ATOM     20  C   UNL     1      -0.040  -1.453  -4.724  0.00  0.00    +0.264 C 
ATOM     21  O   UNL     1       1.115  -1.454  -5.097  0.00  0.00    -0.271 OA
ATOM     22 CL   UNL     1      -4.010  -0.898  -6.857  0.00  0.00    -0.082 Cl
ATOM     23  H   UNL     1       0.006  -3.679  -3.484  0.00  0.00    +0.152 HD
ATOM     24  H   UNL     1       0.307   0.263  -2.841  0.00  0.00    +0.149 HD
ATOM     25  H   UNL     1      -1.097  -1.118  -6.453  0.00  0.00    +0.155 HD
ENDROOT
TORSDOF 0
