REMARK  Name = ZINC02231151
REMARK  9 active torsions:
REMARK  status: ('A' for Active; 'I' for Inactive)
REMARK    1  A    between atoms: C_1  and  C_2
REMARK    2  A    between atoms: C_3  and  C_24
REMARK    3  A    between atoms: N_11  and  C_14
REMARK    4  A    between atoms: C_14  and  C_15
REMARK    5  A    between atoms: C_18  and  C_22
REMARK    6  A    between atoms: C_19  and  N_21
REMARK    7  A    between atoms: C_24  and  O_26
REMARK    8  A    between atoms: O_26  and  C_27
REMARK    9  A    between atoms: C_27  and  C_28
REMARK                            x       y       z     vdW  Elec       q    Type
REMARK                         _______ _______ _______ _____ _____    ______ ____
ROOT
ATOM      1  C   UNL     1      -3.745   2.090  -2.413  0.00  0.00    +0.087 C 
ATOM      2  C   UNL     1      -2.911   2.023  -1.160  0.00  0.00    +0.116 C 
ATOM      3  C   UNL     1      -1.579   2.132  -1.261  0.00  0.00    +0.099 C 
ATOM      4  C   UNL     1      -0.709   2.072  -0.039  0.00  0.00    +0.148 C 
ATOM      5  C   UNL     1       0.017   0.752   0.029  0.00  0.00    -0.001 A 
ATOM      6  C   UNL     1      -0.412  -0.553   0.117  0.00  0.00    +0.007 A 
ATOM      7  C   UNL     1       0.512  -1.582   0.170  0.00  0.00    +0.000 A 
ATOM      8  C   UNL     1       1.864  -1.295   0.134  0.00  0.00    +0.002 A 
ATOM      9  C   UNL     1       2.297   0.012   0.045  0.00  0.00    +0.024 A 
ATOM     10  C   UNL     1       1.373   1.053  -0.009  0.00  0.00    +0.042 A 
ATOM     11  N   UNL     1       1.558   2.434  -0.099  0.00  0.00    -0.261 N 
ATOM     12  C   UNL     1       0.392   3.103  -0.126  0.00  0.00    +0.241 C 
ATOM     13  O   UNL     1       0.251   4.305  -0.202  0.00  0.00    -0.274 OA
ATOM     14  C   UNL     1      -1.530   2.284   1.201  0.00  0.00    +0.110 C 
ATOM     15  C   UNL     1      -2.881   2.167   1.157  0.00  0.00    +0.199 C 
ATOM     16  O   UNL     1      -3.527   1.857   0.020  0.00  0.00    -0.445 OA
ENDROOT
BRANCH  15  17
ATOM     17  N   UNL     1      -3.607   2.370   2.305  0.00  0.00    -0.328 N 
ATOM     18  H   UNL     1      -4.573   2.289   2.288  0.00  0.00    +0.145 HD
ATOM     19  H   UNL     1      -3.153   2.594   3.132  0.00  0.00    +0.145 HD
ENDBRANCH  15  17
BRANCH  14  20
ATOM     20  C   UNL     1      -0.882   2.611   2.436  0.00  0.00    +0.102 C 
ATOM     21  N   UNL     1      -0.369   2.870   3.416  0.00  0.00    -0.191 NA
ENDBRANCH  14  20
BRANCH   3  22
ATOM     22  C   UNL     1      -0.985   2.304  -2.535  0.00  0.00    +0.340 C 
ATOM     23  O   UNL     1      -0.446   1.363  -3.087  0.00  0.00    -0.245 OA
BRANCH  22  24
ATOM     24  O   UNL     1      -1.017   3.510  -3.137  0.00  0.00    -0.457 OA
BRANCH  24  25
ATOM     25  C   UNL     1      -0.331   3.632  -4.385  0.00  0.00    +0.259 C 
BRANCH  25  26
ATOM     26  C   UNL     1      -0.386   5.064  -4.851  0.00  0.00    +0.006 C 
ATOM     27  C   UNL     1       0.696   5.647  -5.304  0.00  0.00    +0.007 C 
ENDBRANCH  25  26
ENDBRANCH  24  25
ENDBRANCH  22  24
ENDBRANCH   3  22
BRANCH  11  28
ATOM     28  C   UNL     1       2.872   3.080  -0.158  0.00  0.00    +0.209 C 
BRANCH  28  29
ATOM     29  C   UNL     1       3.280   3.259  -1.597  0.00  0.00    +0.228 C 
ATOM     30  O   UNL     1       2.509   2.968  -2.487  0.00  0.00    -0.274 OA
ATOM     31  N   UNL     1       4.501   3.744  -1.896  0.00  0.00    -0.328 N 
ATOM     32  H   UNL     1       5.118   3.978  -1.185  0.00  0.00    +0.145 HD
ATOM     33  H   UNL     1       4.763   3.860  -2.823  0.00  0.00    +0.145 HD
ENDBRANCH  28  29
ENDBRANCH  11  28
TORSDOF 8
