REMARK  Name = ZINC09197661
REMARK  10 active torsions:
REMARK  status: ('A' for Active; 'I' for Inactive)
REMARK    1  A    between atoms: C_1  and  C_2
REMARK    2  A    between atoms: C_2  and  C_3
REMARK    3  A    between atoms: C_9  and  C_25
REMARK    4  A    between atoms: C_11  and  C_14
REMARK    5  A    between atoms: N_16  and  C_17
REMARK    6  A    between atoms: C_19  and  C_24
REMARK    7  A    between atoms: C_21  and  C_23
REMARK    8  A    between atoms: C_28  and  O_31
REMARK    9  A    between atoms: O_31  and  C_32
REMARK   10  A    between atoms: C_32  and  C_33
REMARK                            x       y       z     vdW  Elec       q    Type
REMARK                         _______ _______ _______ _____ _____    ______ ____
ROOT
ATOM      1  C   UNL     1      -1.165   4.961   1.142  0.00  0.00    +0.151 A 
ATOM      2  N   UNL     1      -1.572   5.443  -0.000  0.00  0.00    -0.132 NA
ATOM      3  N   UNL     1      -1.556   4.522  -0.901  0.00  0.00    -0.121 NA
ATOM      4  C   UNL     1      -1.138   3.405  -0.373  0.00  0.00    +0.209 A 
ATOM      5  N   UNL     1      -0.866   3.644   0.944  0.00  0.00    -0.225 N 
ATOM      6  N   UNL     1      -0.390   2.756   1.855  0.00  0.00    -0.272 N 
ATOM      7  C   UNL     1      -0.634   1.358   1.499  0.00  0.00    +0.140 C 
ATOM      8  C   UNL     1       0.025   1.023   0.154  0.00  0.00    +0.166 C 
ATOM      9  S   UNL     1      -0.937   1.836  -1.157  0.00  0.00    -0.069 S 
ATOM     10  H   UNL     1      -0.742   2.961   2.778  0.00  0.00    +0.167 HD
ENDROOT
BRANCH   7  11
ATOM     11  C   UNL     1      -0.063   0.463   2.570  0.00  0.00    -0.024 A 
ATOM     12  C   UNL     1       1.166   0.755   3.130  0.00  0.00    +0.009 A 
ATOM     13  C   UNL     1       1.689  -0.060   4.115  0.00  0.00    +0.046 A 
ATOM     14  C   UNL     1       0.984  -1.179   4.534  0.00  0.00    +0.121 A 
ATOM     15  C   UNL     1      -0.247  -1.473   3.966  0.00  0.00    +0.046 A 
ATOM     16  C   UNL     1      -0.768  -0.651   2.986  0.00  0.00    +0.009 A 
BRANCH  14  17
ATOM     17  O   UNL     1       1.499  -1.986   5.499  0.00  0.00    -0.492 OA
BRANCH  17  18
ATOM     18  C   UNL     1       2.771  -1.622   6.039  0.00  0.00    +0.225 C 
ATOM     19  C   UNL     1       3.184  -2.640   7.103  0.00  0.00    +0.048 C 
ENDBRANCH  17  18
ENDBRANCH  14  17
ENDBRANCH   7  11
BRANCH   8  20
ATOM     20  C   UNL     1       1.442   1.536   0.140  0.00  0.00    +0.233 C 
ATOM     21  O   UNL     1       1.741   2.514   0.793  0.00  0.00    -0.274 OA
ATOM     22  N   UNL     1       2.379   0.908  -0.599  0.00  0.00    -0.285 N 
ATOM     23  H   UNL     1       2.160   0.084  -1.061  0.00  0.00    +0.155 HD
BRANCH  22  24
ATOM     24  C   UNL     1       3.666   1.446  -0.701  0.00  0.00    +0.034 A 
ATOM     25  C   UNL     1       4.765   0.605  -0.810  0.00  0.00    +0.026 A 
ATOM     26  C   UNL     1       6.035   1.139  -0.915  0.00  0.00    -0.048 A 
ATOM     27  C   UNL     1       6.213   2.510  -0.902  0.00  0.00    +0.006 A 
ATOM     28  C   UNL     1       5.120   3.351  -0.788  0.00  0.00    -0.048 A 
ATOM     29  C   UNL     1       3.848   2.823  -0.688  0.00  0.00    +0.026 A 
ATOM     30  C   UNL     1       5.319   4.845  -0.774  0.00  0.00    +0.044 C 
ATOM     31  C   UNL     1       7.228   0.227  -1.039  0.00  0.00    +0.044 C 
ENDBRANCH  22  24
ENDBRANCH   8  20
BRANCH   1  33
ATOM     32  C   UNL     1       0.353   6.333   2.543  0.00  0.00    +0.012 C 
ATOM     33  C   UNL     1      -1.045   5.720   2.439  0.00  0.00    +0.074 C 
ENDBRANCH   1  33
TORSDOF 6
