REMARK  Name = ZINC06189482
REMARK  3 active torsions:
REMARK  status: ('A' for Active; 'I' for Inactive)
REMARK    1  A    between atoms: C_6  and  C_7
REMARK    2  A    between atoms: C_13  and  N_24
REMARK    3  A    between atoms: C_14  and  C_16
REMARK                            x       y       z     vdW  Elec       q    Type
REMARK                         _______ _______ _______ _____ _____    ______ ____
ROOT
ATOM      1  C   UNL     1       3.158   2.303  -2.978  0.00  0.00    -0.002 A 
ATOM      2  C   UNL     1       1.879   2.003  -2.508  0.00  0.00    -0.018 A 
ATOM      3  C   UNL     1       1.577   0.718  -2.110  0.00  0.00    +0.046 A 
ATOM      4  N   UNL     1       2.504  -0.231  -2.166  0.00  0.00    -0.244 NA
ATOM      5  C   UNL     1       3.722  -0.002  -2.597  0.00  0.00    +0.112 A 
ATOM      6  C   UNL     1       4.141   1.274  -3.035  0.00  0.00    +0.037 A 
ATOM      7  C   UNL     1       5.520   1.353  -3.481  0.00  0.00    +0.054 A 
ATOM      8  C   UNL     1       6.288   0.209  -3.441  0.00  0.00    +0.097 A 
ATOM      9  S   UNL     1       5.166  -1.016  -2.797  0.00  0.00    -0.062 S 
ATOM     10  C   UNL     1       0.214   0.327  -1.602  0.00  0.00    +0.056 C 
ATOM     11  C   UNL     1      -0.579   1.563  -1.185  0.00  0.00    +0.006 C 
ATOM     12  C   UNL     1      -0.544   2.572  -2.339  0.00  0.00    +0.005 C 
ATOM     13  C   UNL     1       0.875   3.125  -2.452  0.00  0.00    +0.037 C 
ENDROOT
BRANCH   8  14
ATOM     14  C   UNL     1       7.643   0.047  -3.821  0.00  0.00    +0.255 C 
ATOM     15  O   UNL     1       8.485   0.833  -3.426  0.00  0.00    -0.269 OA
ATOM     16  N   UNL     1       8.001  -0.979  -4.620  0.00  0.00    -0.293 N 
ATOM     17  C   UNL     1       7.022  -1.998  -5.027  0.00  0.00    +0.136 C 
ATOM     18  C   UNL     1       7.098  -2.152  -6.555  0.00  0.00    +0.179 C 
ATOM     19  O   UNL     1       8.456  -2.388  -6.935  0.00  0.00    -0.377 OA
ATOM     20  C   UNL     1       9.346  -1.314  -6.624  0.00  0.00    +0.179 C 
ATOM     21  C   UNL     1       9.384  -1.114  -5.104  0.00  0.00    +0.136 C 
ENDBRANCH   8  14
BRANCH   1  27
ATOM     22  C   UNL     1       3.676   4.688  -2.469  0.00  0.00    +0.010 A 
ATOM     23  C   UNL     1       3.990   5.966  -2.880  0.00  0.00    +0.020 A 
ATOM     24  C   UNL     1       4.111   6.252  -4.230  0.00  0.00    +0.041 A 
ATOM     25  C   UNL     1       3.922   5.256  -5.173  0.00  0.00    +0.020 A 
ATOM     26  C   UNL     1       3.613   3.973  -4.772  0.00  0.00    +0.010 A 
ATOM     27  C   UNL     1       3.490   3.679  -3.414  0.00  0.00    -0.017 A 
ATOM     28 CL   UNL     1       4.500   7.865  -4.741  0.00  0.00    -0.084 Cl
ENDBRANCH   1  27
BRANCH   7  29
ATOM     29  N   UNL     1       6.052   2.552  -3.938  0.00  0.00    -0.356 N 
ATOM     30  H   UNL     1       5.559   3.378  -3.818  0.00  0.00    +0.142 HD
ATOM     31  H   UNL     1       6.917   2.562  -4.377  0.00  0.00    +0.142 HD
ENDBRANCH   7  29
TORSDOF 3
