REMARK  Name = ZINC08253929
REMARK  7 active torsions:
REMARK  status: ('A' for Active; 'I' for Inactive)
REMARK    1  A    between atoms: C_3  and  C_8
REMARK    2  A    between atoms: C_5  and  N_7
REMARK    3  A    between atoms: N_10  and  C_13
REMARK    4  A    between atoms: C_13  and  C_14
REMARK    5  A    between atoms: C_22  and  C_24
REMARK    6  A    between atoms: N_26  and  C_27
REMARK    7  A    between atoms: C_27  and  C_28
REMARK                            x       y       z     vdW  Elec       q    Type
REMARK                         _______ _______ _______ _____ _____    ______ ____
ROOT
ATOM      1  C   UNL     1      -0.013   1.086   0.008  0.00  0.00    -0.046 C 
ATOM      2  C   UNL     1       1.424   1.616  -0.003  0.00  0.00    -0.010 C 
ATOM      3  C   UNL     1       1.649   2.461   1.257  0.00  0.00    -0.004 C 
ATOM      4  C   UNL     1       0.636   3.613   1.262  0.00  0.00    -0.015 C 
ATOM      5  C   UNL     1      -0.779   3.027   1.238  0.00  0.00    -0.078 C 
ATOM      6  C   UNL     1      -0.041   1.053   2.430  0.00  0.00    -0.065 C 
ATOM      7  C   UNL     1       1.395   1.582   2.488  0.00  0.00    +0.061 C 
ATOM      8  N   UNL     1      -0.726   1.550   1.218  0.00  0.00    +0.383 N 
ATOM      9  H   UNL     1      -1.684   1.182   1.202  0.00  0.00    -0.081 HD
ENDROOT
BRANCH   7  10
ATOM     10  C   UNL     1       1.582   2.399   3.740  0.00  0.00    +0.215 C 
ATOM     11  O   UNL     1       1.888   3.570   3.660  0.00  0.00    -0.276 OA
ATOM     12  N   UNL     1       1.409   1.829   4.949  0.00  0.00    -0.308 N 
ATOM     13  H   UNL     1       1.164   0.892   5.013  0.00  0.00    +0.149 HD
BRANCH  12  14
ATOM     14  C   UNL     1       1.591   2.624   6.166  0.00  0.00    +0.178 C 
BRANCH  14  15
ATOM     15  C   UNL     1       1.341   1.757   7.374  0.00  0.00    +0.122 A 
ATOM     16  C   UNL     1       2.266   1.030   8.026  0.00  0.00    +0.046 A 
ATOM     17  C   UNL     1       1.600   0.377   9.088  0.00  0.00    +0.041 A 
ATOM     18  C   UNL     1       0.308   0.744   9.022  0.00  0.00    +0.195 A 
ATOM     19  O   UNL     1       0.158   1.584   7.985  0.00  0.00    -0.466 OA
ENDBRANCH  14  15
ENDBRANCH  12  14
ENDBRANCH   7  10
BRANCH   1  20
ATOM     20  C   UNL     1      -0.753   1.593  -1.231  0.00  0.00    +0.130 C 
BRANCH  20  23
ATOM     21  C   UNL     1      -4.239   0.719  -1.387  0.00  0.00    +0.113 A 
ATOM     22  C   UNL     1      -3.257   1.667  -1.360  0.00  0.00    +0.138 A 
ATOM     23  N   UNL     1      -2.088   0.991  -1.282  0.00  0.00    -0.253 N 
ATOM     24  N   UNL     1      -2.346  -0.269  -1.256  0.00  0.00    -0.065 NA
ATOM     25  N   UNL     1      -3.615  -0.470  -1.316  0.00  0.00    -0.130 NA
BRANCH  21  28
ATOM     26  C   UNL     1      -7.554   2.465  -1.726  0.00  0.00    +0.002 A 
ATOM     27  C   UNL     1      -6.193   2.247  -1.646  0.00  0.00    +0.010 A 
ATOM     28  C   UNL     1      -5.702   0.955  -1.473  0.00  0.00    +0.005 A 
ATOM     29  C   UNL     1      -6.587  -0.116  -1.386  0.00  0.00    +0.032 A 
ATOM     30  C   UNL     1      -7.954   0.111  -1.462  0.00  0.00    +0.025 A 
ATOM     31  C   UNL     1      -8.434   1.403  -1.634  0.00  0.00    +0.023 A 
BRANCH  30  32
ATOM     32  N   UNL     1      -8.846  -0.960  -1.370  0.00  0.00    -0.358 N 
ATOM     33  H   UNL     1      -9.801  -0.802  -1.426  0.00  0.00    +0.142 HD
ATOM     34  H   UNL     1      -8.510  -1.862  -1.249  0.00  0.00    +0.142 HD
ENDBRANCH  30  32
ENDBRANCH  21  28
ENDBRANCH  20  23
ENDBRANCH   1  20
TORSDOF 7
