REMARK  Name = ZINC54384367
REMARK  9 active torsions:
REMARK  status: ('A' for Active; 'I' for Inactive)
REMARK    1  A    between atoms: C_1  and  C_2
REMARK    2  A    between atoms: C_5  and  C_7
REMARK    3  A    between atoms: C_7  and  C_9
REMARK    4  A    between atoms: C_7  and  N_10
REMARK    5  A    between atoms: N_13  and  C_14
REMARK    6  A    between atoms: C_16  and  N_22
REMARK    7  A    between atoms: C_19  and  O_20
REMARK    8  A    between atoms: O_20  and  C_21
REMARK    9  A    between atoms: C_23  and  C_25
REMARK                            x       y       z     vdW  Elec       q    Type
REMARK                         _______ _______ _______ _____ _____    ______ ____
ROOT
ATOM      1  N   UNL     1       2.206  -4.104  -0.988  0.00  0.00    -0.292 N 
ATOM      2  C   UNL     1       2.544  -5.289  -1.532  0.00  0.00    +0.304 C 
ATOM      3  O   UNL     1       1.870  -6.276  -1.308  0.00  0.00    -0.252 OA
ATOM      4  N   UNL     1       3.630  -5.381  -2.326  0.00  0.00    -0.266 N 
ATOM      5  H   UNL     1       2.744  -3.316  -1.167  0.00  0.00    +0.151 HD
ATOM      6  H   UNL     1       4.129  -4.582  -2.560  0.00  0.00    +0.156 HD
ENDROOT
BRANCH   4   7
ATOM      7  C   UNL     1       4.038  -6.630  -2.813  0.00  0.00    +0.079 A 
ATOM      8  C   UNL     1       3.094  -7.593  -3.134  0.00  0.00    +0.050 A 
ATOM      9  C   UNL     1       3.501  -8.829  -3.617  0.00  0.00    +0.035 A 
ATOM     10  C   UNL     1       4.853  -9.100  -3.777  0.00  0.00    +0.027 A 
ATOM     11  C   UNL     1       5.795  -8.142  -3.458  0.00  0.00    +0.049 A 
ATOM     12  C   UNL     1       5.394  -6.904  -2.981  0.00  0.00    +0.141 A 
BRANCH   9  13
ATOM     13  N   UNL     1       2.547  -9.802  -3.941  0.00  0.00    -0.286 N 
ATOM     14  C   UNL     1       2.835 -10.748  -4.857  0.00  0.00    +0.214 C 
ATOM     15  O   UNL     1       3.877 -10.695  -5.477  0.00  0.00    -0.276 OA
ATOM     16  C   UNL     1       1.863 -11.872  -5.111  0.00  0.00    +0.109 C 
ATOM     17  H   UNL     1       1.680  -9.796  -3.507  0.00  0.00    +0.155 HD
ENDBRANCH   9  13
BRANCH  12  18
ATOM     18  O   UNL     1       6.322  -5.960  -2.672  0.00  0.00    -0.493 OA
ATOM     19  C   UNL     1       7.694  -6.309  -2.869  0.00  0.00    +0.277 C 
ENDBRANCH  12  18
ENDBRANCH   4   7
BRANCH   1  20
ATOM     20  C   UNL     1       1.026  -4.004  -0.126  0.00  0.00    +0.108 C 
ATOM     21  C   UNL     1       1.407  -4.386   1.306  0.00  0.00    +0.033 C 
BRANCH  20  26
ATOM     22  C   UNL     1       0.030   1.573  -0.186  0.00  0.00    +0.051 C 
ATOM     23  C   UNL     1       0.033   0.066  -0.174  0.00  0.00    -0.013 A 
ATOM     24  C   UNL     1      -1.018  -0.790  -0.191  0.00  0.00    +0.011 A 
ATOM     25  C   UNL     1      -0.775  -2.151  -0.176  0.00  0.00    +0.013 A 
ATOM     26  C   UNL     1       0.507  -2.589  -0.146  0.00  0.00    +0.010 A 
ATOM     27  S   UNL     1       1.421  -1.056  -0.144  0.00  0.00    -0.097 S 
ENDBRANCH  20  26
ENDBRANCH   1  20
TORSDOF 5
