REMARK  Name = ZINC08502735
REMARK  11 active torsions:
REMARK  status: ('A' for Active; 'I' for Inactive)
REMARK    1  A    between atoms: C_1  and  C_2
REMARK    2  A    between atoms: C_2  and  C_3
REMARK    3  A    between atoms: C_3  and  N_4
REMARK    4  A    between atoms: C_5  and  C_7
REMARK    5  A    between atoms: C_7  and  C_9
REMARK    6  A    between atoms: C_7  and  N_10
REMARK    7  A    between atoms: C_11  and  C_13
REMARK    8  A    between atoms: C_13  and  N_14
REMARK    9  A    between atoms: C_17  and  C_21
REMARK   10  A    between atoms: C_17  and  C_22
REMARK   11  A    between atoms: C_25  and  C_28
REMARK                            x       y       z     vdW  Elec       q    Type
REMARK                         _______ _______ _______ _____ _____    ______ ____
ROOT
ATOM      1  N   UNL     1       3.950  -7.687   4.354  0.00  0.00    -0.215 N 
ATOM      2  C   UNL     1       3.284  -8.835   4.587  0.00  0.00    +0.251 C 
ATOM      3  O   UNL     1       2.166  -8.955   5.039  0.00  0.00    -0.272 OA
ATOM      4  C   UNL     1       4.225  -9.947   4.164  0.00  0.00    +0.135 C 
ATOM      5  N   UNL     1       5.423  -9.228   3.698  0.00  0.00    -0.281 N 
ATOM      6  C   UNL     1       5.165  -7.915   3.843  0.00  0.00    +0.310 C 
ATOM      7  O   UNL     1       5.950  -7.036   3.547  0.00  0.00    -0.252 OA
ATOM      8  C   UNL     1       4.565 -10.846   5.354  0.00  0.00    +0.047 C 
ATOM      9  H   UNL     1       6.238  -9.623   3.352  0.00  0.00    +0.152 HD
ENDROOT
BRANCH   4  10
ATOM     10  C   UNL     1       3.622 -10.754   3.043  0.00  0.00    -0.015 A 
ATOM     11  C   UNL     1       2.249 -10.882   2.945  0.00  0.00    +0.006 A 
ATOM     12  C   UNL     1       1.696 -11.623   1.917  0.00  0.00    +0.004 A 
ATOM     13  C   UNL     1       2.515 -12.234   0.987  0.00  0.00    -0.050 A 
ATOM     14  C   UNL     1       3.888 -12.105   1.085  0.00  0.00    +0.004 A 
ATOM     15  C   UNL     1       4.441 -11.361   2.110  0.00  0.00    +0.006 A 
ATOM     16  C   UNL     1       1.912 -13.042  -0.133  0.00  0.00    +0.044 C 
ENDBRANCH   4  10
BRANCH   1  17
ATOM     17  C   UNL     1       3.407  -6.353   4.621  0.00  0.00    +0.213 C 
BRANCH  17  19
ATOM     18  N   UNL     1       2.093  -4.639   3.414  0.00  0.00    -0.303 N 
ATOM     19  C   UNL     1       2.678  -5.853   3.400  0.00  0.00    +0.232 C 
ATOM     20  O   UNL     1       2.618  -6.544   2.405  0.00  0.00    -0.274 OA
ATOM     21  H   UNL     1       2.141  -4.087   4.209  0.00  0.00    +0.149 HD
BRANCH  18  22
ATOM     22  C   UNL     1       1.385  -4.154   2.227  0.00  0.00    +0.156 C 
ATOM     23  C   UNL     1      -0.051  -4.684   2.238  0.00  0.00    +0.038 C 
BRANCH  22  25
ATOM     24  N   UNL     1       0.762  -1.976   1.234  0.00  0.00    -0.314 N 
ATOM     25  C   UNL     1       1.364  -2.647   2.235  0.00  0.00    +0.233 C 
ATOM     26  O   UNL     1       1.890  -2.038   3.143  0.00  0.00    -0.274 OA
ATOM     27  H   UNL     1       0.342  -2.462   0.507  0.00  0.00    +0.149 HD
BRANCH  24  28
ATOM     28  C   UNL     1       0.742  -0.511   1.242  0.00  0.00    +0.104 C 
BRANCH  28  30
ATOM     29  C   UNL     1      -0.019   1.526   0.010  0.00  0.00    +0.005 C 
ATOM     30  C   UNL     1       0.002  -0.004   0.002  0.00  0.00    +0.015 C 
ENDBRANCH  28  30
ENDBRANCH  24  28
ENDBRANCH  22  25
ENDBRANCH  18  22
ENDBRANCH  17  19
ENDBRANCH   1  17
TORSDOF 7
