REMARK  Name = ZINC14926794
REMARK  8 active torsions:
REMARK  status: ('A' for Active; 'I' for Inactive)
REMARK    1  A    between atoms: C_1  and  C_2
REMARK    2  A    between atoms: C_2  and  C_4
REMARK    3  A    between atoms: C_2  and  N_48
REMARK    4  A    between atoms: N_6  and  C_7
REMARK    5  A    between atoms: C_8  and  C_15
REMARK    6  A    between atoms: C_18  and  N_48
REMARK    7  A    between atoms: C_19  and  C_20
REMARK    8  A    between atoms: C_19  and  N_48
REMARK                            x       y       z     vdW  Elec       q    Type
REMARK                         _______ _______ _______ _____ _____    ______ ____
ROOT
ATOM      1  C   UNL     1       1.487   4.432  -0.162  0.00  0.00    +0.204 C 
ATOM      2  O   UNL     1       0.364   4.435   0.295  0.00  0.00    -0.277 OA
ATOM      3  N   UNL     1       2.034   3.280  -0.598  0.00  0.00    -0.281 N 
ATOM      4  H   UNL     1       2.933   3.278  -0.964  0.00  0.00    +0.155 HD
ENDROOT
BRANCH   3   5
ATOM      5  C   UNL     1       1.314   2.098  -0.523  0.00  0.00    +0.084 A 
ATOM      6  C   UNL     1       1.701   0.828  -0.915  0.00  0.00    +0.068 A 
ATOM      7  C   UNL     1       0.743  -0.260  -0.727  0.00  0.00    -0.023 A 
ATOM      8  C   UNL     1      -0.433   0.101  -0.181  0.00  0.00    -0.004 A 
ATOM      9  S   UNL     1      -0.289   1.852   0.083  0.00  0.00    -0.077 S 
ATOM     10  C   UNL     1      -1.362  -1.070  -0.016  0.00  0.00    +0.043 C 
ATOM     11  C   UNL     1      -0.450  -2.311  -0.137  0.00  0.00    +0.010 C 
ATOM     12  C   UNL     1       0.710  -1.766  -0.993  0.00  0.00    +0.037 C 
BRANCH   6  13
ATOM     13  C   UNL     1       3.024   0.583  -1.497  0.00  0.00    +0.244 C 
ATOM     14  O   UNL     1       3.183   0.659  -2.701  0.00  0.00    -0.270 OA
ATOM     15  N   UNL     1       4.065   0.274  -0.699  0.00  0.00    -0.325 N 
ATOM     16  H   UNL     1       3.939   0.213   0.261  0.00  0.00    +0.145 HD
ATOM     17  H   UNL     1       4.940   0.112  -1.084  0.00  0.00    +0.145 HD
ENDBRANCH   6  13
ENDBRANCH   3   5
BRANCH   1  19
ATOM     18  C   UNL     1       3.316   5.748   0.873  0.00  0.00    -0.004 C 
ATOM     19  C   UNL     1       2.270   5.717  -0.244  0.00  0.00    +0.016 C 
BRANCH  19  21
ATOM     20  C   UNL     1       1.993   8.104  -0.540  0.00  0.00    -0.095 C 
ATOM     21  N   UNL     1       1.334   6.853  -0.108  0.00  0.00    +0.388 N 
ATOM     22  H   UNL     1       0.516   6.684  -0.705  0.00  0.00    -0.081 HD
BRANCH  21  23
ATOM     23  C   UNL     1       0.888   6.975   1.295  0.00  0.00    -0.042 C 
BRANCH  23  24
ATOM     24  C   UNL     1      -0.224   7.990   1.365  0.00  0.00    -0.062 A 
ATOM     25  C   UNL     1       0.068   9.321   1.601  0.00  0.00    +0.003 A 
ATOM     26  C   UNL     1      -0.950  10.253   1.659  0.00  0.00    +0.021 A 
ATOM     27  C   UNL     1      -2.264   9.853   1.493  0.00  0.00    +0.059 A 
ATOM     28  C   UNL     1      -2.558   8.520   1.263  0.00  0.00    +0.059 A 
ATOM     29  C   UNL     1      -1.536   7.589   1.199  0.00  0.00    +0.023 A 
ATOM     30 CL   UNL     1      -4.206   8.017   1.054  0.00  0.00    -0.082 Cl
ATOM     31 CL   UNL     1      -3.544  11.023   1.573  0.00  0.00    -0.082 Cl
ENDBRANCH  23  24
ENDBRANCH  21  23
ENDBRANCH  19  21
ENDBRANCH   1  19
TORSDOF 6
