REMARK  Name = ZINC36635366
REMARK  7 active torsions:
REMARK  status: ('A' for Active; 'I' for Inactive)
REMARK    1  A    between atoms: C_1  and  C_2
REMARK    2  A    between atoms: C_2  and  O_3
REMARK    3  A    between atoms: O_3  and  C_4
REMARK    4  A    between atoms: C_9  and  N_10
REMARK    5  A    between atoms: N_10  and  C_11
REMARK    6  A    between atoms: N_16  and  C_19
REMARK    7  A    between atoms: C_23  and  C_25
REMARK                            x       y       z     vdW  Elec       q    Type
REMARK                         _______ _______ _______ _____ _____    ______ ____
ROOT
ATOM      1  C   UNL     1      -5.351  -2.262  -0.017  0.00  0.00    +0.167 C 
ATOM      2  C   UNL     1      -6.173  -1.029  -0.445  0.00  0.00    +0.128 C 
ATOM      3  C   UNL     1      -7.061  -0.762   0.750  0.00  0.00    +0.228 C 
ATOM      4  O   UNL     1      -7.876   0.132   0.834  0.00  0.00    -0.275 OA
ATOM      5  N   UNL     1      -6.806  -1.671   1.700  0.00  0.00    -0.209 N 
ATOM      6  C   UNL     1      -5.861  -2.566   1.375  0.00  0.00    +0.247 C 
ATOM      7  O   UNL     1      -5.475  -3.473   2.081  0.00  0.00    -0.273 OA
ENDROOT
BRANCH   5   8
ATOM      8  C   UNL     1      -7.473  -1.687   2.933  0.00  0.00    +0.044 A 
ATOM      9  C   UNL     1      -8.826  -1.995   2.988  0.00  0.00    +0.024 A 
ATOM     10  C   UNL     1      -9.480  -2.010   4.204  0.00  0.00    +0.002 A 
ATOM     11  C   UNL     1      -8.789  -1.719   5.366  0.00  0.00    +0.003 A 
ATOM     12  C   UNL     1      -7.442  -1.412   5.314  0.00  0.00    -0.049 A 
ATOM     13  C   UNL     1      -6.781  -1.401   4.102  0.00  0.00    +0.027 A 
ATOM     14  C   UNL     1      -6.693  -1.096   6.583  0.00  0.00    +0.044 C 
ENDBRANCH   5   8
BRANCH   1  15
ATOM     15  N   UNL     1      -3.922  -1.942   0.016  0.00  0.00    -0.330 N 
ATOM     16  H   UNL     1      -3.632  -1.022   0.116  0.00  0.00    +0.147 HD
BRANCH  15  22
ATOM     17  C   UNL     1      -1.613  -2.664  -0.067  0.00  0.00    +0.141 A 
ATOM     18  C   UNL     1      -0.679  -3.681  -0.173  0.00  0.00    +0.047 A 
ATOM     19  C   UNL     1      -1.097  -4.992  -0.315  0.00  0.00    +0.004 A 
ATOM     20  C   UNL     1      -2.446  -5.291  -0.352  0.00  0.00    +0.002 A 
ATOM     21  C   UNL     1      -3.385  -4.282  -0.246  0.00  0.00    +0.026 A 
ATOM     22  C   UNL     1      -2.973  -2.966  -0.098  0.00  0.00    +0.070 A 
BRANCH  17  23
ATOM     23  O   UNL     1      -1.204  -1.374   0.073  0.00  0.00    -0.490 OA
BRANCH  23  25
ATOM     24  C   UNL     1       0.471   0.358   0.260  0.00  0.00    +0.048 C 
ATOM     25  C   UNL     1       0.205  -1.140   0.097  0.00  0.00    +0.226 C 
ENDBRANCH  23  25
ENDBRANCH  17  23
ENDBRANCH  15  22
ENDBRANCH   1  15
TORSDOF 5
