REMARK  Name = ZINC17124963
REMARK  5 active torsions:
REMARK  status: ('A' for Active; 'I' for Inactive)
REMARK    1  A    between atoms: C_1  and  C_2
REMARK    2  A    between atoms: C_2  and  C_3
REMARK    3  A    between atoms: C_2  and  C_4
REMARK    4  A    between atoms: C_7  and  C_10
REMARK    5  A    between atoms: C_12  and  C_20
REMARK                            x       y       z     vdW  Elec       q    Type
REMARK                         _______ _______ _______ _____ _____    ______ ____
ROOT
ATOM      1  C   UNL     1      -1.270   3.805  -0.091  0.00  0.00    +0.128 C 
ATOM      2  C   UNL     1      -0.080   4.432   0.639  0.00  0.00    +0.202 C 
ATOM      3  C   UNL     1       1.181   3.701   0.250  0.00  0.00    +0.238 C 
ATOM      4  O   UNL     1       2.228   4.305   0.161  0.00  0.00    -0.274 OA
ATOM      5  N   UNL     1       1.142   2.379   0.004  0.00  0.00    -0.267 N 
ATOM      6  C   UNL     1      -0.021   1.708   0.011  0.00  0.00    +0.137 C 
ATOM      7  S   UNL     1       0.002  -0.004   0.002  0.00  0.00    -0.018 S 
ATOM      8  N   UNL     1      -1.202   2.347   0.021  0.00  0.00    -0.318 N 
ATOM      9  H   UNL     1       1.967   1.904  -0.182  0.00  0.00    +0.157 HD
ATOM     10  H   UNL     1      -2.022   1.836   0.105  0.00  0.00    +0.148 HD
ENDROOT
BRANCH   1  14
ATOM     11  C   UNL     1      -1.153   4.910  -4.216  0.00  0.00    -0.045 A 
ATOM     12  C   UNL     1      -1.995   5.577  -3.345  0.00  0.00    +0.004 A 
ATOM     13  C   UNL     1      -2.032   5.219  -2.010  0.00  0.00    +0.006 A 
ATOM     14  C   UNL     1      -1.229   4.195  -1.546  0.00  0.00    -0.026 A 
ATOM     15  C   UNL     1      -0.383   3.531  -2.416  0.00  0.00    +0.006 A 
ATOM     16  C   UNL     1      -0.349   3.886  -3.751  0.00  0.00    +0.004 A 
BRANCH  11  18
ATOM     17  C   UNL     1       0.303   5.745  -6.040  0.00  0.00    +0.012 C 
ATOM     18  C   UNL     1      -1.113   5.299  -5.671  0.00  0.00    +0.013 C 
ATOM     19  C   UNL     1      -1.509   4.097  -6.531  0.00  0.00    +0.012 C 
ENDBRANCH  11  18
ENDBRANCH   1  14
BRANCH   2  20
ATOM     20  C   UNL     1      -0.282   4.325   2.093  0.00  0.00    +0.077 C 
ATOM     21  N   UNL     1      -0.439   4.242   3.215  0.00  0.00    -0.196 NA
ENDBRANCH   2  20
TORSDOF 3
