REMARK  Name = ZINC57522130
REMARK  5 active torsions:
REMARK  status: ('A' for Active; 'I' for Inactive)
REMARK    1  A    between atoms: C_1  and  C_2
REMARK    2  A    between atoms: N_10  and  C_18
REMARK    3  A    between atoms: C_11  and  S_13
REMARK    4  A    between atoms: S_13  and  C_14
REMARK    5  A    between atoms: C_14  and  C_15
REMARK                            x       y       z     vdW  Elec       q    Type
REMARK                         _______ _______ _______ _____ _____    ______ ____
ROOT
ATOM      1  C   UNL     1      -0.018   1.503   0.010  0.00  0.00    +0.063 C 
ATOM      2  C   UNL     1       0.002  -0.004   0.002  0.00  0.00    +0.016 A 
ATOM      3  C   UNL     1       0.008  -0.776  -1.103  0.00  0.00    +0.051 A 
ATOM      4  C   UNL     1       0.028  -2.126  -0.690  0.00  0.00    +0.097 A 
ATOM      5  C   UNL     1       0.034  -2.116   0.710  0.00  0.00    +0.131 A 
ATOM      6  N   UNL     1       0.023  -0.796   1.109  0.00  0.00    -0.353 N 
ATOM      7  H   UNL     1       0.028  -0.483   2.027  0.00  0.00    +0.166 HD
ATOM      8  C   UNL     1       0.054  -3.344   1.396  0.00  0.00    +0.278 A 
ATOM      9  O   UNL     1       0.059  -3.378   2.615  0.00  0.00    -0.265 OA
ATOM     10  N   UNL     1       0.067  -4.486   0.674  0.00  0.00    -0.289 N 
ATOM     11  C   UNL     1       0.061  -4.441  -0.691  0.00  0.00    +0.172 A 
ATOM     12  N   UNL     1       0.041  -3.303  -1.346  0.00  0.00    -0.222 NA
ATOM     13  C   UNL     1       0.087  -5.781   1.359  0.00  0.00    +0.154 C 
ENDROOT
BRANCH  11  14
ATOM     14  S   UNL     1       0.079  -5.951  -1.598  0.00  0.00    -0.078 S 
BRANCH  14  15
ATOM     15  C   UNL     1       0.065  -5.421  -3.333  0.00  0.00    +0.172 C 
BRANCH  15  16
ATOM     16  C   UNL     1       0.079  -6.633  -4.229  0.00  0.00    +0.221 C 
ATOM     17  O   UNL     1       0.097  -7.745  -3.744  0.00  0.00    -0.275 OA
ATOM     18  N   UNL     1       0.071  -6.481  -5.568  0.00  0.00    -0.329 N 
ATOM     19  H   UNL     1       0.057  -5.592  -5.955  0.00  0.00    +0.145 HD
ATOM     20  H   UNL     1       0.081  -7.262  -6.144  0.00  0.00    +0.145 HD
ENDBRANCH  15  16
ENDBRANCH  14  15
ENDBRANCH  11  14
TORSDOF 3
