REMARK  Name = ZINC16263207
REMARK  8 active torsions:
REMARK  status: ('A' for Active; 'I' for Inactive)
REMARK    1  A    between atoms: C_1  and  C_2
REMARK    2  A    between atoms: C_2  and  N_3
REMARK    3  A    between atoms: N_12  and  C_15
REMARK    4  A    between atoms: C_15  and  C_16
REMARK    5  A    between atoms: N_18  and  C_19
REMARK    6  A    between atoms: C_19  and  C_21
REMARK    7  A    between atoms: C_19  and  C_28
REMARK    8  A    between atoms: N_32  and  C_33
REMARK                            x       y       z     vdW  Elec       q    Type
REMARK                         _______ _______ _______ _____ _____    ______ ____
ROOT
ATOM      1  C   UNL     1      -5.947   3.197   1.050  0.00  0.00    +0.234 C 
ATOM      2  O   UNL     1      -5.557   3.170   2.197  0.00  0.00    -0.274 OA
ATOM      3  N   UNL     1      -6.899   4.078   0.683  0.00  0.00    -0.300 N 
ATOM      4  H   UNL     1      -7.212   4.100  -0.235  0.00  0.00    +0.150 HD
ENDROOT
BRANCH   1   5
ATOM      5  C   UNL     1      -5.368   2.247   0.034  0.00  0.00    +0.222 C 
BRANCH   5  15
ATOM      6  N   UNL     1      -2.103   1.072   1.277  0.00  0.00    -0.261 N 
ATOM      7  C   UNL     1      -2.366  -0.117   1.862  0.00  0.00    +0.264 A 
ATOM      8  O   UNL     1      -1.478  -0.768   2.377  0.00  0.00    -0.267 OA
ATOM      9  C   UNL     1      -3.757  -0.604   1.859  0.00  0.00    +0.063 A 
ATOM     10  C   UNL     1      -4.109  -1.819   2.442  0.00  0.00    +0.015 A 
ATOM     11  C   UNL     1      -5.425  -2.230   2.413  0.00  0.00    +0.001 A 
ATOM     12  C   UNL     1      -6.394  -1.442   1.810  0.00  0.00    +0.002 A 
ATOM     13  C   UNL     1      -6.058  -0.236   1.229  0.00  0.00    +0.027 A 
ATOM     14  C   UNL     1      -4.740   0.194   1.248  0.00  0.00    +0.059 A 
ATOM     15  N   UNL     1      -4.360   1.400   0.676  0.00  0.00    -0.284 N 
ATOM     16  C   UNL     1      -3.078   1.800   0.710  0.00  0.00    +0.333 A 
ATOM     17  O   UNL     1      -2.787   2.866   0.202  0.00  0.00    -0.246 OA
BRANCH   6  19
ATOM     18  C   UNL     1      -0.013   1.086   0.008  0.00  0.00    +0.027 C 
ATOM     19  C   UNL     1      -0.729   1.579   1.267  0.00  0.00    +0.126 C 
ENDBRANCH   6  19
ENDBRANCH   5  15
ENDBRANCH   1   5
BRANCH   3  20
ATOM     20  C   UNL     1      -7.462   5.002   1.671  0.00  0.00    +0.169 C 
BRANCH  20  21
ATOM     21  C   UNL     1      -8.844   5.419   1.238  0.00  0.00    -0.020 A 
ATOM     22  C   UNL     1      -9.100   5.686  -0.094  0.00  0.00    +0.007 A 
ATOM     23  C   UNL     1     -10.369   6.063  -0.492  0.00  0.00    +0.020 A 
ATOM     24  C   UNL     1     -11.380   6.184   0.444  0.00  0.00    +0.041 A 
ATOM     25  C   UNL     1     -11.122   5.921   1.778  0.00  0.00    +0.020 A 
ATOM     26  C   UNL     1      -9.854   5.539   2.174  0.00  0.00    +0.007 A 
ATOM     27 CL   UNL     1     -12.972   6.665  -0.054  0.00  0.00    -0.084 Cl
ENDBRANCH  20  21
BRANCH  20  28
ATOM     28  C   UNL     1      -6.581   6.220   1.779  0.00  0.00    +0.134 A 
ATOM     29  N   UNL     1      -6.068   6.879   0.776  0.00  0.00    -0.238 NA
ATOM     30  C   UNL     1      -5.342   7.904   1.246  0.00  0.00    +0.130 A 
ATOM     31  C   UNL     1      -5.401   7.874   2.591  0.00  0.00    +0.106 A 
ATOM     32  N   UNL     1      -6.186   6.806   2.930  0.00  0.00    -0.336 N 
ATOM     33  C   UNL     1      -6.535   6.378   4.287  0.00  0.00    +0.150 C 
ENDBRANCH  20  28
ENDBRANCH   3  20
TORSDOF 6
