REMARK  Name = ZINC19643983
REMARK  11 active torsions:
REMARK  status: ('A' for Active; 'I' for Inactive)
REMARK    1  A    between atoms: C_1  and  C_2
REMARK    2  A    between atoms: C_2  and  C_3
REMARK    3  A    between atoms: C_2  and  C_4
REMARK    4  A    between atoms: C_2  and  C_5
REMARK    5  A    between atoms: C_12  and  N_17
REMARK    6  A    between atoms: C_13  and  C_14
REMARK    7  A    between atoms: N_17  and  C_18
REMARK    8  A    between atoms: C_18  and  N_20
REMARK    9  A    between atoms: C_21  and  C_23
REMARK   10  A    between atoms: C_24  and  C_25
REMARK   11  A    between atoms: N_28  and  C_30
REMARK                            x       y       z     vdW  Elec       q    Type
REMARK                         _______ _______ _______ _____ _____    ______ ____
ROOT
ATOM      1  C   UNL     1       0.718  -0.497  -1.257  0.00  0.00    -0.000 C 
ATOM      2  C   UNL     1       0.746  -2.029  -1.264  0.00  0.00    +0.009 C 
ATOM      3  C   UNL     1       1.234  -2.534  -2.624  0.00  0.00    +0.037 C 
ATOM      4  C   UNL     1       2.546  -1.840  -2.959  0.00  0.00    -0.023 A 
ATOM      5  C   UNL     1       2.920  -0.705  -2.330  0.00  0.00    -0.004 A 
ATOM      6  S   UNL     1       4.484  -0.290  -3.046  0.00  0.00    -0.077 S 
ATOM      7  C   UNL     1       4.647  -1.558  -4.135  0.00  0.00    +0.084 A 
ATOM      8  C   UNL     1       3.496  -2.310  -3.953  0.00  0.00    +0.068 A 
ATOM      9  C   UNL     1       2.161   0.028  -1.267  0.00  0.00    +0.046 C 
ENDROOT
BRANCH   8  10
ATOM     10  C   UNL     1       3.249  -3.528  -4.729  0.00  0.00    +0.244 C 
ATOM     11  O   UNL     1       2.656  -3.463  -5.790  0.00  0.00    -0.270 OA
ATOM     12  N   UNL     1       3.678  -4.720  -4.269  0.00  0.00    -0.325 N 
ATOM     13  H   UNL     1       4.151  -4.771  -3.423  0.00  0.00    +0.145 HD
ATOM     14  H   UNL     1       3.514  -5.526  -4.783  0.00  0.00    +0.145 HD
ENDBRANCH   8  10
BRANCH   1  16
ATOM     15  C   UNL     1      -0.019   1.526   0.010  0.00  0.00    +0.011 C 
ATOM     16  C   UNL     1       0.002  -0.004   0.002  0.00  0.00    -0.035 C 
ATOM     17  C   UNL     1       0.742  -0.511   1.242  0.00  0.00    +0.011 C 
ATOM     18  C   UNL     1      -1.433  -0.534   0.013  0.00  0.00    +0.011 C 
ENDBRANCH   1  16
BRANCH   7  19
ATOM     19  N   UNL     1       5.691  -1.798  -5.013  0.00  0.00    -0.291 N 
ATOM     20  H   UNL     1       5.666  -2.573  -5.596  0.00  0.00    +0.154 HD
BRANCH  19  21
ATOM     21  C   UNL     1       6.741  -0.954  -5.058  0.00  0.00    +0.141 C 
ATOM     22  S   UNL     1       6.785   0.413  -4.029  0.00  0.00    -0.018 S 
BRANCH  21  23
ATOM     23  N   UNL     1       7.757  -1.187  -5.913  0.00  0.00    -0.264 N 
ATOM     24  C   UNL     1       8.807  -0.344  -5.958  0.00  0.00    +0.242 C 
ATOM     25  O   UNL     1       8.838   0.628  -5.226  0.00  0.00    -0.270 OA
ATOM     26  H   UNL     1       7.732  -1.962  -6.496  0.00  0.00    +0.157 HD
BRANCH  24  27
ATOM     27  C   UNL     1       9.875  -0.589  -6.856  0.00  0.00    +0.068 C 
ATOM     28  C   UNL     1      10.928   0.257  -6.901  0.00  0.00    +0.016 C 
BRANCH  28  29
ATOM     29  C   UNL     1      12.035   0.003  -7.833  0.00  0.00    +0.013 A 
ATOM     30  C   UNL     1      12.136  -1.075  -8.743  0.00  0.00    +0.142 A 
ATOM     31  N   UNL     1      13.261  -0.952  -9.392  0.00  0.00    -0.179 NA
ATOM     32  N   UNL     1      13.925   0.193  -8.937  0.00  0.00    -0.274 N 
ATOM     33  C   UNL     1      13.171   0.776  -7.989  0.00  0.00    +0.116 A 
ATOM     34  C   UNL     1      15.222   0.677  -9.416  0.00  0.00    +0.172 C 
ENDBRANCH  28  29
ENDBRANCH  24  27
ENDBRANCH  21  23
ENDBRANCH  19  21
ENDBRANCH   7  19
TORSDOF 7
