REMARK  Name = ZINC41641935
REMARK  7 active torsions:
REMARK  status: ('A' for Active; 'I' for Inactive)
REMARK    1  A    between atoms: C_1  and  C_2
REMARK    2  A    between atoms: C_2  and  C_4
REMARK    3  A    between atoms: C_2  and  N_12
REMARK    4  A    between atoms: N_12  and  C_13
REMARK    5  A    between atoms: C_13  and  C_14
REMARK    6  A    between atoms: C_14  and  S_15
REMARK    7  A    between atoms: S_15  and  N_18
REMARK                            x       y       z     vdW  Elec       q    Type
REMARK                         _______ _______ _______ _____ _____    ______ ____
ROOT
ATOM      1  N   UNL     1       0.690  -0.478  -1.207  0.00  0.00    +0.385 N 
ATOM      2  H   UNL     1       1.608  -0.063  -1.256  0.00  0.00    -0.085 HD
ATOM      3  H   UNL     1       0.776  -1.482  -1.172  0.00  0.00    -0.085 HD
ENDROOT
BRANCH   1   5
ATOM      4  C   UNL     1      -0.019   1.526   0.010  0.00  0.00    -0.009 C 
ATOM      5  C   UNL     1       0.002  -0.004   0.002  0.00  0.00    -0.043 C 
BRANCH   5   6
ATOM      6  C   UNL     1       0.731  -0.503   1.223  0.00  0.00    -0.048 A 
ATOM      7  C   UNL     1       2.077  -0.808   1.148  0.00  0.00    +0.004 A 
ATOM      8  C   UNL     1       2.746  -1.265   2.267  0.00  0.00    +0.015 A 
ATOM      9  C   UNL     1       2.069  -1.419   3.464  0.00  0.00    +0.019 A 
ATOM     10  C   UNL     1       0.722  -1.114   3.539  0.00  0.00    +0.030 A 
ATOM     11  C   UNL     1       0.054  -0.651   2.420  0.00  0.00    +0.021 A 
ATOM     12 BR   UNL     1      -1.786  -0.227   2.525  0.00  0.00    -0.050 Br
ATOM     13 BR   UNL     1       2.984  -2.045   4.995  0.00  0.00    -0.050 Br
ENDBRANCH   5   6
ENDBRANCH   1   5
BRANCH   1  14
ATOM     14  C   UNL     1      -0.086  -0.093  -2.394  0.00  0.00    -0.057 C 
BRANCH  14  15
ATOM     15  C   UNL     1       0.630  -0.587  -3.652  0.00  0.00    +0.166 C 
BRANCH  15  16
ATOM     16  S   UNL     1      -0.327  -0.112  -5.118  0.00  0.00    +0.025 S 
ATOM     17  O   UNL     1      -1.554  -0.828  -5.155  0.00  0.00    -0.158 OA
ATOM     18  O   UNL     1      -0.307   1.300  -5.279  0.00  0.00    -0.158 OA
BRANCH  16  19
ATOM     19  N   UNL     1       0.542  -0.696  -6.401  0.00  0.00    -0.208 NA
ATOM     20  H   UNL     1       1.372  -1.173  -6.248  0.00  0.00    +0.144 HD
ATOM     21  H   UNL     1       0.220  -0.560  -7.306  0.00  0.00    +0.144 HD
ENDBRANCH  16  19
ENDBRANCH  15  16
ENDBRANCH  14  15
ENDBRANCH   1  14
TORSDOF 6
