REMARK  Name = ZINC40783776
REMARK  5 active torsions:
REMARK  status: ('A' for Active; 'I' for Inactive)
REMARK    1  A    between atoms: C_1  and  C_2
REMARK    2  A    between atoms: C_5  and  C_8
REMARK    3  A    between atoms: C_8  and  N_9
REMARK    4  A    between atoms: N_9  and  C_10
REMARK    5  A    between atoms: C_11  and  N_17
REMARK                            x       y       z     vdW  Elec       q    Type
REMARK                         _______ _______ _______ _____ _____    ______ ____
ROOT
ATOM      1  C   UNL     1       1.717  -6.104  -0.041  0.00  0.00    +0.147 A 
ATOM      2  C   UNL     1       3.030  -6.555  -0.045  0.00  0.00    +0.130 A 
ATOM      3  C   UNL     1       3.259  -7.942  -0.054  0.00  0.00    +0.274 A 
ATOM      4  N   UNL     1       2.196  -8.774  -0.058  0.00  0.00    -0.312 N 
ATOM      5  C   UNL     1       0.943  -8.277  -0.054  0.00  0.00    +0.201 A 
ATOM      6  N   UNL     1       0.713  -6.993  -0.040  0.00  0.00    -0.221 NA
ATOM      7  O   UNL     1       4.397  -8.386  -0.058  0.00  0.00    -0.266 OA
ATOM      8  H   UNL     1       2.335  -9.734  -0.065  0.00  0.00    +0.170 HD
ENDROOT
BRANCH   2   9
ATOM      9  N   UNL     1       4.104  -5.646  -0.040  0.00  0.00    -0.351 N 
ATOM     10  H   UNL     1       3.933  -4.692  -0.034  0.00  0.00    +0.143 HD
ATOM     11  H   UNL     1       5.017  -5.975  -0.043  0.00  0.00    +0.143 HD
ENDBRANCH   2   9
BRANCH   1  12
ATOM     12  N   UNL     1       1.447  -4.746  -0.032  0.00  0.00    -0.323 N 
ATOM     13  H   UNL     1       2.176  -4.106  -0.032  0.00  0.00    +0.148 HD
BRANCH  12  14
ATOM     14  C   UNL     1       0.059  -4.275  -0.021  0.00  0.00    +0.138 C 
BRANCH  14  19
ATOM     15  C   UNL     1      -0.018   1.503   0.010  0.00  0.00    +0.044 C 
ATOM     16  C   UNL     1       0.002  -0.004   0.002  0.00  0.00    -0.050 A 
ATOM     17  C   UNL     1       0.006  -0.689  -1.199  0.00  0.00    +0.003 A 
ATOM     18  C   UNL     1       0.025  -2.071  -1.206  0.00  0.00    +0.005 A 
ATOM     19  C   UNL     1       0.040  -2.768  -0.013  0.00  0.00    -0.030 A 
ATOM     20  C   UNL     1       0.037  -2.084   1.188  0.00  0.00    +0.005 A 
ATOM     21  C   UNL     1       0.023  -0.702   1.195  0.00  0.00    +0.003 A 
ENDBRANCH  14  19
ENDBRANCH  12  14
ENDBRANCH   1  12
TORSDOF 4
