REMARK  Name = ZINC35640712
REMARK  14 active torsions:
REMARK  status: ('A' for Active; 'I' for Inactive)
REMARK    1  A    between atoms: C_1  and  C_2
REMARK    2  A    between atoms: C_2  and  N_3
REMARK    3  A    between atoms: C_4  and  C_26
REMARK    4  A    between atoms: C_5  and  C_21
REMARK    5  A    between atoms: C_6  and  C_11
REMARK    6  A    between atoms: C_14  and  C_17
REMARK    7  A    between atoms: C_17  and  C_18
REMARK    8  A    between atoms: C_17  and  C_19
REMARK    9  A    between atoms: C_17  and  C_20
REMARK   10  A    between atoms: C_21  and  O_23
REMARK   11  A    between atoms: O_23  and  C_24
REMARK   12  A    between atoms: C_24  and  C_25
REMARK   13  A    between atoms: C_26  and  N_27
REMARK   14  A    between atoms: C_31  and  C_34
REMARK                            x       y       z     vdW  Elec       q    Type
REMARK                         _______ _______ _______ _____ _____    ______ ____
ROOT
ATOM      1  N   UNL     1       0.743  -0.444  -1.190  0.00  0.00    -0.258 N 
ATOM      2  C   UNL     1      -0.033  -0.576  -2.306  0.00  0.00    +0.041 C 
ATOM      3  C   UNL     1       0.484  -1.045  -3.463  0.00  0.00    +0.080 C 
ATOM      4  C   UNL     1       1.952  -1.418  -3.479  0.00  0.00    +0.144 C 
ATOM      5  N   UNL     1       2.701  -1.238  -2.224  0.00  0.00    -0.288 N 
ATOM      6  C   UNL     1       2.045  -0.753  -1.151  0.00  0.00    +0.307 C 
ATOM      7  O   UNL     1       2.655  -0.597  -0.111  0.00  0.00    -0.252 OA
ATOM      8  H   UNL     1       3.644  -1.459  -2.172  0.00  0.00    +0.151 HD
ENDROOT
BRANCH   4   9
ATOM      9  C   UNL     1       2.059  -2.868  -3.879  0.00  0.00    -0.022 A 
ATOM     10  C   UNL     1       1.827  -3.860  -2.945  0.00  0.00    +0.006 A 
ATOM     11  C   UNL     1       1.925  -5.190  -3.311  0.00  0.00    +0.004 A 
ATOM     12  C   UNL     1       2.254  -5.526  -4.611  0.00  0.00    -0.042 A 
ATOM     13  C   UNL     1       2.484  -4.533  -5.545  0.00  0.00    +0.004 A 
ATOM     14  C   UNL     1       2.382  -3.204  -5.180  0.00  0.00    +0.006 A 
BRANCH  12  15
ATOM     15  C   UNL     1       2.361  -6.976  -5.010  0.00  0.00    -0.013 C 
ATOM     16  C   UNL     1       1.018  -7.670  -4.777  0.00  0.00    +0.015 C 
ATOM     17  C   UNL     1       2.734  -7.071  -6.491  0.00  0.00    +0.015 C 
ATOM     18  C   UNL     1       3.441  -7.658  -4.167  0.00  0.00    +0.015 C 
ENDBRANCH  12  15
ENDBRANCH   4   9
BRANCH   1  20
ATOM     19  C   UNL     1       0.232   1.597   0.057  0.00  0.00    +0.025 C 
ATOM     20  C   UNL     1       0.117   0.071   0.030  0.00  0.00    +0.111 C 
ENDBRANCH   1  20
BRANCH   3  21
ATOM     21  C   UNL     1      -0.319  -1.184  -4.619  0.00  0.00    +0.339 C 
ATOM     22  O   UNL     1      -0.764  -2.274  -4.924  0.00  0.00    -0.245 OA
BRANCH  21  23
ATOM     23  O   UNL     1      -0.592  -0.106  -5.384  0.00  0.00    -0.462 OA
BRANCH  23  24
ATOM     24  C   UNL     1      -1.409  -0.319  -6.537  0.00  0.00    +0.229 C 
ATOM     25  C   UNL     1      -1.607   1.008  -7.274  0.00  0.00    +0.048 C 
ENDBRANCH  23  24
ENDBRANCH  21  23
ENDBRANCH   3  21
BRANCH   2  26
ATOM     26  C   UNL     1      -1.489  -0.194  -2.246  0.00  0.00    +0.136 C 
BRANCH  26  27
ATOM     27  N   UNL     1      -2.202  -1.118  -1.354  0.00  0.00    -0.300 NA
ATOM     28  C   UNL     1      -2.226  -2.477  -1.914  0.00  0.00    +0.066 C 
ATOM     29  C   UNL     1      -2.923  -3.418  -0.929  0.00  0.00    -0.067 C 
ATOM     30  N   UNL     1      -4.293  -2.946  -0.686  0.00  0.00    +0.382 N 
ATOM     31  C   UNL     1      -4.252  -1.598  -0.105  0.00  0.00    -0.061 C 
ATOM     32  C   UNL     1      -3.565  -0.641  -1.082  0.00  0.00    +0.069 C 
ATOM     33  C   UNL     1      -5.678  -1.115   0.165  0.00  0.00    -0.012 C 
ATOM     34  H   UNL     1      -4.799  -2.920  -1.559  0.00  0.00    -0.085 HD
ATOM     35  H   UNL     1      -4.756  -3.574  -0.047  0.00  0.00    -0.085 HD
ENDBRANCH  26  27
ENDBRANCH   2  26
TORSDOF 8
