REMARK  Name = ZINC38909590
REMARK  2 active torsions:
REMARK  status: ('A' for Active; 'I' for Inactive)
REMARK    1  A    between atoms: C_8  and  C_11
REMARK    2  A    between atoms: C_13  and  C_16
REMARK                            x       y       z     vdW  Elec       q    Type
REMARK                         _______ _______ _______ _____ _____    ______ ____
ROOT
ATOM      1  C   UNL     1       7.040  -4.948  -0.086  0.00  0.00    +0.266 C 
ATOM      2  O   UNL     1       7.497  -6.068   0.041  0.00  0.00    -0.268 OA
ATOM      3  N   UNL     1       7.869  -3.889  -0.183  0.00  0.00    -0.295 N 
ATOM      4  C   UNL     1       9.319  -4.082  -0.311  0.00  0.00    +0.113 C 
ATOM      5  C   UNL     1      10.056  -3.223   0.707  0.00  0.00    +0.027 C 
ATOM      6  C   UNL     1       9.568  -1.774   0.660  0.00  0.00    +0.018 C 
ATOM      7  C   UNL     1       8.067  -1.760   0.961  0.00  0.00    +0.054 C 
ATOM      8  C   UNL     1       7.341  -2.516  -0.171  0.00  0.00    +0.117 C 
ATOM      9  C   UNL     1       7.802  -2.477   2.264  0.00  0.00    +0.027 A 
ATOM     10  C   UNL     1       6.700  -2.107   2.970  0.00  0.00    +0.022 A 
ATOM     11  C   UNL     1       6.356  -2.772   4.152  0.00  0.00    +0.007 A 
ATOM     12  C   UNL     1       7.128  -3.815   4.570  0.00  0.00    +0.070 A 
ATOM     13  C   UNL     1       8.255  -4.174   3.818  0.00  0.00    +0.251 A 
ATOM     14  O   UNL     1       8.917  -5.146   4.146  0.00  0.00    -0.268 OA
ATOM     15  N   UNL     1       8.617  -3.453   2.728  0.00  0.00    -0.312 N 
ATOM     16  C   UNL     1       9.906  -3.758   2.119  0.00  0.00    +0.130 C 
ENDROOT
BRANCH   1  19
ATOM     17  C   UNL     1       3.760  -3.428  -0.475  0.00  0.00    +0.125 A 
ATOM     18  N   UNL     1       5.076  -3.563  -0.446  0.00  0.00    -0.233 NA
ATOM     19  C   UNL     1       5.582  -4.747  -0.131  0.00  0.00    +0.133 A 
ATOM     20  C   UNL     1       4.729  -5.782   0.152  0.00  0.00    +0.080 A 
ATOM     21  S   UNL     1       3.216  -5.067  -0.025  0.00  0.00    -0.073 S 
BRANCH  17  29
ATOM     22  C   UNL     1      -0.018   1.156  -1.681  0.00  0.00    +0.001 A 
ATOM     23  C   UNL     1       1.168   1.850  -1.880  0.00  0.00    +0.002 A 
ATOM     24  C   UNL     1       2.385   1.223  -1.722  0.00  0.00    +0.026 A 
ATOM     25  C   UNL     1       2.430  -0.119  -1.359  0.00  0.00    +0.047 A 
ATOM     26  C   UNL     1       1.224  -0.819  -1.157  0.00  0.00    +0.000 A 
ATOM     27  C   UNL     1       0.001  -0.162  -1.324  0.00  0.00    +0.010 A 
ATOM     28  C   UNL     1       1.598  -2.183  -0.791  0.00  0.00    +0.038 A 
ATOM     29  C   UNL     1       2.955  -2.236  -0.790  0.00  0.00    +0.073 A 
ATOM     30  N   UNL     1       3.463  -1.001  -1.130  0.00  0.00    -0.353 N 
ATOM     31  H   UNL     1       4.406  -0.785  -1.199  0.00  0.00    +0.166 HD
ENDBRANCH  17  29
ENDBRANCH   1  19
TORSDOF 2
