REMARK  Name = ZINC35696861
REMARK  5 active torsions:
REMARK  status: ('A' for Active; 'I' for Inactive)
REMARK    1  A    between atoms: C_1  and  C_2
REMARK    2  A    between atoms: C_7  and  C_8
REMARK    3  A    between atoms: C_8  and  C_9
REMARK    4  A    between atoms: C_11  and  C_14
REMARK    5  A    between atoms: C_17  and  N_20
REMARK                            x       y       z     vdW  Elec       q    Type
REMARK                         _______ _______ _______ _____ _____    ______ ____
ROOT
ATOM      1  C   UNL     1      -1.391   0.382   2.893  0.00  0.00    +0.232 A 
ATOM      2  N   UNL     1      -2.179  -0.361   3.616  0.00  0.00    -0.191 NA
ATOM      3  C   UNL     1      -3.371   0.244   3.768  0.00  0.00    +0.202 A 
ATOM      4  N   UNL     1      -3.343   1.390   3.133  0.00  0.00    -0.056 NA
ATOM      5  O   UNL     1      -2.050   1.499   2.558  0.00  0.00    -0.337 OA
ENDROOT
BRANCH   3   6
ATOM      6  C   UNL     1      -4.525  -0.296   4.528  0.00  0.00    +0.023 A 
ATOM      7  C   UNL     1      -4.424  -1.532   5.166  0.00  0.00    +0.013 A 
ATOM      8  C   UNL     1      -5.497  -2.031   5.872  0.00  0.00    +0.023 A 
ATOM      9  C   UNL     1      -6.680  -1.304   5.948  0.00  0.00    +0.025 A 
ATOM     10  C   UNL     1      -6.783  -0.072   5.312  0.00  0.00    +0.023 A 
ATOM     11  C   UNL     1      -5.710   0.434   4.610  0.00  0.00    +0.013 A 
BRANCH   9  12
ATOM     12  N   UNL     1      -7.764  -1.812   6.662  0.00  0.00    -0.358 N 
ATOM     13  H   UNL     1      -7.693  -2.672   7.106  0.00  0.00    +0.142 HD
ATOM     14  H   UNL     1      -8.590  -1.306   6.716  0.00  0.00    +0.142 HD
ENDBRANCH   9  12
ENDBRANCH   3   6
BRANCH   1  15
ATOM     15  C   UNL     1       0.025   0.045   2.504  0.00  0.00    +0.134 C 
BRANCH  15  22
ATOM     16  C   UNL     1      -0.018   1.503   0.010  0.00  0.00    +0.044 C 
ATOM     17  C   UNL     1       0.002  -0.004   0.002  0.00  0.00    -0.047 A 
ATOM     18  C   UNL     1       0.006  -0.689  -1.199  0.00  0.00    +0.003 A 
ATOM     19  C   UNL     1       0.025  -2.071  -1.207  0.00  0.00    +0.000 A 
ATOM     20  C   UNL     1       0.040  -2.768  -0.013  0.00  0.00    +0.000 A 
ATOM     21  C   UNL     1       0.037  -2.084   1.188  0.00  0.00    +0.004 A 
ATOM     22  C   UNL     1       0.023  -0.702   1.195  0.00  0.00    -0.035 A 
ENDBRANCH  15  22
ENDBRANCH   1  15
TORSDOF 4
