REMARK  Name = ZINC10474309
REMARK  12 active torsions:
REMARK  status: ('A' for Active; 'I' for Inactive)
REMARK    1  A    between atoms: C_1  and  C_2
REMARK    2  A    between atoms: C_2  and  CA_3
REMARK    3  A    between atoms: CA_3  and  C_5
REMARK    4  A    between atoms: CA_3  and  N_47
REMARK    5  A    between atoms: C_5  and  O_6
REMARK    6  A    between atoms: C_7  and  C_8
REMARK    7  A    between atoms: C_7  and  N_47
REMARK    8  A    between atoms: C_12  and  O_22
REMARK    9  A    between atoms: C_13  and  O_14
REMARK   10  A    between atoms: O_14  and  C_15
REMARK   11  A    between atoms: C_15  and  C_16
REMARK   12  A    between atoms: O_22  and  C_23
REMARK                            x       y       z     vdW  Elec       q    Type
REMARK                         _______ _______ _______ _____ _____    ______ ____
ROOT
ATOM      1  C   UNL     1      -2.045   4.438   2.779  0.00  0.00    -0.018 A 
ATOM      2  C   UNL     1      -1.944   5.258   1.671  0.00  0.00    +0.020 A 
ATOM      3  C   UNL     1      -1.453   4.759   0.479  0.00  0.00    +0.022 A 
ATOM      4  C   UNL     1      -1.060   3.435   0.390  0.00  0.00    +0.064 A 
ATOM      5  C   UNL     1      -1.157   2.608   1.497  0.00  0.00    +0.163 A 
ATOM      6  C   UNL     1      -1.657   3.111   2.696  0.00  0.00    +0.164 A 
ATOM      7 BR   UNL     1      -1.319   5.886  -1.034  0.00  0.00    -0.050 Br
ENDROOT
BRANCH   5   8
ATOM      8  O   UNL     1      -0.772   1.307   1.412  0.00  0.00    -0.491 OA
ATOM      9  C   UNL     1      -0.274   0.859   0.150  0.00  0.00    +0.277 C 
ENDBRANCH   5   8
BRANCH   1  10
ATOM     10  C   UNL     1      -2.580   4.986   4.077  0.00  0.00    -0.042 C 
BRANCH  10  11
ATOM     11  N   UNL     1      -1.451   5.297   4.973  0.00  0.00    +0.385 N 
ATOM     12  H1  UNL     1      -0.979   4.425   5.238  0.00  0.00    -0.085 HD
ATOM     13  H2  UNL     1      -0.788   5.909   4.483  0.00  0.00    -0.085 HD
BRANCH  11  14
ATOM     14  CA  UNL     1      -1.934   5.978   6.189  0.00  0.00    -0.046 C 
BRANCH  14  16
ATOM     15  C   UNL     1      -2.693   7.985   4.909  0.00  0.00    +0.002 C 
ATOM     16  C   UNL     1      -1.770   7.490   6.024  0.00  0.00    -0.017 C 
ENDBRANCH  14  16
BRANCH  14  17
ATOM     17  C   UNL     1      -1.114   5.504   7.391  0.00  0.00    +0.140 C 
BRANCH  17  18
ATOM     18  O   UNL     1       0.245   5.916   7.232  0.00  0.00    -0.397 OA
ATOM     19  H   UNL     1       0.824   5.649   7.960  0.00  0.00    +0.209 HD
ENDBRANCH  17  18
ENDBRANCH  14  17
ENDBRANCH  11  14
ENDBRANCH  10  11
ENDBRANCH   1  10
BRANCH   6  20
ATOM     20  O   UNL     1      -1.760   2.301   3.783  0.00  0.00    -0.484 OA
BRANCH  20  21
ATOM     21  C   UNL     1      -0.631   2.241   4.657  0.00  0.00    +0.264 C 
BRANCH  21  22
ATOM     22  C   UNL     1      -0.927   1.301   5.797  0.00  0.00    -0.010 A 
ATOM     23  C   UNL     1      -1.502   1.782   6.958  0.00  0.00    +0.007 A 
ATOM     24  C   UNL     1      -1.778   0.919   8.002  0.00  0.00    +0.000 A 
ATOM     25  C   UNL     1      -1.470  -0.424   7.889  0.00  0.00    +0.000 A 
ATOM     26  C   UNL     1      -0.890  -0.904   6.729  0.00  0.00    +0.000 A 
ATOM     27  C   UNL     1      -0.619  -0.042   5.684  0.00  0.00    +0.007 A 
ENDBRANCH  21  22
ENDBRANCH  20  21
ENDBRANCH   6  20
TORSDOF 10
