REMARK  Name = ZINC61844929
REMARK  8 active torsions:
REMARK  status: ('A' for Active; 'I' for Inactive)
REMARK    1  A    between atoms: C_1  and  C_2
REMARK    2  A    between atoms: C_3  and  C_20
REMARK    3  A    between atoms: C_4  and  C_19
REMARK    4  A    between atoms: C_5  and  S_10
REMARK    5  A    between atoms: C_6  and  C_9
REMARK    6  A    between atoms: C_7  and  C_8
REMARK    7  A    between atoms: S_10  and  N_13
REMARK    8  A    between atoms: N_13  and  C_14
REMARK                            x       y       z     vdW  Elec       q    Type
REMARK                         _______ _______ _______ _____ _____    ______ ____
ROOT
ATOM      1  C   UNL     1      -1.002   1.306   0.220  0.00  0.00    +0.044 C 
ATOM      2  C   UNL     1      -0.468  -0.098   0.102  0.00  0.00    -0.044 A 
ATOM      3  C   UNL     1      -0.121  -0.604  -1.136  0.00  0.00    -0.043 A 
ATOM      4  C   UNL     1       0.369  -1.892  -1.244  0.00  0.00    -0.020 A 
ATOM      5  C   UNL     1       0.511  -2.675  -0.114  0.00  0.00    +0.117 A 
ATOM      6  C   UNL     1       0.164  -2.169   1.125  0.00  0.00    -0.020 A 
ATOM      7  C   UNL     1      -0.322  -0.879   1.234  0.00  0.00    -0.043 A 
ATOM      8  C   UNL     1      -0.695  -0.326   2.585  0.00  0.00    +0.044 C 
ATOM      9  C   UNL     1       0.318  -3.022   2.357  0.00  0.00    +0.046 C 
ATOM     10  C   UNL     1       0.747  -2.444  -2.595  0.00  0.00    +0.046 C 
ATOM     11  C   UNL     1      -0.275   0.249  -2.369  0.00  0.00    +0.044 C 
ENDROOT
BRANCH   5  12
ATOM     12  S   UNL     1       1.133  -4.317  -0.252  0.00  0.00    +0.095 S 
ATOM     13  O   UNL     1       1.890  -4.365  -1.454  0.00  0.00    -0.148 OA
ATOM     14  O   UNL     1       1.690  -4.648   1.013  0.00  0.00    -0.148 OA
BRANCH  12  15
ATOM     15  N   UNL     1      -0.168  -5.317  -0.472  0.00  0.00    -0.058 NA
BRANCH  15  16
ATOM     16  C   UNL     1       0.023  -6.683  -0.614  0.00  0.00    +0.256 A 
ATOM     17  N   UNL     1      -0.947  -7.622  -0.806  0.00  0.00    -0.313 N 
ATOM     18  C   UNL     1      -0.293  -8.820  -0.888  0.00  0.00    +0.223 A 
ATOM     19  N   UNL     1       0.980  -8.576  -0.750  0.00  0.00    -0.136 NA
ATOM     20  N   UNL     1       1.173  -7.315  -0.593  0.00  0.00    -0.110 NA
ATOM     21  H   UNL     1      -1.903  -7.472  -0.870  0.00  0.00    +0.170 HD
ENDBRANCH  15  16
ENDBRANCH  12  15
ENDBRANCH   5  12
TORSDOF 3
