REMARK  Name = ZINC54036974
REMARK  7 active torsions:
REMARK  status: ('A' for Active; 'I' for Inactive)
REMARK    1  A    between atoms: C_1  and  C_2
REMARK    2  A    between atoms: C_2  and  C_4
REMARK    3  A    between atoms: C_2  and  O_23
REMARK    4  A    between atoms: N_6  and  N_7
REMARK    5  A    between atoms: N_10  and  C_11
REMARK    6  A    between atoms: C_11  and  C_12
REMARK    7  A    between atoms: O_23  and  C_24
REMARK                            x       y       z     vdW  Elec       q    Type
REMARK                         _______ _______ _______ _____ _____    ______ ____
ROOT
ATOM      1  N   UNL     1       0.983  -1.123  -3.560  0.00  0.00    -0.218 N 
ATOM      2  C   UNL     1       0.451  -1.084  -4.798  0.00  0.00    +0.316 C 
ATOM      3  O   UNL     1       1.099  -1.474  -5.750  0.00  0.00    -0.251 OA
ATOM      4  N   UNL     1      -0.798  -0.613  -4.981  0.00  0.00    -0.295 N 
ATOM      5  H   UNL     1       1.882  -1.462  -3.429  0.00  0.00    +0.174 HD
ATOM      6  H   UNL     1      -1.315  -0.301  -4.221  0.00  0.00    +0.150 HD
ENDROOT
BRANCH   1   9
ATOM      7  C   UNL     1       0.768  -0.712  -1.225  0.00  0.00    +0.270 C 
ATOM      8  O   UNL     1       1.893  -1.136  -1.061  0.00  0.00    -0.270 OA
ATOM      9  N   UNL     1       0.237  -0.673  -2.463  0.00  0.00    -0.230 N 
ATOM     10  H   UNL     1      -0.662  -0.334  -2.594  0.00  0.00    +0.173 HD
BRANCH   7  12
ATOM     11  C   UNL     1      -0.292   1.273  -0.184  0.00  0.00    +0.062 C 
ATOM     12  C   UNL     1      -0.034  -0.229  -0.045  0.00  0.00    +0.257 C 
BRANCH  12  13
ATOM     13  O   UNL     1       0.693  -0.477   1.160  0.00  0.00    -0.480 OA
BRANCH  13  14
ATOM     14  C   UNL     1      -0.031  -0.600   2.304  0.00  0.00    +0.122 A 
ATOM     15  C   UNL     1      -1.400  -0.376   2.286  0.00  0.00    +0.048 A 
ATOM     16  C   UNL     1      -2.134  -0.501   3.450  0.00  0.00    +0.042 A 
ATOM     17  C   UNL     1      -1.505  -0.848   4.633  0.00  0.00    +0.124 A 
ATOM     18  C   UNL     1      -0.138  -1.071   4.652  0.00  0.00    +0.042 A 
ATOM     19  C   UNL     1       0.598  -0.954   3.489  0.00  0.00    +0.048 A 
ATOM     20  F   UNL     1      -2.224  -0.969   5.770  0.00  0.00    -0.205 F 
ENDBRANCH  13  14
ENDBRANCH  12  13
ENDBRANCH   7  12
ENDBRANCH   1   9
BRANCH   4  21
ATOM     21  C   UNL     1      -1.376  -0.570  -6.326  0.00  0.00    +0.153 C 
BRANCH  21  22
ATOM     22  C   UNL     1      -2.793   0.003  -6.255  0.00  0.00    +0.228 C 
ATOM     23  C   UNL     1      -3.444  -0.053  -7.643  0.00  0.00    +0.275 C 
ATOM     24  O   UNL     1      -4.760   0.503  -7.544  0.00  0.00    -0.485 OA
ATOM     25  C   UNL     1      -4.879   1.676  -6.864  0.00  0.00    +0.162 A 
ATOM     26  C   UNL     1      -6.020   2.446  -7.030  0.00  0.00    +0.049 A 
ATOM     27  C   UNL     1      -6.157   3.638  -6.344  0.00  0.00    +0.004 A 
ATOM     28  C   UNL     1      -5.157   4.066  -5.491  0.00  0.00    +0.004 A 
ATOM     29  C   UNL     1      -4.016   3.304  -5.322  0.00  0.00    +0.049 A 
ATOM     30  C   UNL     1      -3.872   2.107  -6.009  0.00  0.00    +0.163 A 
ATOM     31  O   UNL     1      -2.740   1.371  -5.838  0.00  0.00    -0.480 OA
ENDBRANCH  21  22
ENDBRANCH   4  21
TORSDOF 6
