REMARK  Name = ZINC49489762
REMARK  10 active torsions:
REMARK  status: ('A' for Active; 'I' for Inactive)
REMARK    1  A    between atoms: C_1  and  N_2
REMARK    2  A    between atoms: N_2  and  C_3
REMARK    3  A    between atoms: N_2  and  C_4
REMARK    4  A    between atoms: C_4  and  C_6
REMARK    5  A    between atoms: C_4  and  C_31
REMARK    6  A    between atoms: C_6  and  N_7
REMARK    7  A    between atoms: C_8  and  C_10
REMARK    8  A    between atoms: N_12  and  C_13
REMARK    9  A    between atoms: N_19  and  S_23
REMARK   10  A    between atoms: S_23  and  C_26
REMARK                            x       y       z     vdW  Elec       q    Type
REMARK                         _______ _______ _______ _____ _____    ______ ____
ROOT
ATOM      1  C   UNL     1       2.800   3.943  -1.302  0.00  0.00    +0.303 C 
ATOM      2  O   UNL     1       1.804   4.625  -1.178  0.00  0.00    -0.265 OA
ATOM      3  N   UNL     1       3.989   4.401  -0.864  0.00  0.00    -0.278 N 
ATOM      4  H   UNL     1       4.797   3.891  -1.031  0.00  0.00    +0.155 HD
ENDROOT
BRANCH   3   5
ATOM      5  C   UNL     1       4.059   5.611  -0.168  0.00  0.00    +0.036 A 
ATOM      6  C   UNL     1       3.019   5.993   0.672  0.00  0.00    +0.024 A 
ATOM      7  C   UNL     1       3.088   7.189   1.357  0.00  0.00    +0.007 A 
ATOM      8  C   UNL     1       4.190   8.017   1.214  0.00  0.00    -0.025 A 
ATOM      9  C   UNL     1       5.231   7.637   0.380  0.00  0.00    +0.056 A 
ATOM     10  C   UNL     1       5.167   6.433  -0.309  0.00  0.00    +0.048 A 
ATOM     11  N   UNL     1       6.359   8.450   0.225  0.00  0.00    -0.202 N 
ATOM     12  C   UNL     1       6.308   9.836   0.709  0.00  0.00    +0.132 C 
ATOM     13  C   UNL     1       5.662   9.823   2.101  0.00  0.00    +0.025 C 
ATOM     14  C   UNL     1       4.226   9.317   1.974  0.00  0.00    +0.038 C 
BRANCH  11  15
ATOM     15  S   UNL     1       7.730   7.859  -0.491  0.00  0.00    +0.081 S 
ATOM     16  O   UNL     1       8.777   8.767  -0.176  0.00  0.00    -0.149 OA
ATOM     17  O   UNL     1       7.796   6.478  -0.164  0.00  0.00    -0.149 OA
BRANCH  15  18
ATOM     18  C   UNL     1       7.490   7.953  -2.234  0.00  0.00    +0.146 A 
ATOM     19  C   UNL     1       7.793   8.964  -3.084  0.00  0.00    +0.036 A 
ATOM     20  C   UNL     1       7.512   8.816  -4.429  0.00  0.00    +0.010 A 
ATOM     21  C   UNL     1       6.941   7.664  -4.859  0.00  0.00    +0.047 A 
ATOM     22  S   UNL     1       6.791   6.738  -3.340  0.00  0.00    -0.077 S 
ENDBRANCH  15  18
ENDBRANCH  11  15
ENDBRANCH   3   5
BRANCH   1  24
ATOM     23  N   UNL     1       1.518   2.137  -2.377  0.00  0.00    -0.309 N 
ATOM     24  C   UNL     1       2.708   2.595  -1.939  0.00  0.00    +0.299 C 
ATOM     25  O   UNL     1       3.704   1.913  -2.062  0.00  0.00    -0.265 OA
ATOM     26  H   UNL     1       0.722   2.682  -2.278  0.00  0.00    +0.149 HD
BRANCH  23  27
ATOM     27  C   UNL     1       1.428   0.815  -3.002  0.00  0.00    +0.097 C 
BRANCH  27  28
ATOM     28  C   UNL     1      -0.038   0.489  -3.296  0.00  0.00    +0.016 C 
BRANCH  28  29
ATOM     29  C   UNL     1      -0.792   0.352  -1.998  0.00  0.00    +0.093 A 
ATOM     30  C   UNL     1      -1.111  -0.806  -1.392  0.00  0.00    +0.043 A 
ATOM     31  C   UNL     1      -1.811  -0.470  -0.210  0.00  0.00    +0.041 A 
ATOM     32  C   UNL     1      -1.879   0.872  -0.165  0.00  0.00    +0.195 A 
ATOM     33  O   UNL     1      -1.254   1.365  -1.248  0.00  0.00    -0.469 OA
ENDBRANCH  28  29
BRANCH  28  35
ATOM     34  C   UNL     1       0.047   1.646  -5.395  0.00  0.00    -0.096 C 
ATOM     35  N   UNL     1      -0.630   1.571  -4.094  0.00  0.00    +0.384 N 
ATOM     36  C   UNL     1      -2.059   1.302  -4.300  0.00  0.00    -0.096 C 
ATOM     37  H   UNL     1      -0.520   2.447  -3.607  0.00  0.00    -0.082 HD
ENDBRANCH  28  35
ENDBRANCH  27  28
ENDBRANCH  23  27
ENDBRANCH   1  24
TORSDOF 8
