REMARK  Name = ZINC38654875
REMARK  11 active torsions:
REMARK  status: ('A' for Active; 'I' for Inactive)
REMARK    1  A    between atoms: C_1  and  C_2
REMARK    2  A    between atoms: C_4  and  C_36
REMARK    3  A    between atoms: C_6  and  O_8
REMARK    4  A    between atoms: O_8  and  C_9
REMARK    5  A    between atoms: C_9  and  C_10
REMARK    6  A    between atoms: C_10  and  O_12
REMARK    7  A    between atoms: O_12  and  C_13
REMARK    8  A    between atoms: C_20  and  N_35
REMARK    9  A    between atoms: C_21  and  C_33
REMARK   10  A    between atoms: C_22  and  C_24
REMARK   11  A    between atoms: C_27  and  N_30
REMARK                            x       y       z     vdW  Elec       q    Type
REMARK                         _______ _______ _______ _____ _____    ______ ____
ROOT
ATOM      1  C   UNL     1       0.045  -3.221   7.098  0.00  0.00    +0.135 A 
ATOM      2  C   UNL     1       0.107  -4.601   6.962  0.00  0.00    +0.047 A 
ATOM      3  C   UNL     1       0.088  -5.407   8.084  0.00  0.00    +0.012 A 
ATOM      4  C   UNL     1       0.009  -4.844   9.345  0.00  0.00    +0.008 A 
ATOM      5  C   UNL     1      -0.052  -3.466   9.487  0.00  0.00    +0.138 A 
ATOM      6  C   UNL     1      -0.028  -2.654   8.360  0.00  0.00    +0.093 A 
ATOM      7  O   UNL     1      -0.130  -2.896  10.715  0.00  0.00    -0.441 OA
ATOM      8  C   UNL     1      -0.532  -3.626  11.768  0.00  0.00    +0.199 C 
ATOM      9  C   UNL     1      -0.500  -4.980  11.756  0.00  0.00    +0.098 C 
ATOM     10  C   UNL     1      -0.010  -5.739  10.556  0.00  0.00    +0.098 C 
ENDROOT
BRANCH  10  11
ATOM     11  C   UNL     1       1.384  -6.248  10.822  0.00  0.00    -0.035 A 
ATOM     12  C   UNL     1       2.407  -5.356  11.085  0.00  0.00    +0.007 A 
ATOM     13  C   UNL     1       3.685  -5.823  11.329  0.00  0.00    +0.033 A 
ATOM     14  C   UNL     1       3.940  -7.182  11.310  0.00  0.00    +0.126 A 
ATOM     15  C   UNL     1       2.917  -8.073  11.047  0.00  0.00    +0.033 A 
ATOM     16  C   UNL     1       1.638  -7.607  10.807  0.00  0.00    +0.007 A 
BRANCH  14  17
ATOM     17  N   UNL     1       5.309  -7.682  11.570  0.00  0.00    +0.056 N 
ATOM     18  O   UNL     1       6.204  -6.902  11.799  0.00  0.00    -0.126 OA
ATOM     19  O   UNL     1       5.532  -8.870  11.553  0.00  0.00    -0.126 OA
ENDBRANCH  14  17
ENDBRANCH  10  11
BRANCH   8  20
ATOM     20  N   UNL     1      -0.988  -2.981  12.891  0.00  0.00    -0.328 N 
ATOM     21  H   UNL     1      -1.016  -2.012  12.915  0.00  0.00    +0.145 HD
ATOM     22  H   UNL     1      -1.281  -3.494  13.660  0.00  0.00    +0.145 HD
ENDBRANCH   8  20
BRANCH   9  23
ATOM     23  C   UNL     1      -0.942  -5.703  12.911  0.00  0.00    +0.101 C 
ATOM     24  N   UNL     1      -1.292  -6.276  13.827  0.00  0.00    -0.191 NA
ENDBRANCH   9  23
BRANCH   1  25
ATOM     25  O   UNL     1       0.063  -2.427   5.995  0.00  0.00    -0.423 OA
BRANCH  25  26
ATOM     26  C   UNL     1      -1.067  -2.318   5.279  0.00  0.00    +0.350 C 
ATOM     27  O   UNL     1      -2.033  -2.983   5.569  0.00  0.00    -0.247 OA
BRANCH  26  28
ATOM     28  C   UNL     1      -1.131  -1.364   4.114  0.00  0.00    +0.349 C 
BRANCH  28  29
ATOM     29  O   UNL     1      -2.428  -1.428   3.517  0.00  0.00    -0.481 OA
BRANCH  29  35
ATOM     30  C   UNL     1      -0.789   1.931   0.378  0.00  0.00    +0.044 C 
ATOM     31  C   UNL     1      -1.881   1.026   0.887  0.00  0.00    -0.047 A 
ATOM     32  C   UNL     1      -3.115   1.012   0.263  0.00  0.00    +0.007 A 
ATOM     33  C   UNL     1      -4.118   0.183   0.727  0.00  0.00    -0.047 A 
ATOM     34  C   UNL     1      -3.891  -0.636   1.817  0.00  0.00    +0.049 A 
ATOM     35  C   UNL     1      -2.654  -0.624   2.445  0.00  0.00    +0.122 A 
ATOM     36  C   UNL     1      -1.647   0.205   1.974  0.00  0.00    +0.049 A 
ATOM     37  C   UNL     1      -5.462   0.171   0.044  0.00  0.00    +0.044 C 
ENDBRANCH  29  35
ENDBRANCH  28  29
ENDBRANCH  26  28
ENDBRANCH  25  26
ENDBRANCH   1  25
TORSDOF 9
