REMARK  Name = ZINC42039300
REMARK  5 active torsions:
REMARK  status: ('A' for Active; 'I' for Inactive)
REMARK    1  A    between atoms: C_1  and  C_2
REMARK    2  A    between atoms: C_6  and  C_9
REMARK    3  A    between atoms: C_7  and  N_8
REMARK    4  A    between atoms: C_12  and  C_20
REMARK    5  A    between atoms: N_13  and  C_14
REMARK                            x       y       z     vdW  Elec       q    Type
REMARK                         _______ _______ _______ _____ _____    ______ ____
ROOT
ATOM      1  C   UNL     1       0.220  -2.872   2.461  0.00  0.00    +0.166 A 
ATOM      2  N   UNL     1       0.295  -2.380   3.679  0.00  0.00    -0.129 NA
ATOM      3  N   UNL     1       0.066  -3.309   4.537  0.00  0.00    -0.134 NA
ATOM      4  C   UNL     1      -0.167  -4.438   3.924  0.00  0.00    +0.131 A 
ATOM      5  N   UNL     1      -0.084  -4.201   2.586  0.00  0.00    -0.308 N 
ATOM      6  C   UNL     1      -0.477  -5.760   4.578  0.00  0.00    +0.088 C 
ENDROOT
BRANCH   1  12
ATOM      7  C   UNL     1       0.977   1.442   0.044  0.00  0.00    +0.045 C 
ATOM      8  C   UNL     1       0.784  -0.052   0.029  0.00  0.00    -0.029 A 
ATOM      9  C   UNL     1       0.792  -0.737  -1.171  0.00  0.00    +0.005 A 
ATOM     10  C   UNL     1       0.616  -2.109  -1.195  0.00  0.00    +0.001 A 
ATOM     11  C   UNL     1       0.429  -2.808  -0.019  0.00  0.00    +0.013 A 
ATOM     12  C   UNL     1       0.419  -2.129   1.199  0.00  0.00    +0.040 A 
ATOM     13  C   UNL     1       0.603  -0.740   1.220  0.00  0.00    +0.038 A 
BRANCH  13  14
ATOM     14  N   UNL     1       0.599  -0.051   2.432  0.00  0.00    -0.357 N 
ATOM     15  H   UNL     1       0.723   0.911   2.444  0.00  0.00    +0.142 HD
ATOM     16  H   UNL     1       0.473  -0.534   3.264  0.00  0.00    +0.142 HD
ENDBRANCH  13  14
ENDBRANCH   1  12
BRANCH   5  17
ATOM     17  C   UNL     1      -0.276  -5.169   1.502  0.00  0.00    +0.090 C 
ATOM     18  C   UNL     1      -0.357  -6.580   2.088  0.00  0.00    +0.025 C 
ATOM     19  C   UNL     1      -0.557  -7.590   0.957  0.00  0.00    +0.002 C 
ATOM     20  C   UNL     1      -1.855  -7.272   0.212  0.00  0.00    +0.000 C 
ATOM     21  C   UNL     1      -1.774  -5.861  -0.373  0.00  0.00    +0.002 C 
ATOM     22  C   UNL     1      -1.573  -4.850   0.758  0.00  0.00    +0.025 C 
ENDBRANCH   5  17
TORSDOF 3
