REMARK  Name = ZINC38833630
REMARK  10 active torsions:
REMARK  status: ('A' for Active; 'I' for Inactive)
REMARK    1  A    between atoms: C_1  and  C_2
REMARK    2  A    between atoms: C_5  and  N_9
REMARK    3  A    between atoms: C_7  and  C_8
REMARK    4  A    between atoms: C_10  and  C_12
REMARK    5  A    between atoms: N_15  and  S_27
REMARK    6  A    between atoms: C_18  and  C_23
REMARK    7  A    between atoms: C_23  and  C_24
REMARK    8  A    between atoms: C_23  and  C_25
REMARK    9  A    between atoms: C_23  and  C_26
REMARK   10  A    between atoms: S_27  and  C_30
REMARK                            x       y       z     vdW  Elec       q    Type
REMARK                         _______ _______ _______ _____ _____    ______ ____
ROOT
ATOM      1  C   UNL     1      -0.385  -6.515  -1.213  0.00  0.00    +0.278 C 
ATOM      2  C   UNL     1       0.931  -6.948  -0.549  0.00  0.00    +0.185 C 
ATOM      3  N   UNL     1       1.054  -8.406  -0.713  0.00  0.00    -0.200 N 
ATOM      4  C   UNL     1       0.703  -8.955  -1.957  0.00  0.00    +0.093 A 
ATOM      5  C   UNL     1       1.062 -10.257  -2.267  0.00  0.00    +0.032 A 
ATOM      6  C   UNL     1       0.712 -10.794  -3.492  0.00  0.00    -0.040 A 
ATOM      7  C   UNL     1       0.005 -10.034  -4.405  0.00  0.00    +0.008 A 
ATOM      8  C   UNL     1      -0.354  -8.735  -4.101  0.00  0.00    +0.048 A 
ATOM      9  C   UNL     1      -0.006  -8.187  -2.876  0.00  0.00    +0.144 A 
ATOM     10  O   UNL     1      -0.359  -6.905  -2.588  0.00  0.00    -0.476 OA
ENDROOT
BRANCH   1  12
ATOM     11  N   UNL     1      -0.675  -4.433   0.091  0.00  0.00    -0.282 N 
ATOM     12  C   UNL     1      -0.532  -5.019  -1.115  0.00  0.00    +0.260 C 
ATOM     13  O   UNL     1      -0.522  -4.341  -2.121  0.00  0.00    -0.271 OA
ATOM     14  H   UNL     1      -0.606  -4.965   0.899  0.00  0.00    +0.155 HD
BRANCH  11  19
ATOM     15  C   UNL     1      -1.679   1.139   0.437  0.00  0.00    +0.044 C 
ATOM     16  C   UNL     1      -1.413  -0.341   0.345  0.00  0.00    -0.047 A 
ATOM     17  C   UNL     1      -1.911  -1.067  -0.721  0.00  0.00    +0.005 A 
ATOM     18  C   UNL     1      -1.668  -2.424  -0.808  0.00  0.00    +0.023 A 
ATOM     19  C   UNL     1      -0.922  -3.059   0.176  0.00  0.00    +0.034 A 
ATOM     20  C   UNL     1      -0.422  -2.327   1.245  0.00  0.00    +0.027 A 
ATOM     21  C   UNL     1      -0.665  -0.969   1.324  0.00  0.00    -0.046 A 
ATOM     22  C   UNL     1      -0.118  -0.173   2.481  0.00  0.00    +0.044 C 
ENDBRANCH  11  19
ENDBRANCH   1  12
BRANCH   6  23
ATOM     23  C   UNL     1       1.101 -12.210  -3.832  0.00  0.00    -0.013 C 
ATOM     24  C   UNL     1       0.478 -13.169  -2.816  0.00  0.00    +0.015 C 
ATOM     25  C   UNL     1       0.597 -12.555  -5.235  0.00  0.00    +0.015 C 
ATOM     26  C   UNL     1       2.625 -12.344  -3.791  0.00  0.00    +0.015 C 
ENDBRANCH   6  23
BRANCH   3  27
ATOM     27  S   UNL     1       1.587  -9.366   0.527  0.00  0.00    +0.043 S 
ATOM     28  O   UNL     1       1.407  -8.580   1.697  0.00  0.00    -0.155 OA
ATOM     29  O   UNL     1       0.888 -10.592   0.363  0.00  0.00    -0.155 OA
ATOM     30  C   UNL     1       3.356  -9.607   0.202  0.00  0.00    +0.218 C 
ENDBRANCH   3  27
TORSDOF 4
