REMARK  Name = ZINC52015720
REMARK  6 active torsions:
REMARK  status: ('A' for Active; 'I' for Inactive)
REMARK    1  A    between atoms: C_3  and  N_23
REMARK    2  A    between atoms: C_4  and  S_10
REMARK    3  A    between atoms: C_6  and  N_7
REMARK    4  A    between atoms: S_10  and  N_13
REMARK    5  A    between atoms: N_13  and  C_14
REMARK    6  A    between atoms: C_20  and  O_22
REMARK                            x       y       z     vdW  Elec       q    Type
REMARK                         _______ _______ _______ _____ _____    ______ ____
ROOT
ATOM      1  S   UNL     1       3.895  -0.846  -0.214  0.00  0.00    +0.061 S 
ATOM      2  O   UNL     1       4.685  -0.423   0.889  0.00  0.00    -0.153 OA
ATOM      3  O   UNL     1       3.409  -2.175  -0.338  0.00  0.00    -0.153 OA
ENDROOT
BRANCH   1   7
ATOM      4  C   UNL     1       0.271   1.872  -0.328  0.00  0.00    +0.034 A 
ATOM      5  C   UNL     1       0.427   0.897  -1.294  0.00  0.00    +0.027 A 
ATOM      6  C   UNL     1       1.536   0.062  -1.263  0.00  0.00    +0.051 A 
ATOM      7  C   UNL     1       2.486   0.211  -0.259  0.00  0.00    +0.128 A 
ATOM      8  C   UNL     1       2.324   1.188   0.703  0.00  0.00    +0.063 A 
ATOM      9  C   UNL     1       1.218   2.018   0.669  0.00  0.00    +0.128 A 
BRANCH   9  10
ATOM     10  N   UNL     1       1.047   3.064   1.702  0.00  0.00    +0.056 N 
ATOM     11  O   UNL     1       0.081   3.790   1.673  0.00  0.00    -0.126 OA
ATOM     12  O   UNL     1       1.874   3.192   2.575  0.00  0.00    -0.126 OA
ENDBRANCH   9  10
BRANCH   6  13
ATOM     13  N   UNL     1       1.697  -0.925  -2.237  0.00  0.00    -0.356 N 
ATOM     14  H   UNL     1       0.995  -1.084  -2.887  0.00  0.00    +0.142 HD
ATOM     15  H   UNL     1       2.511  -1.452  -2.264  0.00  0.00    +0.142 HD
ENDBRANCH   6  13
ENDBRANCH   1   7
BRANCH   1  16
ATOM     16  N   UNL     1       4.782  -0.537  -1.578  0.00  0.00    -0.184 NA
ATOM     17  H   UNL     1       4.893  -1.227  -2.251  0.00  0.00    +0.148 HD
BRANCH  16  18
ATOM     18  C   UNL     1       5.399   0.778  -1.768  0.00  0.00    +0.105 C 
ATOM     19  C   UNL     1       6.852   0.733  -1.292  0.00  0.00    +0.023 C 
ATOM     20  C   UNL     1       7.497   2.106  -1.491  0.00  0.00    +0.002 C 
ATOM     21  C   UNL     1       7.457   2.478  -2.975  0.00  0.00    +0.003 C 
ATOM     22  C   UNL     1       6.004   2.523  -3.451  0.00  0.00    +0.033 C 
ATOM     23  C   UNL     1       5.360   1.149  -3.252  0.00  0.00    +0.133 C 
BRANCH  23  24
ATOM     24  O   UNL     1       6.078   0.172  -4.007  0.00  0.00    -0.390 OA
ATOM     25  H   UNL     1       6.095   0.344  -4.959  0.00  0.00    +0.210 HD
ENDBRANCH  23  24
ENDBRANCH  16  18
ENDBRANCH   1  16
TORSDOF 6
