REMARK  Name = ZINC30823941
REMARK  5 active torsions:
REMARK  status: ('A' for Active; 'I' for Inactive)
REMARK    1  A    between atoms: C_1  and  C_2
REMARK    2  A    between atoms: C_2  and  C_3
REMARK    3  A    between atoms: C_2  and  C_4
REMARK    4  A    between atoms: C_6  and  C_10
REMARK    5  A    between atoms: C_13  and  C_15
REMARK                            x       y       z     vdW  Elec       q    Type
REMARK                         _______ _______ _______ _____ _____    ______ ____
ROOT
ATOM      1  C   UNL     1       3.868   5.538  -0.006  0.00  0.00    +0.269 A 
ATOM      2  N   UNL     1       4.494   4.383  -0.017  0.00  0.00    -0.105 NA
ATOM      3  N   UNL     1       3.631   3.429  -0.014  0.00  0.00    -0.107 NA
ATOM      4  C   UNL     1       2.420   3.936   0.000  0.00  0.00    +0.250 A 
ATOM      5  O   UNL     1       2.544   5.279   0.000  0.00  0.00    -0.414 OA
ENDROOT
BRANCH   4   6
ATOM      6  C   UNL     1       1.153   3.176   0.008  0.00  0.00    +0.057 A 
ATOM      7  C   UNL     1       1.173   1.780   0.000  0.00  0.00    +0.015 A 
ATOM      8  C   UNL     1      -0.013   1.076   0.008  0.00  0.00    +0.001 A 
ATOM      9  C   UNL     1      -1.222   1.750   0.017  0.00  0.00    +0.001 A 
ATOM     10  C   UNL     1      -1.250   3.132   0.030  0.00  0.00    +0.021 A 
ATOM     11  C   UNL     1      -0.070   3.850   0.022  0.00  0.00    +0.053 A 
ATOM     12 CL   UNL     1      -0.107   5.586   0.031  0.00  0.00    -0.083 Cl
ENDBRANCH   4   6
BRANCH   1  15
ATOM     13  C   UNL     1       6.049   8.479  -0.012  0.00  0.00    +0.039 A 
ATOM     14  C   UNL     1       5.884   7.139  -0.011  0.00  0.00    +0.058 A 
ATOM     15  C   UNL     1       4.498   6.874  -0.005  0.00  0.00    +0.149 A 
ATOM     16  N   UNL     1       3.865   8.031   0.006  0.00  0.00    -0.169 NA
ATOM     17  N   UNL     1       4.825   9.051   0.002  0.00  0.00    -0.281 N 
ATOM     18  H   UNL     1       4.730  10.147   0.008  0.00  0.00    +0.189 HD
BRANCH  13  20
ATOM     19  C   UNL     1       7.234  10.493  -0.842  0.00  0.00    +0.014 C 
ATOM     20  C   UNL     1       7.367   9.209  -0.021  0.00  0.00    +0.031 C 
ATOM     21  C   UNL     1       7.766   9.559   1.414  0.00  0.00    +0.014 C 
ENDBRANCH  13  20
ENDBRANCH   1  15
TORSDOF 3
