REMARK  Name = ZINC15069189
REMARK  9 active torsions:
REMARK  status: ('A' for Active; 'I' for Inactive)
REMARK    1  A    between atoms: C_1  and  C_2
REMARK    2  A    between atoms: C_6  and  C_8
REMARK    3  A    between atoms: C_8  and  N_9
REMARK    4  A    between atoms: C_10  and  C_12
REMARK    5  A    between atoms: C_16  and  C_17
REMARK    6  A    between atoms: C_17  and  O_18
REMARK    7  A    between atoms: O_18  and  C_19
REMARK    8  A    between atoms: C_23  and  C_31
REMARK    9  A    between atoms: C_24  and  C_26
REMARK                            x       y       z     vdW  Elec       q    Type
REMARK                         _______ _______ _______ _____ _____    ______ ____
ROOT
ATOM      1  C   UNL     1       1.563  -2.879  -0.449  0.00  0.00    +0.080 A 
ATOM      2  C   UNL     1       1.123  -4.216  -0.587  0.00  0.00    +0.148 A 
ATOM      3  N   UNL     1      -0.011  -4.204  -1.230  0.00  0.00    -0.171 NA
ATOM      4  N   UNL     1      -0.351  -2.880  -1.526  0.00  0.00    -0.199 N 
ATOM      5  C   UNL     1       0.614  -2.074  -1.042  0.00  0.00    +0.086 A 
ATOM      6  C   UNL     1      -1.496  -2.464  -2.206  0.00  0.00    +0.252 A 
ATOM      7  N   UNL     1      -1.691  -1.170  -2.410  0.00  0.00    -0.219 NA
ATOM      8  C   UNL     1      -2.761  -0.733  -3.055  0.00  0.00    +0.120 A 
ATOM      9  C   UNL     1      -3.694  -1.645  -3.513  0.00  0.00    -0.006 A 
ATOM     10  C   UNL     1      -3.465  -3.007  -3.278  0.00  0.00    +0.086 A 
ATOM     11  N   UNL     1      -2.361  -3.372  -2.625  0.00  0.00    -0.210 NA
ATOM     12  C   UNL     1      -4.928  -1.185  -4.246  0.00  0.00    +0.047 C 
ENDROOT
BRANCH  10  13
ATOM     13  C   UNL     1      -4.429  -4.021  -3.745  0.00  0.00    +0.038 A 
ATOM     14  C   UNL     1      -4.191  -5.284  -4.222  0.00  0.00    +0.017 A 
ATOM     15  C   UNL     1      -5.262  -6.061  -4.600  0.00  0.00    +0.008 A 
ATOM     16  C   UNL     1      -6.518  -5.551  -4.501  0.00  0.00    +0.046 A 
ATOM     17  S   UNL     1      -6.209  -3.920  -3.845  0.00  0.00    -0.095 S 
ENDBRANCH  10  13
BRANCH   1  19
ATOM     18  N   UNL     1       3.645  -3.334   0.750  0.00  0.00    -0.306 N 
ATOM     19  C   UNL     1       2.804  -2.430   0.209  0.00  0.00    +0.248 C 
ATOM     20  O   UNL     1       3.068  -1.244   0.264  0.00  0.00    -0.270 OA
ATOM     21  H   UNL     1       3.435  -4.279   0.706  0.00  0.00    +0.149 HD
BRANCH  18  22
ATOM     22  C   UNL     1       4.878  -2.887   1.404  0.00  0.00    +0.160 C 
BRANCH  22  28
ATOM     23  C   UNL     1       5.587  -6.163   4.951  0.00  0.00    +0.065 C 
ATOM     24  C   UNL     1       5.969  -5.630   3.594  0.00  0.00    +0.039 A 
ATOM     25  C   UNL     1       6.981  -6.244   2.879  0.00  0.00    +0.023 A 
ATOM     26  C   UNL     1       7.324  -5.746   1.632  0.00  0.00    +0.004 A 
ATOM     27  C   UNL     1       6.631  -4.648   1.146  0.00  0.00    +0.025 A 
ATOM     28  C   UNL     1       5.635  -4.084   1.920  0.00  0.00    +0.059 A 
ATOM     29  N   UNL     1       5.335  -4.584   3.102  0.00  0.00    -0.255 NA
ENDBRANCH  22  28
ENDBRANCH  18  22
ENDBRANCH   1  19
BRANCH   5  30
ATOM     30  C   UNL     1       0.652  -0.570  -1.138  0.00  0.00    +0.215 C 
BRANCH  30  31
ATOM     31  O   UNL     1       0.002  -0.004   0.002  0.00  0.00    -0.377 OA
ATOM     32  C   UNL     1      -0.017   1.425   0.010  0.00  0.00    +0.194 C 
ENDBRANCH  30  31
ENDBRANCH   5  30
TORSDOF 6
