REMARK  Name = ZINC13067848
REMARK  5 active torsions:
REMARK  status: ('A' for Active; 'I' for Inactive)
REMARK    1  A    between atoms: C_1  and  C_2
REMARK    2  A    between atoms: C_5  and  N_8
REMARK    3  A    between atoms: N_8  and  S_9
REMARK    4  A    between atoms: S_9  and  C_12
REMARK    5  A    between atoms: C_16  and  C_18
REMARK                            x       y       z     vdW  Elec       q    Type
REMARK                         _______ _______ _______ _____ _____    ______ ____
ROOT
ATOM      1  S   UNL     1       2.815  -4.812   0.555  0.00  0.00    +0.059 S 
ATOM      2  O   UNL     1       2.523  -6.198   0.436  0.00  0.00    -0.153 OA
ATOM      3  O   UNL     1       3.960  -4.221  -0.044  0.00  0.00    -0.153 OA
ENDROOT
BRANCH   1   4
ATOM      4  C   UNL     1       2.914  -4.465   2.280  0.00  0.00    +0.106 A 
ATOM      5  C   UNL     1       3.640  -3.372   2.724  0.00  0.00    +0.031 A 
ATOM      6  C   UNL     1       3.724  -3.090   4.074  0.00  0.00    +0.041 A 
ATOM      7  C   UNL     1       3.081  -3.900   4.993  0.00  0.00    +0.138 A 
ATOM      8  C   UNL     1       2.345  -5.005   4.551  0.00  0.00    +0.100 A 
ATOM      9  C   UNL     1       2.263  -5.278   3.182  0.00  0.00    +0.046 A 
ATOM     10  F   UNL     1       3.164  -3.624   6.313  0.00  0.00    -0.205 F 
BRANCH   8  11
ATOM     11  C   UNL     1       1.657  -5.874   5.523  0.00  0.00    +0.389 C 
ATOM     12  O   UNL     1       1.015  -6.839   5.133  0.00  0.00    -0.240 OA
ATOM     13  O   UNL     1       1.729  -5.630   6.719  0.00  0.00    -0.240 OA
ENDBRANCH   8  11
ENDBRANCH   1   4
BRANCH   1  14
ATOM     14  N   UNL     1       1.499  -3.999  -0.034  0.00  0.00    -0.187 NA
ATOM     15  H   UNL     1       0.741  -4.492  -0.384  0.00  0.00    +0.148 HD
BRANCH  14  20
ATOM     16  C   UNL     1      -0.019   1.526   0.010  0.00  0.00    +0.007 C 
ATOM     17  C   UNL     1       0.002  -0.004   0.002  0.00  0.00    -0.014 C 
ATOM     18  C   UNL     1       0.718  -0.497  -1.257  0.00  0.00    +0.005 C 
ATOM     19  C   UNL     1       0.739  -2.027  -1.265  0.00  0.00    +0.020 C 
ATOM     20  C   UNL     1       1.479  -2.534  -0.026  0.00  0.00    +0.077 C 
ATOM     21  C   UNL     1       0.763  -2.041   1.233  0.00  0.00    +0.020 C 
ATOM     22  C   UNL     1       0.742  -0.511   1.242  0.00  0.00    +0.005 C 
ENDBRANCH  14  20
ENDBRANCH   1  14
TORSDOF 4
