REMARK  Name = ZINC39672890
REMARK  6 active torsions:
REMARK  status: ('A' for Active; 'I' for Inactive)
REMARK    1  A    between atoms: C_1  and  C_2
REMARK    2  A    between atoms: C_7  and  C_10
REMARK    3  A    between atoms: C_14  and  C_23
REMARK    4  A    between atoms: N_25  and  C_26
REMARK    5  A    between atoms: C_26  and  C_27
REMARK    6  A    between atoms: C_27  and  N_33
REMARK                            x       y       z     vdW  Elec       q    Type
REMARK                         _______ _______ _______ _____ _____    ______ ____
ROOT
ATOM      1  C   UNL     1      -3.334  -2.813  -4.635  0.00  0.00    +0.219 C 
ATOM      2  O   UNL     1      -4.156  -2.217  -5.299  0.00  0.00    -0.275 OA
ATOM      3  N   UNL     1      -3.186  -4.145  -4.783  0.00  0.00    -0.300 N 
ATOM      4  C   UNL     1      -2.183  -5.024  -4.139  0.00  0.00    +0.121 C 
ATOM      5  C   UNL     1      -2.958  -6.316  -3.797  0.00  0.00    +0.100 C 
ATOM      6  C   UNL     1      -4.142  -6.335  -4.779  0.00  0.00    -0.004 C 
ATOM      7  C   UNL     1      -3.994  -5.061  -5.623  0.00  0.00    +0.115 C 
ATOM      8  C   UNL     1      -5.462  -6.304  -4.015  0.00  0.00    -0.010 C 
ATOM      9  C   UNL     1      -6.624  -6.381  -5.010  0.00  0.00    -0.082 C 
ATOM     10  N   UNL     1      -6.517  -7.618  -5.795  0.00  0.00    +0.379 N 
ATOM     11  C   UNL     1      -5.288  -7.598  -6.597  0.00  0.00    -0.082 C 
ATOM     12  C   UNL     1      -4.071  -7.572  -5.669  0.00  0.00    -0.010 C 
ATOM     13  H   UNL     1      -6.497  -8.410  -5.170  0.00  0.00    -0.086 HD
ATOM     14  H   UNL     1      -7.316  -7.696  -6.406  0.00  0.00    -0.086 HD
ENDROOT
BRANCH   1  21
ATOM     15  C   UNL     1      -2.690   0.934   0.400  0.00  0.00    +0.109 C 
ATOM     16  C   UNL     1      -2.224   1.088  -1.025  0.00  0.00    +0.212 C 
ATOM     17  O   UNL     1      -2.072   2.195  -1.497  0.00  0.00    -0.276 OA
ATOM     18  N   UNL     1      -1.976  -0.004  -1.775  0.00  0.00    -0.302 N 
ATOM     19  C   UNL     1      -1.404   0.127  -3.122  0.00  0.00    +0.108 C 
ATOM     20  C   UNL     1      -2.301  -0.620  -4.114  0.00  0.00    +0.032 C 
ATOM     21  C   UNL     1      -2.480  -2.066  -3.644  0.00  0.00    +0.078 C 
ATOM     22  C   UNL     1      -3.159  -2.079  -2.273  0.00  0.00    +0.032 C 
ATOM     23  C   UNL     1      -2.267  -1.348  -1.259  0.00  0.00    +0.108 C 
ENDBRANCH   1  21
BRANCH   5  24
ATOM     24  C   UNL     1      -2.082  -7.525  -4.004  0.00  0.00    +0.218 C 
ATOM     25  O   UNL     1      -1.193  -7.495  -4.829  0.00  0.00    -0.275 OA
ATOM     26  N   UNL     1      -2.286  -8.639  -3.273  0.00  0.00    -0.313 N 
ATOM     27  H   UNL     1      -2.997  -8.662  -2.614  0.00  0.00    +0.149 HD
BRANCH  26  28
ATOM     28  C   UNL     1      -1.435  -9.813  -3.475  0.00  0.00    +0.126 C 
BRANCH  28  29
ATOM     29  C   UNL     1      -1.949 -10.970  -2.615  0.00  0.00    +0.038 C 
ATOM     30  C   UNL     1      -0.985 -12.153  -2.723  0.00  0.00    +0.024 C 
ATOM     31  C   UNL     1      -0.892 -12.604  -4.182  0.00  0.00    +0.002 C 
ATOM     32  C   UNL     1      -2.277 -13.028  -4.674  0.00  0.00    +0.000 C 
ATOM     33  C   UNL     1      -3.241 -11.845  -4.566  0.00  0.00    +0.002 C 
ATOM     34  C   UNL     1      -3.334 -11.394  -3.107  0.00  0.00    +0.024 C 
BRANCH  29  35
ATOM     35  N   UNL     1      -2.038 -10.537  -1.215  0.00  0.00    -0.291 NA
ATOM     36  C   UNL     1      -0.720 -10.132  -0.704  0.00  0.00    +0.113 C 
ATOM     37  C   UNL     1      -0.868  -9.633   0.736  0.00  0.00    +0.175 C 
ATOM     38  O   UNL     1      -1.466 -10.660   1.532  0.00  0.00    -0.377 OA
ATOM     39  C   UNL     1      -2.750 -11.078   1.063  0.00  0.00    +0.175 C 
ATOM     40  C   UNL     1      -2.621 -11.592  -0.373  0.00  0.00    +0.113 C 
ENDBRANCH  29  35
ENDBRANCH  28  29
ENDBRANCH  26  28
ENDBRANCH   5  24
TORSDOF 5
