REMARK  Name = ZINC58247066
REMARK  9 active torsions:
REMARK  status: ('A' for Active; 'I' for Inactive)
REMARK    1  A    between atoms: C_1  and  C_2
REMARK    2  A    between atoms: C_4  and  O_9
REMARK    3  A    between atoms: O_9  and  C_10
REMARK    4  A    between atoms: C_10  and  C_11
REMARK    5  A    between atoms: C_10  and  C_12
REMARK    6  A    between atoms: N_14  and  C_15
REMARK    7  A    between atoms: C_15  and  C_16
REMARK    8  A    between atoms: C_15  and  C_17
REMARK    9  A    between atoms: C_20  and  N_23
REMARK                            x       y       z     vdW  Elec       q    Type
REMARK                         _______ _______ _______ _____ _____    ______ ____
ROOT
ATOM      1  C   UNL     1      -0.368  -4.785  -3.511  0.00  0.00    +0.254 C 
ATOM      2  O   UNL     1      -0.789  -4.069  -4.396  0.00  0.00    -0.272 OA
ATOM      3  N   UNL     1      -0.463  -6.124  -3.626  0.00  0.00    -0.306 N 
ATOM      4  H   UNL     1      -0.126  -6.697  -2.918  0.00  0.00    +0.149 HD
ENDROOT
BRANCH   1   5
ATOM      5  C   UNL     1       0.262  -4.176  -2.285  0.00  0.00    +0.255 C 
ATOM      6  C   UNL     1       1.741  -4.560  -2.226  0.00  0.00    +0.062 C 
BRANCH   5   7
ATOM      7  O   UNL     1       0.141  -2.753  -2.344  0.00  0.00    -0.480 OA
BRANCH   7  11
ATOM      8  C   UNL     1       0.177   1.494   0.061  0.00  0.00    +0.045 C 
ATOM      9  C   UNL     1       0.197  -0.013   0.049  0.00  0.00    -0.029 A 
ATOM     10  C   UNL     1       0.160  -0.694  -1.153  0.00  0.00    +0.050 A 
ATOM     11  C   UNL     1       0.178  -2.081  -1.163  0.00  0.00    +0.122 A 
ATOM     12  C   UNL     1       0.234  -2.781   0.033  0.00  0.00    +0.047 A 
ATOM     13  C   UNL     1       0.271  -2.097   1.232  0.00  0.00    +0.024 A 
ATOM     14  C   UNL     1       0.259  -0.713   1.240  0.00  0.00    +0.044 A 
ATOM     15 CL   UNL     1       0.312   0.146   2.748  0.00  0.00    -0.083 Cl
ENDBRANCH   7  11
ENDBRANCH   5   7
ENDBRANCH   1   5
BRANCH   3  16
ATOM     16  C   UNL     1      -1.074  -6.716  -4.818  0.00  0.00    +0.100 C 
ATOM     17  C   UNL     1      -2.593  -6.771  -4.638  0.00  0.00    +0.033 C 
BRANCH  16  18
ATOM     18  C   UNL     1      -0.541  -8.112  -5.016  0.00  0.00    -0.027 A 
ATOM     19  C   UNL     1      -0.353  -8.940  -3.924  0.00  0.00    +0.007 A 
ATOM     20  C   UNL     1       0.135 -10.220  -4.102  0.00  0.00    +0.023 A 
ATOM     21  C   UNL     1       0.438 -10.674  -5.379  0.00  0.00    +0.035 A 
ATOM     22  C   UNL     1       0.248  -9.840  -6.473  0.00  0.00    +0.023 A 
ATOM     23  C   UNL     1      -0.246  -8.564  -6.289  0.00  0.00    +0.007 A 
BRANCH  21  24
ATOM     24  N   UNL     1       0.933 -11.970  -5.563  0.00  0.00    -0.270 N 
ATOM     25  C   UNL     1       0.499 -12.975  -4.777  0.00  0.00    +0.301 C 
ATOM     26  O   UNL     1      -0.265 -12.743  -3.860  0.00  0.00    -0.253 OA
ATOM     27  N   UNL     1       0.911 -14.238  -5.008  0.00  0.00    -0.313 N 
ATOM     28  H   UNL     1       1.589 -12.145  -6.255  0.00  0.00    +0.156 HD
ATOM     29  H   UNL     1       1.520 -14.422  -5.739  0.00  0.00    +0.146 HD
ATOM     30  H   UNL     1       0.599 -14.961  -4.442  0.00  0.00    +0.146 HD
ENDBRANCH  21  24
ENDBRANCH  16  18
ENDBRANCH   3  16
TORSDOF 6
