REMARK  Name = ZINC02917820
REMARK  4 active torsions:
REMARK  status: ('A' for Active; 'I' for Inactive)
REMARK    1  A    between atoms: C_1  and  O_2
REMARK    2  A    between atoms: O_2  and  C_3
REMARK    3  A    between atoms: C_8  and  C_9
REMARK    4  A    between atoms: C_27  and  C_29
REMARK                            x       y       z     vdW  Elec       q    Type
REMARK                         _______ _______ _______ _____ _____    ______ ____
ROOT
ATOM      1  C   UNL     1       0.332  -2.564  -0.111  0.00  0.00    +0.238 C 
ATOM      2  C   UNL     1       0.712  -2.783   1.324  0.00  0.00    +0.028 C 
ATOM      3  C   UNL     1       0.269  -3.865   1.996  0.00  0.00    +0.083 C 
ATOM      4  C   UNL     1      -0.592  -4.823   1.257  0.00  0.00    +0.044 A 
ATOM      5  C   UNL     1      -1.355  -5.774   1.921  0.00  0.00    +0.033 A 
ATOM      6  C   UNL     1      -2.144  -6.646   1.193  0.00  0.00    +0.042 A 
ATOM      7  C   UNL     1      -2.174  -6.570  -0.190  0.00  0.00    +0.023 A 
ATOM      8  C   UNL     1      -1.415  -5.626  -0.857  0.00  0.00    +0.048 A 
ATOM      9  C   UNL     1      -0.620  -4.749  -0.141  0.00  0.00    +0.131 A 
ATOM     10  O   UNL     1       0.138  -3.818  -0.768  0.00  0.00    -0.479 OA
ATOM     11 CL   UNL     1      -3.102  -7.838   2.015  0.00  0.00    -0.084 Cl
ATOM     12  N   UNL     1       0.595  -4.076   3.295  0.00  0.00    -0.213 NA
ATOM     13  C   UNL     1       1.357  -3.279   4.005  0.00  0.00    +0.237 C 
ATOM     14  N   UNL     1       1.778  -3.340   5.288  0.00  0.00    -0.205 NA
ATOM     15  C   UNL     1       2.535  -2.314   5.567  0.00  0.00    +0.203 C 
ATOM     16  N   UNL     1       2.648  -1.521   4.466  0.00  0.00    -0.251 N 
ATOM     17  N   UNL     1       1.896  -2.130   3.460  0.00  0.00    -0.208 N 
ATOM     18  C   UNL     1       1.600  -1.803   2.060  0.00  0.00    +0.166 C 
ATOM     19  H   UNL     1       3.153  -0.695   4.394  0.00  0.00    +0.171 HD
ENDROOT
BRANCH   1  25
ATOM     20  C   UNL     1      -1.155  -0.873  -1.213  0.00  0.00    +0.127 A 
ATOM     21  C   UNL     1      -2.333  -0.143  -1.270  0.00  0.00    +0.046 A 
ATOM     22  C   UNL     1      -3.291  -0.303  -0.288  0.00  0.00    +0.004 A 
ATOM     23  C   UNL     1      -3.077  -1.190   0.751  0.00  0.00    +0.001 A 
ATOM     24  C   UNL     1      -1.903  -1.918   0.810  0.00  0.00    +0.011 A 
ATOM     25  C   UNL     1      -0.944  -1.766  -0.173  0.00  0.00    +0.039 A 
BRANCH  20  27
ATOM     26  C   UNL     1      -0.444   0.297  -3.157  0.00  0.00    +0.277 C 
ATOM     27  O   UNL     1      -0.211  -0.718  -2.179  0.00  0.00    -0.495 OA
ENDBRANCH  20  27
ENDBRANCH   1  25
BRANCH  18  28
ATOM     28  C   UNL     1       0.938  -0.450   2.023  0.00  0.00    +0.016 A 
ATOM     29  C   UNL     1       1.183   0.598   1.197  0.00  0.00    +0.013 A 
ATOM     30  C   UNL     1       0.443   1.756   1.347  0.00  0.00    +0.008 A 
ATOM     31  C   UNL     1      -0.504   1.810   2.315  0.00  0.00    +0.045 A 
ATOM     32  S   UNL     1      -0.376   0.188   3.049  0.00  0.00    -0.099 S 
ENDBRANCH  18  28
TORSDOF 3
