REMARK  Name = ZINC48666273
REMARK  3 active torsions:
REMARK  status: ('A' for Active; 'I' for Inactive)
REMARK    1  A    between atoms: C_5  and  S_7
REMARK    2  A    between atoms: S_7  and  N_10
REMARK    3  A    between atoms: C_14  and  C_16
REMARK                            x       y       z     vdW  Elec       q    Type
REMARK                         _______ _______ _______ _____ _____    ______ ____
ROOT
ATOM      1  N   UNL     1       2.016  -2.909  -1.405  0.00  0.00    -0.168 NA
ATOM      2  C   UNL     1       1.387  -3.115  -2.722  0.00  0.00    +0.110 C 
ATOM      3  C   UNL     1       2.534  -2.920  -3.744  0.00  0.00    +0.019 C 
ATOM      4  C   UNL     1       3.732  -3.558  -2.993  0.00  0.00    +0.028 C 
ATOM      5  C   UNL     1       3.456  -3.181  -1.523  0.00  0.00    +0.126 C 
ENDROOT
BRANCH   5   6
ATOM      6  C   UNL     1       3.836  -4.328  -0.622  0.00  0.00    +0.035 A 
ATOM      7  C   UNL     1       3.073  -5.406  -0.350  0.00  0.00    +0.024 A 
ATOM      8  C   UNL     1       3.803  -6.228   0.531  0.00  0.00    +0.019 A 
ATOM      9  C   UNL     1       4.985  -5.622   0.763  0.00  0.00    +0.083 A 
ATOM     10  N   UNL     1       5.013  -4.458   0.054  0.00  0.00    -0.363 N 
ATOM     11  H   UNL     1       5.748  -3.825   0.035  0.00  0.00    +0.165 HD
ENDBRANCH   5   6
BRANCH   1  12
ATOM     12  S   UNL     1       1.232  -2.441  -0.023  0.00  0.00    +0.063 S 
ATOM     13  O   UNL     1       0.093  -1.697  -0.434  0.00  0.00    -0.153 OA
ATOM     14  O   UNL     1       2.222  -1.903   0.843  0.00  0.00    -0.153 OA
BRANCH  12  19
ATOM     15  C   UNL     1       0.671  -5.455   2.573  0.00  0.00    +0.002 A 
ATOM     16  C   UNL     1      -0.326  -6.197   1.968  0.00  0.00    +0.002 A 
ATOM     17  C   UNL     1      -0.848  -5.792   0.754  0.00  0.00    +0.022 A 
ATOM     18  C   UNL     1      -0.372  -4.644   0.145  0.00  0.00    +0.067 A 
ATOM     19  C   UNL     1       0.625  -3.902   0.752  0.00  0.00    +0.124 A 
ATOM     20  C   UNL     1       1.147  -4.309   1.966  0.00  0.00    +0.030 A 
ATOM     21 CL   UNL     1      -1.027  -4.135  -1.380  0.00  0.00    -0.082 Cl
ENDBRANCH  12  19
ENDBRANCH   1  12
TORSDOF 3
