REMARK  Name = ZINC13269400
REMARK  8 active torsions:
REMARK  status: ('A' for Active; 'I' for Inactive)
REMARK    1  A    between atoms: C_1  and  O_2
REMARK    2  A    between atoms: O_2  and  C_3
REMARK    3  A    between atoms: C_6  and  C_30
REMARK    4  A    between atoms: C_8  and  S_9
REMARK    5  A    between atoms: S_9  and  N_12
REMARK    6  A    between atoms: N_12  and  C_13
REMARK    7  A    between atoms: C_13  and  C_15
REMARK    8  A    between atoms: C_13  and  C_25
REMARK                            x       y       z     vdW  Elec       q    Type
REMARK                         _______ _______ _______ _____ _____    ______ ____
ROOT
ATOM      1  N   UNL     1      -2.925   1.161   1.496  0.00  0.00    -0.178 NA
ATOM      2  H   UNL     1      -3.615   0.842   2.098  0.00  0.00    +0.149 HD
ENDROOT
BRANCH   1   3
ATOM      3  S   UNL     1      -2.708   0.435   0.024  0.00  0.00    +0.063 S 
ATOM      4  O   UNL     1      -3.690  -0.589  -0.072  0.00  0.00    -0.153 OA
ATOM      5  O   UNL     1      -1.318   0.171  -0.099  0.00  0.00    -0.153 OA
BRANCH   3  11
ATOM      6  C   UNL     1      -4.403   2.113  -1.315  0.00  0.00    +0.146 A 
ATOM      7  C   UNL     1      -4.720   3.060  -2.283  0.00  0.00    +0.048 A 
ATOM      8  C   UNL     1      -3.748   3.518  -3.144  0.00  0.00    +0.019 A 
ATOM      9  C   UNL     1      -2.442   3.030  -3.045  0.00  0.00    +0.065 A 
ATOM     10  C   UNL     1      -2.128   2.078  -2.071  0.00  0.00    +0.047 A 
ATOM     11  C   UNL     1      -3.105   1.629  -1.210  0.00  0.00    +0.147 A 
BRANCH   9  12
ATOM     12  C   UNL     1      -1.399   3.518  -3.965  0.00  0.00    +0.387 C 
ATOM     13  O   UNL     1      -0.264   3.092  -3.877  0.00  0.00    -0.241 OA
ATOM     14  O   UNL     1      -1.703   4.435  -4.904  0.00  0.00    -0.241 OA
ENDBRANCH   9  12
BRANCH   6  16
ATOM     15  C   UNL     1      -6.643   2.296  -0.545  0.00  0.00    +0.277 C 
ATOM     16  O   UNL     1      -5.364   1.665  -0.468  0.00  0.00    -0.493 OA
ENDBRANCH   6  16
ENDBRANCH   3  11
ENDBRANCH   1   3
BRANCH   1  17
ATOM     17  C   UNL     1      -2.074   2.287   1.889  0.00  0.00    +0.143 C 
BRANCH  17  18
ATOM     18  C   UNL     1      -2.885   3.276   2.687  0.00  0.00    -0.024 A 
ATOM     19  C   UNL     1      -3.813   2.828   3.608  0.00  0.00    +0.006 A 
ATOM     20  C   UNL     1      -4.549   3.739   4.337  0.00  0.00    +0.004 A 
ATOM     21  C   UNL     1      -4.375   5.103   4.143  0.00  0.00    -0.044 A 
ATOM     22  C   UNL     1      -3.453   5.549   3.224  0.00  0.00    -0.044 A 
ATOM     23  C   UNL     1      -2.708   4.630   2.495  0.00  0.00    +0.009 A 
ATOM     24  C   UNL     1      -3.204   7.013   2.969  0.00  0.00    +0.035 C 
ATOM     25  C   UNL     1      -4.362   7.855   3.502  0.00  0.00    +0.005 C 
ATOM     26  C   UNL     1      -4.627   7.448   4.956  0.00  0.00    +0.005 C 
ATOM     27  C   UNL     1      -5.223   6.042   4.962  0.00  0.00    +0.035 C 
ENDBRANCH  17  18
BRANCH  17  28
ATOM     28  C   UNL     1      -0.929   1.783   2.730  0.00  0.00    +0.013 A 
ATOM     29  C   UNL     1       0.360   2.201   2.756  0.00  0.00    +0.013 A 
ATOM     30  C   UNL     1       1.246   1.586   3.621  0.00  0.00    +0.008 A 
ATOM     31  C   UNL     1       0.802   0.577   4.410  0.00  0.00    +0.045 A 
ATOM     32  S   UNL     1      -0.918   0.474   3.944  0.00  0.00    -0.100 S 
ENDBRANCH  17  28
ENDBRANCH   1  17
TORSDOF 7
