REMARK  Name = ZINC38689206
REMARK  10 active torsions:
REMARK  status: ('A' for Active; 'I' for Inactive)
REMARK    1  A    between atoms: C_1  and  C_2
REMARK    2  A    between atoms: C_9  and  C_11
REMARK    3  A    between atoms: C_11  and  S_12
REMARK    4  A    between atoms: S_12  and  C_13
REMARK    5  A    between atoms: C_16  and  C_19
REMARK    6  A    between atoms: C_25  and  O_27
REMARK    7  A    between atoms: O_27  and  C_28
REMARK    8  A    between atoms: C_28  and  C_29
REMARK    9  A    between atoms: C_28  and  C_30
REMARK   10  A    between atoms: C_28  and  C_31
REMARK                            x       y       z     vdW  Elec       q    Type
REMARK                         _______ _______ _______ _____ _____    ______ ____
ROOT
ATOM      1  C   UNL     1      -4.161   2.635   2.333  0.00  0.00    +0.269 C 
ATOM      2  N   UNL     1      -4.393   1.411   2.664  0.00  0.00    -0.140 NA
ATOM      3  N   UNL     1      -5.119   1.358   3.862  0.00  0.00    -0.226 N 
ATOM      4  C   UNL     1      -5.321   2.764   4.258  0.00  0.00    +0.298 C 
ATOM      5  O   UNL     1      -4.670   3.516   3.223  0.00  0.00    -0.446 OA
ATOM      6  H   UNL     1      -5.424   0.566   4.332  0.00  0.00    +0.172 HD
ENDROOT
BRANCH   4   7
ATOM      7  C   UNL     1      -4.664   3.039   5.612  0.00  0.00    +0.140 C 
ATOM      8  C   UNL     1      -4.983   4.478   6.067  0.00  0.00    +0.029 C 
ATOM      9  C   UNL     1      -3.654   4.938   6.722  0.00  0.00    +0.021 C 
ATOM     10  C   UNL     1      -2.605   4.239   5.821  0.00  0.00    +0.111 C 
ATOM     11  N   UNL     1      -3.203   2.929   5.491  0.00  0.00    -0.259 N 
ATOM     12  C   UNL     1      -2.525   1.819   5.138  0.00  0.00    +0.404 C 
ATOM     13  O   UNL     1      -3.127   0.793   4.887  0.00  0.00    -0.226 OA
BRANCH  12  14
ATOM     14  O   UNL     1      -1.181   1.846   5.062  0.00  0.00    -0.445 OA
BRANCH  14  15
ATOM     15  C   UNL     1      -0.528   0.634   4.681  0.00  0.00    +0.107 C 
ATOM     16  C   UNL     1      -1.009   0.209   3.293  0.00  0.00    +0.055 C 
ATOM     17  C   UNL     1       0.985   0.858   4.651  0.00  0.00    +0.055 C 
ATOM     18  C   UNL     1      -0.861  -0.464   5.694  0.00  0.00    +0.055 C 
ENDBRANCH  14  15
ENDBRANCH  12  14
ENDBRANCH   4   7
BRANCH   1  19
ATOM     19  S   UNL     1      -3.273   3.107   0.886  0.00  0.00    -0.061 S 
BRANCH  19  20
ATOM     20  C   UNL     1      -2.848   1.529   0.098  0.00  0.00    +0.121 C 
BRANCH  20  29
ATOM     21  C   UNL     1      -0.013   1.086   0.008  0.00  0.00    +0.064 C 
ATOM     22  C   UNL     1      -0.742   1.585  -1.213  0.00  0.00    +0.026 A 
ATOM     23  N   UNL     1      -0.056   1.825  -2.373  0.00  0.00    -0.311 N 
ATOM     24  C   UNL     1      -0.698   2.270  -3.468  0.00  0.00    +0.327 A 
ATOM     25  O   UNL     1      -0.069   2.476  -4.489  0.00  0.00    -0.247 OA
ATOM     26  N   UNL     1      -2.025   2.490  -3.451  0.00  0.00    -0.275 N 
ATOM     27  C   UNL     1      -2.737   2.266  -2.328  0.00  0.00    +0.258 A 
ATOM     28  O   UNL     1      -3.938   2.465  -2.311  0.00  0.00    -0.267 OA
ATOM     29  C   UNL     1      -2.075   1.793  -1.169  0.00  0.00    +0.046 A 
ATOM     30  H   UNL     1       0.901   1.672  -2.405  0.00  0.00    +0.170 HD
ATOM     31  H   UNL     1      -2.472   2.811  -4.250  0.00  0.00    +0.173 HD
ENDBRANCH  20  29
ENDBRANCH  19  20
ENDBRANCH   1  19
TORSDOF 6
