REMARK  Name = ZINC02475873
REMARK  8 active torsions:
REMARK  status: ('A' for Active; 'I' for Inactive)
REMARK    1  A    between atoms: C_1  and  C_2
REMARK    2  A    between atoms: C_2  and  C_3
REMARK    3  A    between atoms: C_4  and  C_33
REMARK    4  A    between atoms: C_6  and  N_10
REMARK    5  A    between atoms: C_7  and  C_8
REMARK    6  A    between atoms: C_11  and  C_13
REMARK    7  A    between atoms: C_18  and  C_29
REMARK    8  A    between atoms: C_21  and  C_24
REMARK                            x       y       z     vdW  Elec       q    Type
REMARK                         _______ _______ _______ _____ _____    ______ ____
ROOT
ATOM      1  C   UNL     1       5.734  -2.225  -4.294  0.00  0.00    +0.149 A 
ATOM      2  C   UNL     1       6.231  -2.672  -5.540  0.00  0.00    +0.078 A 
ATOM      3  C   UNL     1       7.559  -2.853  -5.408  0.00  0.00    +0.119 A 
ATOM      4  N   UNL     1       7.907  -2.532  -4.126  0.00  0.00    -0.238 N 
ATOM      5  N   UNL     1       6.750  -2.140  -3.453  0.00  0.00    -0.164 NA
ATOM      6  C   UNL     1       9.278  -2.602  -3.613  0.00  0.00    +0.215 C 
ATOM      7  C   UNL     1      10.251  -2.601  -4.798  0.00  0.00    +0.066 C 
ATOM      8  C   UNL     1       9.824  -3.655  -5.825  0.00  0.00    +0.140 C 
ATOM      9  N   UNL     1       8.495  -3.287  -6.351  0.00  0.00    -0.319 N 
ATOM     10  H   UNL     1       8.283  -3.342  -7.296  0.00  0.00    +0.148 HD
ENDROOT
BRANCH   8  11
ATOM     11  C   UNL     1      10.824  -3.699  -6.951  0.00  0.00    +0.125 A 
ATOM     12  C   UNL     1      11.806  -4.607  -7.096  0.00  0.00    +0.046 A 
ATOM     13  C   UNL     1      12.500  -4.274  -8.282  0.00  0.00    +0.041 A 
ATOM     14  C   UNL     1      11.901  -3.182  -8.790  0.00  0.00    +0.195 A 
ATOM     15  O   UNL     1      10.883  -2.842  -7.984  0.00  0.00    -0.466 OA
ENDBRANCH   8  11
BRANCH   1  17
ATOM     16  N   UNL     1       3.985  -1.479  -2.755  0.00  0.00    -0.274 N 
ATOM     17  C   UNL     1       4.326  -1.903  -3.988  0.00  0.00    +0.269 C 
ATOM     18  O   UNL     1       3.474  -2.020  -4.848  0.00  0.00    -0.268 OA
ATOM     19  H   UNL     1       4.664  -1.386  -2.069  0.00  0.00    +0.156 HD
BRANCH  16  23
ATOM     20  C   UNL     1       0.707  -0.490  -1.238  0.00  0.00    -0.018 A 
ATOM     21  C   UNL     1       0.050  -0.726  -2.389  0.00  0.00    -0.007 A 
ATOM     22  S   UNL     1       1.337  -1.266  -3.492  0.00  0.00    -0.077 S 
ATOM     23  C   UNL     1       2.662  -1.177  -2.467  0.00  0.00    +0.090 A 
ATOM     24  C   UNL     1       2.132  -0.726  -1.268  0.00  0.00    +0.084 A 
ATOM     25  C   UNL     1      -1.422  -0.571  -2.674  0.00  0.00    +0.052 C 
BRANCH  20  27
ATOM     26  C   UNL     1      -0.019   1.526   0.010  0.00  0.00    +0.009 C 
ATOM     27  C   UNL     1       0.002  -0.004   0.002  0.00  0.00    +0.034 C 
ENDBRANCH  20  27
BRANCH  24  28
ATOM     28  C   UNL     1       2.955  -0.510  -0.116  0.00  0.00    +0.102 C 
ATOM     29  N   UNL     1       3.608  -0.338   0.798  0.00  0.00    -0.191 NA
ENDBRANCH  24  28
ENDBRANCH  16  23
ENDBRANCH   1  17
BRANCH   6  30
ATOM     30  C   UNL     1       9.554  -1.391  -2.720  0.00  0.00    +0.412 C 
ATOM     31  F   UNL     1       8.656  -1.389  -1.647  0.00  0.00    -0.168 F 
ATOM     32  F   UNL     1      10.863  -1.460  -2.232  0.00  0.00    -0.168 F 
ATOM     33  F   UNL     1       9.395  -0.217  -3.463  0.00  0.00    -0.168 F 
ENDBRANCH   6  30
TORSDOF 6
