REMARK  Name = ZINC42814015
REMARK  7 active torsions:
REMARK  status: ('A' for Active; 'I' for Inactive)
REMARK    1  A    between atoms: C_1  and  C_2
REMARK    2  A    between atoms: C_2  and  N_9
REMARK    3  A    between atoms: N_9  and  N_10
REMARK    4  A    between atoms: N_13  and  C_14
REMARK    5  A    between atoms: C_14  and  C_15
REMARK    6  A    between atoms: C_15  and  C_17
REMARK    7  A    between atoms: C_15  and  N_23
REMARK                            x       y       z     vdW  Elec       q    Type
REMARK                         _______ _______ _______ _____ _____    ______ ____
ROOT
ATOM      1  N   UNL     1      -2.085  -0.109  -1.061  0.00  0.00    -0.234 N 
ATOM      2  C   UNL     1      -3.345  -0.550  -1.245  0.00  0.00    +0.313 C 
ATOM      3  O   UNL     1      -3.912  -0.346  -2.301  0.00  0.00    -0.252 OA
ATOM      4  N   UNL     1      -3.976  -1.218  -0.258  0.00  0.00    -0.300 N 
ATOM      5  H   UNL     1      -1.630   0.371  -1.771  0.00  0.00    +0.171 HD
ATOM      6  H   UNL     1      -3.523  -1.380   0.584  0.00  0.00    +0.150 HD
ENDROOT
BRANCH   1   7
ATOM      7  N   UNL     1      -1.447  -0.338   0.126  0.00  0.00    -0.232 NA
ATOM      8  H   UNL     1      -1.982   0.027   0.900  0.00  0.00    +0.145 HD
BRANCH   7  10
ATOM      9  C   UNL     1      -0.189   1.731  -0.139  0.00  0.00    +0.031 C 
ATOM     10  C   UNL     1      -0.090   0.225   0.111  0.00  0.00    +0.054 C 
ATOM     11  C   UNL     1       0.689  -0.412  -1.038  0.00  0.00    +0.047 C 
ATOM     12  C   UNL     1       2.208  -0.440  -0.710  0.00  0.00    +0.168 C 
ATOM     13  S   UNL     1       2.127  -0.871   1.084  0.00  0.00    -0.029 S 
ATOM     14  O   UNL     1       1.937  -2.272   1.220  0.00  0.00    -0.174 OA
ATOM     15  O   UNL     1       3.201  -0.237   1.766  0.00  0.00    -0.174 OA
ATOM     16  C   UNL     1       0.554  -0.005   1.492  0.00  0.00    +0.189 C 
ENDBRANCH   7  10
ENDBRANCH   1   7
BRANCH   4  17
ATOM     17  C   UNL     1      -5.346  -1.697  -0.458  0.00  0.00    +0.095 C 
BRANCH  17  18
ATOM     18  C   UNL     1      -5.776  -2.531   0.750  0.00  0.00    -0.020 C 
BRANCH  18  19
ATOM     19  C   UNL     1      -4.934  -3.779   0.825  0.00  0.00    -0.059 A 
ATOM     20  C   UNL     1      -5.226  -4.859   0.013  0.00  0.00    +0.002 A 
ATOM     21  C   UNL     1      -4.454  -6.004   0.081  0.00  0.00    +0.000 A 
ATOM     22  C   UNL     1      -3.390  -6.068   0.961  0.00  0.00    +0.000 A 
ATOM     23  C   UNL     1      -3.098  -4.988   1.772  0.00  0.00    +0.000 A 
ATOM     24  C   UNL     1      -3.867  -3.842   1.701  0.00  0.00    +0.002 A 
ENDBRANCH  18  19
BRANCH  18  25
ATOM     25  N   UNL     1      -7.190  -2.902   0.611  0.00  0.00    +0.385 N 
ATOM     26  C   UNL     1      -7.628  -3.700   1.785  0.00  0.00    -0.078 C 
ATOM     27  C   UNL     1      -9.167  -3.521   1.780  0.00  0.00    -0.020 C 
ATOM     28  C   UNL     1      -9.343  -2.050   1.341  0.00  0.00    -0.020 C 
ATOM     29  C   UNL     1      -8.037  -1.689   0.609  0.00  0.00    -0.078 C 
ATOM     30  H   UNL     1      -7.331  -3.426  -0.239  0.00  0.00    -0.081 HD
ENDBRANCH  18  25
ENDBRANCH  17  18
ENDBRANCH   4  17
TORSDOF 6
