REMARK  Name = ZINC09446437
REMARK  6 active torsions:
REMARK  status: ('A' for Active; 'I' for Inactive)
REMARK    1  A    between atoms: C_1  and  C_2
REMARK    2  A    between atoms: C_5  and  N_11
REMARK    3  A    between atoms: C_7  and  N_8
REMARK    4  A    between atoms: C_16  and  C_32
REMARK    5  A    between atoms: C_32  and  C_33
REMARK    6  A    between atoms: C_33  and  C_34
REMARK                            x       y       z     vdW  Elec       q    Type
REMARK                         _______ _______ _______ _____ _____    ______ ____
ROOT
ATOM      1  N   UNL     1      -0.256   0.305  -0.271  0.00  0.00    -0.210 N 
ATOM      2  C   UNL     1      -0.455   1.546  -0.728  0.00  0.00    +0.228 C 
ATOM      3  O   UNL     1      -1.525   2.005  -1.068  0.00  0.00    -0.275 OA
ATOM      4  C   UNL     1       0.862   2.287  -0.762  0.00  0.00    +0.073 C 
ATOM      5  C   UNL     1       1.282   2.529  -2.244  0.00  0.00    -0.057 C 
ATOM      6  C   UNL     1       2.798   0.943  -1.441  0.00  0.00    +0.050 C 
ATOM      7  C   UNL     1       1.881   1.232  -0.246  0.00  0.00    +0.088 C 
ATOM      8  C   UNL     1       1.016   0.022   0.033  0.00  0.00    +0.229 C 
ATOM      9  O   UNL     1       1.414  -1.038   0.465  0.00  0.00    -0.275 OA
ATOM     10  C   UNL     1       4.078   1.724  -1.356  0.00  0.00    -0.028 A 
ATOM     11  C   UNL     1       4.365   3.070  -1.299  0.00  0.00    +0.004 A 
ATOM     12  C   UNL     1       5.680   3.494  -1.223  0.00  0.00    +0.000 A 
ATOM     13  C   UNL     1       6.704   2.564  -1.204  0.00  0.00    +0.002 A 
ATOM     14  C   UNL     1       6.420   1.215  -1.261  0.00  0.00    +0.023 A 
ATOM     15  C   UNL     1       5.100   0.779  -1.339  0.00  0.00    +0.036 A 
ATOM     16  N   UNL     1       4.567  -0.510  -1.407  0.00  0.00    -0.286 N 
ATOM     17  C   UNL     1       3.221  -0.500  -1.472  0.00  0.00    +0.211 C 
ATOM     18  O   UNL     1       2.493  -1.468  -1.541  0.00  0.00    -0.277 OA
ATOM     19  H   UNL     1       5.103  -1.318  -1.408  0.00  0.00    +0.155 HD
ATOM     20  N   UNL     1       2.023   1.320  -2.610  0.00  0.00    +0.394 N 
ATOM     21  H   UNL     1       2.648   1.513  -3.402  0.00  0.00    -0.083 HD
ATOM     22  H   UNL     1       1.372   0.568  -2.863  0.00  0.00    -0.083 HD
ENDROOT
BRANCH   1  27
ATOM     23  C   UNL     1      -4.463  -3.457   0.325  0.00  0.00    +0.046 C 
ATOM     24  C   UNL     1      -3.346  -2.458   0.167  0.00  0.00    -0.020 A 
ATOM     25  C   UNL     1      -2.373  -2.658  -0.796  0.00  0.00    +0.007 A 
ATOM     26  C   UNL     1      -1.351  -1.741  -0.947  0.00  0.00    +0.024 A 
ATOM     27  C   UNL     1      -1.295  -0.625  -0.124  0.00  0.00    +0.046 A 
ATOM     28  C   UNL     1      -2.272  -0.427   0.842  0.00  0.00    +0.057 A 
ATOM     29  C   UNL     1      -3.295  -1.345   0.985  0.00  0.00    +0.131 A 
BRANCH  29  30
ATOM     30  N   UNL     1      -4.338  -1.136   2.014  0.00  0.00    +0.057 N 
ATOM     31  O   UNL     1      -4.230  -0.223   2.813  0.00  0.00    -0.126 OA
ATOM     32  O   UNL     1      -5.303  -1.876   2.063  0.00  0.00    -0.126 OA
ENDBRANCH  29  30
ENDBRANCH   1  27
BRANCH   5  33
ATOM     33  C   UNL     1       0.047   2.716  -3.127  0.00  0.00    -0.006 C 
BRANCH  33  34
ATOM     34  C   UNL     1       0.486   3.009  -4.563  0.00  0.00    +0.094 C 
BRANCH  34  35
ATOM     35  C   UNL     1      -0.730   3.193  -5.433  0.00  0.00    +0.210 C 
ATOM     36  O   UNL     1      -1.839   3.100  -4.952  0.00  0.00    -0.276 OA
ATOM     37  N   UNL     1      -0.585   3.462  -6.746  0.00  0.00    -0.329 N 
ATOM     38  H   UNL     1       0.302   3.537  -7.130  0.00  0.00    +0.145 HD
ATOM     39  H   UNL     1      -1.369   3.581  -7.306  0.00  0.00    +0.145 HD
ENDBRANCH  34  35
ENDBRANCH  33  34
ENDBRANCH   5  33
TORSDOF 5
