REMARK  Name = ZINC13567660
REMARK  6 active torsions:
REMARK  status: ('A' for Active; 'I' for Inactive)
REMARK    1  A    between atoms: C_1  and  C_2
REMARK    2  A    between atoms: C_2  and  C_34
REMARK    3  A    between atoms: N_16  and  C_19
REMARK    4  A    between atoms: C_20  and  C_32
REMARK    5  A    between atoms: C_21  and  N_31
REMARK    6  A    between atoms: N_22  and  C_23
REMARK                            x       y       z     vdW  Elec       q    Type
REMARK                         _______ _______ _______ _____ _____    ______ ____
ROOT
ATOM      1  C   UNL     1       1.998   1.123   2.138  0.00  0.00    +0.011 C 
ATOM      2  C   UNL     1       2.364   1.376   0.674  0.00  0.00    -0.023 C 
ATOM      3  C   UNL     1       2.491   0.041  -0.063  0.00  0.00    +0.058 C 
ATOM      4  C   UNL     1       1.169  -0.685  -0.030  0.00  0.00    +0.026 C 
ATOM      5  C   UNL     1       0.002  -0.004   0.002  0.00  0.00    +0.037 C 
ATOM      6  C   UNL     1      -0.017   1.401   0.010  0.00  0.00    +0.163 C 
ATOM      7  O   UNL     1      -1.084   1.983   0.018  0.00  0.00    -0.292 OA
ATOM      8  C   UNL     1       1.259   2.198   0.002  0.00  0.00    +0.086 C 
ATOM      9  C   UNL     1      -1.315  -0.734   0.032  0.00  0.00    +0.141 C 
ATOM     10  C   UNL     1      -1.934  -0.648   1.393  0.00  0.00    -0.001 A 
ATOM     11  C   UNL     1      -1.508  -1.110   2.619  0.00  0.00    +0.007 A 
ATOM     12  C   UNL     1      -2.335  -0.860   3.709  0.00  0.00    +0.000 A 
ATOM     13  C   UNL     1      -3.527  -0.179   3.567  0.00  0.00    +0.002 A 
ATOM     14  C   UNL     1      -3.961   0.289   2.337  0.00  0.00    +0.024 A 
ATOM     15  C   UNL     1      -3.141   0.043   1.234  0.00  0.00    +0.041 A 
ATOM     16  N   UNL     1      -3.326   0.390  -0.093  0.00  0.00    -0.273 N 
ATOM     17  C   UNL     1      -2.306  -0.026  -0.871  0.00  0.00    +0.240 C 
ATOM     18  O   UNL     1      -2.201   0.136  -2.069  0.00  0.00    -0.274 OA
ATOM     19  C   UNL     1      -4.492   1.123  -0.593  0.00  0.00    +0.138 C 
ATOM     20  C   UNL     1      -1.163  -2.163  -0.398  0.00  0.00    +0.089 C 
ATOM     21  C   UNL     1       0.057  -2.761  -0.413  0.00  0.00    +0.108 C 
ATOM     22  N   UNL     1       1.177  -2.054  -0.038  0.00  0.00    -0.257 N 
ATOM     23  C   UNL     1       3.689   2.135   0.595  0.00  0.00    +0.011 C 
ENDROOT
BRANCH  22  24
ATOM     24  C   UNL     1       2.338  -2.743   0.339  0.00  0.00    +0.075 A 
ATOM     25  C   UNL     1       2.540  -3.089   1.668  0.00  0.00    +0.029 A 
ATOM     26  C   UNL     1       3.682  -3.773   2.036  0.00  0.00    +0.040 A 
ATOM     27  C   UNL     1       4.631  -4.104   1.084  0.00  0.00    +0.126 A 
ATOM     28  C   UNL     1       4.435  -3.756  -0.242  0.00  0.00    +0.078 A 
ATOM     29  C   UNL     1       3.291  -3.076  -0.617  0.00  0.00    +0.148 A 
ATOM     30  F   UNL     1       3.100  -2.736  -1.911  0.00  0.00    -0.203 F 
ATOM     31  F   UNL     1       5.750  -4.768   1.448  0.00  0.00    -0.205 F 
ENDBRANCH  22  24
BRANCH  21  32
ATOM     32  N   UNL     1       0.173  -4.074  -0.803  0.00  0.00    -0.345 N 
ATOM     33  H   UNL     1       1.044  -4.501  -0.815  0.00  0.00    +0.144 HD
ATOM     34  H   UNL     1      -0.616  -4.573  -1.068  0.00  0.00    +0.144 HD
ENDBRANCH  21  32
BRANCH  20  35
ATOM     35  C   UNL     1      -2.320  -2.907  -0.797  0.00  0.00    +0.100 C 
ATOM     36  N   UNL     1      -3.237  -3.498  -1.114  0.00  0.00    -0.191 NA
ENDBRANCH  20  35
TORSDOF 3
