REMARK  Name = ZINC39661154
REMARK  9 active torsions:
REMARK  status: ('A' for Active; 'I' for Inactive)
REMARK    1  A    between atoms: C_1  and  O_2
REMARK    2  A    between atoms: O_2  and  C_3
REMARK    3  A    between atoms: C_5  and  C_13
REMARK    4  A    between atoms: C_7  and  O_11
REMARK    5  A    between atoms: C_8  and  O_9
REMARK    6  A    between atoms: O_9  and  C_10
REMARK    7  A    between atoms: O_11  and  C_12
REMARK    8  A    between atoms: C_17  and  C_26
REMARK    9  A    between atoms: N_28  and  C_29
REMARK                            x       y       z     vdW  Elec       q    Type
REMARK                         _______ _______ _______ _____ _____    ______ ____
ROOT
ATOM      1  C   UNL     1      -4.854   0.231   0.039  0.00  0.00    +0.247 C 
ATOM      2  O   UNL     1      -4.810   1.441   0.148  0.00  0.00    -0.270 OA
ATOM      3  N   UNL     1      -6.044  -0.394  -0.056  0.00  0.00    -0.296 N 
ATOM      4  C   UNL     1      -6.305  -1.853  -0.067  0.00  0.00    +0.121 C 
ATOM      5  C   UNL     1      -7.587  -2.026   0.778  0.00  0.00    +0.100 C 
ATOM      6  C   UNL     1      -8.294  -0.663   0.703  0.00  0.00    -0.004 C 
ATOM      7  C   UNL     1      -7.388   0.222  -0.167  0.00  0.00    +0.115 C 
ATOM      8  C   UNL     1      -9.666  -0.814   0.054  0.00  0.00    -0.010 C 
ATOM      9  C   UNL     1     -10.373   0.545   0.044  0.00  0.00    -0.082 C 
ATOM     10  N   UNL     1     -10.511   1.037   1.420  0.00  0.00    +0.379 N 
ATOM     11  C   UNL     1      -9.185   1.268   2.005  0.00  0.00    -0.082 C 
ATOM     12  C   UNL     1      -8.428  -0.060   2.098  0.00  0.00    -0.010 C 
ATOM     13  H   UNL     1     -11.031   1.902   1.416  0.00  0.00    -0.086 HD
ATOM     14  H   UNL     1     -11.007   0.353   1.972  0.00  0.00    -0.086 HD
ENDROOT
BRANCH   1  17
ATOM     15  C   UNL     1      -1.275  -0.780   0.570  0.00  0.00    +0.166 A 
ATOM     16  C   UNL     1      -2.444  -0.043   0.599  0.00  0.00    +0.062 A 
ATOM     17  C   UNL     1      -3.604  -0.553   0.009  0.00  0.00    +0.044 A 
ATOM     18  C   UNL     1      -3.578  -1.806  -0.608  0.00  0.00    +0.062 A 
ATOM     19  C   UNL     1      -2.406  -2.538  -0.634  0.00  0.00    +0.166 A 
ATOM     20  C   UNL     1      -1.250  -2.026  -0.050  0.00  0.00    +0.204 A 
BRANCH  15  22
ATOM     21  C   UNL     1      -0.242   1.000   1.762  0.00  0.00    +0.277 C 
ATOM     22  O   UNL     1      -0.145  -0.284   1.144  0.00  0.00    -0.491 OA
ENDBRANCH  15  22
BRANCH  20  23
ATOM     23  O   UNL     1      -0.098  -2.746  -0.081  0.00  0.00    -0.488 OA
ATOM     24  C   UNL     1       0.135  -3.644   1.005  0.00  0.00    +0.277 C 
ENDBRANCH  20  23
BRANCH  19  25
ATOM     25  O   UNL     1      -2.381  -3.759  -1.234  0.00  0.00    -0.491 OA
ATOM     26  C   UNL     1      -3.601  -4.221  -1.817  0.00  0.00    +0.277 C 
ENDBRANCH  19  25
ENDBRANCH   1  17
BRANCH   5  27
ATOM     27  C   UNL     1      -8.460  -3.105   0.191  0.00  0.00    +0.219 C 
ATOM     28  O   UNL     1      -8.381  -3.375  -0.989  0.00  0.00    -0.275 OA
ATOM     29  N   UNL     1      -9.329  -3.771   0.977  0.00  0.00    -0.304 N 
ATOM     30  H   UNL     1      -9.393  -3.556   1.921  0.00  0.00    +0.149 HD
BRANCH  29  31
ATOM     31  C   UNL     1     -10.178  -4.820   0.407  0.00  0.00    +0.151 C 
ATOM     32  C   UNL     1     -10.534  -5.824   1.505  0.00  0.00    +0.042 C 
ATOM     33  C   UNL     1     -11.833  -6.548   1.077  0.00  0.00    +0.079 C 
ATOM     34  S   UNL     1     -12.666  -5.257   0.076  0.00  0.00    -0.086 S 
ATOM     35  C   UNL     1     -11.408  -4.183  -0.196  0.00  0.00    +0.209 C 
ATOM     36  O   UNL     1     -11.473  -3.112  -0.763  0.00  0.00    -0.283 OA
ENDBRANCH  29  31
ENDBRANCH   5  27
TORSDOF 6
