REMARK  Name = ZINC40983096
REMARK  9 active torsions:
REMARK  status: ('A' for Active; 'I' for Inactive)
REMARK    1  A    between atoms: C_1  and  C_2
REMARK    2  A    between atoms: C_2  and  C_3
REMARK    3  A    between atoms: C_3  and  S_4
REMARK    4  A    between atoms: S_4  and  C_5
REMARK    5  A    between atoms: C_10  and  C_26
REMARK    6  A    between atoms: C_12  and  C_16
REMARK    7  A    between atoms: C_13  and  C_15
REMARK    8  A    between atoms: N_18  and  C_19
REMARK    9  A    between atoms: C_24  and  C_25
REMARK                            x       y       z     vdW  Elec       q    Type
REMARK                         _______ _______ _______ _____ _____    ______ ____
ROOT
ATOM      1  C   UNL     1       1.810  -2.660  -2.666  0.00  0.00    +0.210 A 
ATOM      2  N   UNL     1       2.260  -1.796  -3.587  0.00  0.00    -0.187 NA
ATOM      3  C   UNL     1       2.779  -2.456  -4.587  0.00  0.00    +0.219 A 
ATOM      4  N   UNL     1       2.665  -3.781  -4.322  0.00  0.00    -0.218 N 
ATOM      5  N   UNL     1       2.046  -3.888  -3.077  0.00  0.00    -0.141 NA
ATOM      6  C   UNL     1       3.132  -4.829  -5.226  0.00  0.00    +0.195 C 
ATOM      7  C   UNL     1       3.993  -4.219  -6.299  0.00  0.00    +0.062 C 
ATOM      8  C   UNL     1       4.069  -2.897  -6.513  0.00  0.00    +0.018 C 
ATOM      9  N   UNL     1       3.369  -1.991  -5.754  0.00  0.00    -0.287 N 
ATOM     10  C   UNL     1       4.953  -2.389  -7.622  0.00  0.00    +0.061 C 
ATOM     11  H   UNL     1       3.289  -1.063  -6.024  0.00  0.00    +0.155 HD
ENDROOT
BRANCH   6  12
ATOM     12  C   UNL     1       1.946  -5.510  -5.859  0.00  0.00    +0.070 A 
ATOM     13  C   UNL     1       0.820  -4.771  -6.170  0.00  0.00    +0.026 A 
ATOM     14  C   UNL     1      -0.266  -5.407  -6.753  0.00  0.00    +0.003 A 
ATOM     15  C   UNL     1      -0.177  -6.769  -7.003  0.00  0.00    +0.020 A 
ATOM     16  C   UNL     1       0.982  -7.441  -6.665  0.00  0.00    +0.111 A 
ATOM     17  N   UNL     1       1.997  -6.802  -6.116  0.00  0.00    -0.257 NA
ENDBRANCH   6  12
BRANCH   7  18
ATOM     18  C   UNL     1       4.758  -5.080  -7.120  0.00  0.00    +0.248 C 
ATOM     19  O   UNL     1       5.811  -5.535  -6.710  0.00  0.00    -0.270 OA
ATOM     20  N   UNL     1       4.322  -5.396  -8.355  0.00  0.00    -0.281 N 
ATOM     21  H   UNL     1       3.517  -4.985  -8.706  0.00  0.00    +0.155 HD
BRANCH  20  22
ATOM     22  C   UNL     1       5.031  -6.319  -9.132  0.00  0.00    +0.037 A 
ATOM     23  C   UNL     1       6.417  -6.378  -9.050  0.00  0.00    +0.023 A 
ATOM     24  C   UNL     1       7.113  -7.290  -9.818  0.00  0.00    +0.002 A 
ATOM     25  C   UNL     1       6.433  -8.143 -10.668  0.00  0.00    +0.000 A 
ATOM     26  C   UNL     1       5.054  -8.086 -10.752  0.00  0.00    +0.005 A 
ATOM     27  C   UNL     1       4.351  -7.181  -9.982  0.00  0.00    -0.029 A 
ATOM     28  C   UNL     1       2.848  -7.123 -10.070  0.00  0.00    +0.045 C 
ENDBRANCH  20  22
ENDBRANCH   7  18
BRANCH   1  29
ATOM     29  S   UNL     1       1.033  -2.223  -1.146  0.00  0.00    -0.084 S 
BRANCH  29  30
ATOM     30  C   UNL     1       1.004  -0.409  -1.174  0.00  0.00    +0.077 C 
BRANCH  30  32
ATOM     31  C   UNL     1       0.322   1.640   0.082  0.00  0.00    +0.004 C 
ATOM     32  C   UNL     1       0.347   0.111   0.106  0.00  0.00    +0.008 C 
ENDBRANCH  30  32
ENDBRANCH  29  30
ENDBRANCH   1  29
TORSDOF 6
