REMARK  Name = ZINC21540904
REMARK  8 active torsions:
REMARK  status: ('A' for Active; 'I' for Inactive)
REMARK    1  A    between atoms: C_1  and  C_2
REMARK    2  A    between atoms: N_10  and  C_11
REMARK    3  A    between atoms: C_11  and  C_12
REMARK    4  A    between atoms: N_14  and  C_15
REMARK    5  A    between atoms: C_18  and  O_23
REMARK    6  A    between atoms: C_20  and  O_21
REMARK    7  A    between atoms: O_21  and  C_22
REMARK    8  A    between atoms: O_23  and  C_24
REMARK                            x       y       z     vdW  Elec       q    Type
REMARK                         _______ _______ _______ _____ _____    ______ ____
ROOT
ATOM      1  C   UNL     1      -1.825   7.522   2.886  0.00  0.00    +0.235 C 
ATOM      2  O   UNL     1      -2.290   6.774   3.720  0.00  0.00    -0.274 OA
ATOM      3  N   UNL     1      -1.116   7.024   1.853  0.00  0.00    -0.281 N 
ATOM      4  H   UNL     1      -0.633   7.707   1.138  0.00  0.00    +0.155 HD
ENDROOT
BRANCH   3   5
ATOM      5  C   UNL     1      -0.994   5.636   1.690  0.00  0.00    +0.077 A 
ATOM      6  C   UNL     1      -0.921   4.811   2.803  0.00  0.00    +0.050 A 
ATOM      7  C   UNL     1      -0.807   3.442   2.642  0.00  0.00    +0.084 A 
ATOM      8  C   UNL     1      -0.755   2.893   1.368  0.00  0.00    +0.142 A 
ATOM      9  C   UNL     1      -0.828   3.715   0.254  0.00  0.00    +0.094 A 
ATOM     10  C   UNL     1      -0.947   5.086   0.412  0.00  0.00    +0.145 A 
ATOM     11 CL   UNL     1      -0.723   2.410   4.035  0.00  0.00    -0.080 Cl
BRANCH  10  12
ATOM     12  O   UNL     1      -1.019   5.894  -0.680  0.00  0.00    -0.493 OA
ATOM     13  C   UNL     1      -0.966   5.260  -1.960  0.00  0.00    +0.277 C 
ENDBRANCH  10  12
BRANCH   8  14
ATOM     14  O   UNL     1      -0.638   1.547   1.213  0.00  0.00    -0.494 OA
ATOM     15  C   UNL     1      -0.596   1.050  -0.126  0.00  0.00    +0.277 C 
ENDBRANCH   8  14
ENDBRANCH   3   5
BRANCH   1  16
ATOM     16  C   UNL     1      -2.039   9.009   3.005  0.00  0.00    +0.202 C 
BRANCH  16  26
ATOM     17  C   UNL     1      -7.142   7.279   3.087  0.00  0.00    +0.067 C 
ATOM     18  C   UNL     1      -5.923   7.724   3.855  0.00  0.00    +0.062 A 
ATOM     19  C   UNL     1      -4.839   8.434   3.329  0.00  0.00    +0.068 A 
ATOM     20  C   UNL     1      -3.952   8.642   4.335  0.00  0.00    +0.120 A 
ATOM     21  N   UNL     1      -4.467   8.079   5.456  0.00  0.00    -0.250 N 
ATOM     22  N   UNL     1      -5.700   7.512   5.128  0.00  0.00    -0.175 NA
ATOM     23  C   UNL     1      -3.805   8.090   6.765  0.00  0.00    +0.147 C 
ATOM     24  C   UNL     1      -2.687   9.142   6.716  0.00  0.00    +0.042 C 
ATOM     25  C   UNL     1      -1.887   8.957   5.423  0.00  0.00    +0.109 C 
ATOM     26  N   UNL     1      -2.730   9.304   4.268  0.00  0.00    -0.307 N 
ENDBRANCH  16  26
ENDBRANCH   1  16
TORSDOF 5
