REMARK  Name = ZINC20911513
REMARK  12 active torsions:
REMARK  status: ('A' for Active; 'I' for Inactive)
REMARK    1  A    between atoms: C_1  and  C_2
REMARK    2  A    between atoms: C_3  and  C_11
REMARK    3  A    between atoms: C_4  and  C_10
REMARK    4  A    between atoms: N_5  and  C_7
REMARK    5  A    between atoms: C_7  and  C_8
REMARK    6  A    between atoms: C_7  and  C_9
REMARK    7  A    between atoms: N_12  and  N_13
REMARK    8  A    between atoms: C_17  and  S_20
REMARK    9  A    between atoms: N_18  and  N_19
REMARK   10  A    between atoms: S_20  and  C_21
REMARK   11  A    between atoms: C_21  and  C_22
REMARK   12  A    between atoms: N_24  and  C_25
REMARK                            x       y       z     vdW  Elec       q    Type
REMARK                         _______ _______ _______ _____ _____    ______ ____
ROOT
ATOM      1  N   UNL     1      -1.149   2.164  -0.007  0.00  0.00    -0.204 N 
ATOM      2  C   UNL     1      -0.016   1.364  -0.013  0.00  0.00    +0.254 A 
ATOM      3  N   UNL     1       1.225   1.786  -0.029  0.00  0.00    -0.109 NA
ATOM      4  N   UNL     1       2.064   0.663  -0.036  0.00  0.00    -0.119 NA
ATOM      5  C   UNL     1       1.307  -0.408  -0.025  0.00  0.00    +0.210 A 
ATOM      6  N   UNL     1       0.002  -0.003  -0.011  0.00  0.00    -0.211 N 
ATOM      7  H   UNL     1      -2.148   1.703   0.001  0.00  0.00    +0.177 HD
ENDROOT
BRANCH   6   8
ATOM      8  N   UNL     1      -1.092  -0.821   0.004  0.00  0.00    -0.294 N 
ATOM      9  H   UNL     1      -0.962  -1.913   0.004  0.00  0.00    +0.163 HD
ATOM     10  H   UNL     1      -2.103  -0.387   0.015  0.00  0.00    +0.163 HD
ENDBRANCH   6   8
BRANCH   1  12
ATOM     11  C   UNL     1      -2.082   4.308  -0.004  0.00  0.00    +0.141 C 
ATOM     12  N   UNL     1      -1.022   3.559  -0.010  0.00  0.00    -0.187 NA
BRANCH  11  15
ATOM     13  C   UNL     1       0.649   5.920  -0.027  0.00  0.00    +0.068 C 
ATOM     14  C   UNL     1      -0.739   6.507  -0.018  0.00  0.00    +0.069 A 
ATOM     15  C   UNL     1      -1.947   5.778  -0.007  0.00  0.00    +0.038 A 
ATOM     16  C   UNL     1      -2.978   6.692  -0.007  0.00  0.00    +0.045 A 
ATOM     17  N   UNL     1      -2.425   7.922  -0.007  0.00  0.00    -0.265 N 
ATOM     18  N   UNL     1      -1.033   7.780  -0.018  0.00  0.00    -0.175 NA
ATOM     19  C   UNL     1      -4.451   6.376  -0.004  0.00  0.00    +0.066 C 
BRANCH  17  20
ATOM     20  C   UNL     1      -3.157   9.191  -0.004  0.00  0.00    +0.101 C 
ATOM     21  C   UNL     1      -2.777   9.995   1.241  0.00  0.00    +0.032 C 
ATOM     22  C   UNL     1      -2.797   9.992  -1.257  0.00  0.00    +0.032 C 
ENDBRANCH  17  20
ENDBRANCH  11  15
ENDBRANCH   1  12
BRANCH   5  23
ATOM     23  S   UNL     1       1.874  -2.076  -0.029  0.00  0.00    -0.075 S 
BRANCH  23  24
ATOM     24  C   UNL     1       3.682  -1.925  -0.050  0.00  0.00    +0.173 C 
BRANCH  24  25
ATOM     25  C   UNL     1       4.301  -3.300  -0.055  0.00  0.00    +0.227 C 
ATOM     26  O   UNL     1       3.592  -4.284  -0.045  0.00  0.00    -0.275 OA
ATOM     27  N   UNL     1       5.641  -3.435  -0.070  0.00  0.00    -0.285 N 
ATOM     28  H   UNL     1       6.283  -2.545  -0.156  0.00  0.00    +0.155 HD
BRANCH  27  29
ATOM     29  C   UNL     1       6.218  -4.707   0.023  0.00  0.00    +0.036 A 
ATOM     30  C   UNL     1       7.417  -4.879   0.702  0.00  0.00    +0.026 A 
ATOM     31  C   UNL     1       7.982  -6.136   0.799  0.00  0.00    +0.043 A 
ATOM     32  C   UNL     1       7.360  -7.223   0.209  0.00  0.00    +0.159 A 
ATOM     33  C   UNL     1       6.166  -7.054  -0.475  0.00  0.00    +0.160 A 
ATOM     34  C   UNL     1       5.594  -5.798  -0.568  0.00  0.00    +0.064 A 
ATOM     35  F   UNL     1       5.560  -8.116  -1.049  0.00  0.00    -0.202 F 
ATOM     36  F   UNL     1       7.917  -8.450   0.301  0.00  0.00    -0.202 F 
ENDBRANCH  27  29
ENDBRANCH  24  25
ENDBRANCH  23  24
ENDBRANCH   5  23
TORSDOF 8
