REMARK  Name = ZINC10731794
REMARK  8 active torsions:
REMARK  status: ('A' for Active; 'I' for Inactive)
REMARK    1  A    between atoms: C_1  and  C_2
REMARK    2  A    between atoms: C_5  and  N_8
REMARK    3  A    between atoms: C_9  and  C_28
REMARK    4  A    between atoms: C_12  and  S_13
REMARK    5  A    between atoms: S_13  and  C_14
REMARK    6  A    between atoms: C_14  and  C_16
REMARK    7  A    between atoms: C_14  and  C_17
REMARK    8  A    between atoms: N_22  and  C_23
REMARK                            x       y       z     vdW  Elec       q    Type
REMARK                         _______ _______ _______ _____ _____    ______ ____
ROOT
ATOM      1  N   UNL     1      11.723   4.100   1.087  0.00  0.00    -0.270 N 
ATOM      2  C   UNL     1      12.758   3.599   0.326  0.00  0.00    +0.169 A 
ATOM      3  N   UNL     1      12.251   2.664  -0.444  0.00  0.00    -0.128 NA
ATOM      4  N   UNL     1      10.992   2.542  -0.218  0.00  0.00    -0.122 NA
ATOM      5  C   UNL     1      10.613   3.399   0.705  0.00  0.00    +0.197 A 
ENDROOT
BRANCH   1  10
ATOM      6  C   UNL     1      12.010   8.209   4.992  0.00  0.00    +0.044 C 
ATOM      7  C   UNL     1      11.934   7.117   3.955  0.00  0.00    -0.050 A 
ATOM      8  C   UNL     1      11.670   5.816   4.341  0.00  0.00    +0.005 A 
ATOM      9  C   UNL     1      11.599   4.814   3.393  0.00  0.00    +0.026 A 
ATOM     10  C   UNL     1      11.794   5.114   2.052  0.00  0.00    +0.051 A 
ATOM     11  C   UNL     1      12.065   6.421   1.668  0.00  0.00    +0.026 A 
ATOM     12  C   UNL     1      12.129   7.420   2.620  0.00  0.00    +0.005 A 
ENDBRANCH   1  10
BRANCH   2  13
ATOM     13  C   UNL     1      14.169   4.033   0.370  0.00  0.00    +0.022 A 
ATOM     14  C   UNL     1      15.051   3.720  -0.673  0.00  0.00    +0.031 A 
ATOM     15  C   UNL     1      16.358   4.150  -0.593  0.00  0.00    +0.111 A 
ATOM     16  N   UNL     1      16.785   4.836   0.451  0.00  0.00    -0.263 NA
ATOM     17  C   UNL     1      15.989   5.147   1.457  0.00  0.00    +0.111 A 
ATOM     18  C   UNL     1      14.665   4.762   1.458  0.00  0.00    +0.031 A 
ENDBRANCH   2  13
BRANCH   5  19
ATOM     19  S   UNL     1       8.980   3.601   1.336  0.00  0.00    -0.073 S 
BRANCH  19  20
ATOM     20  C   UNL     1       8.109   2.352   0.359  0.00  0.00    +0.137 C 
ATOM     21  C   UNL     1       8.631   0.961   0.726  0.00  0.00    +0.029 C 
BRANCH  20  22
ATOM     22  C   UNL     1       6.632   2.427   0.650  0.00  0.00    +0.233 C 
ATOM     23  O   UNL     1       6.241   2.959   1.667  0.00  0.00    -0.274 OA
ATOM     24  N   UNL     1       5.746   1.901  -0.219  0.00  0.00    -0.239 N 
ATOM     25  C   UNL     1       4.426   1.968   0.041  0.00  0.00    +0.306 C 
ATOM     26  O   UNL     1       4.033   2.502   1.060  0.00  0.00    -0.252 OA
ATOM     27  N   UNL     1       3.540   1.443  -0.828  0.00  0.00    -0.296 N 
ATOM     28  H   UNL     1       6.059   1.475  -1.032  0.00  0.00    +0.159 HD
ATOM     29  H   UNL     1       3.853   1.017  -1.641  0.00  0.00    +0.151 HD
BRANCH  27  30
ATOM     30  C   UNL     1       2.104   1.516  -0.545  0.00  0.00    +0.074 C 
ATOM     31  C   UNL     1       1.486   2.792  -1.168  0.00  0.00    +0.022 C 
ATOM     32  C   UNL     1      -0.008   2.445  -1.336  0.00  0.00    +0.002 C 
ATOM     33  C   UNL     1      -0.099   0.910  -1.401  0.00  0.00    +0.002 C 
ATOM     34  C   UNL     1       1.343   0.378  -1.270  0.00  0.00    +0.022 C 
ENDBRANCH  27  30
ENDBRANCH  20  22
ENDBRANCH  19  20
ENDBRANCH   5  19
TORSDOF 6
