REMARK  Name = ZINC04292991
REMARK  11 active torsions:
REMARK  status: ('A' for Active; 'I' for Inactive)
REMARK    1  A    between atoms: C_1  and  C_2
REMARK    2  A    between atoms: C_2  and  C_4
REMARK    3  A    between atoms: C_2  and  C_10
REMARK    4  A    between atoms: C_4  and  C_5
REMARK    5  A    between atoms: C_5  and  C_6
REMARK    6  A    between atoms: C_6  and  O_8
REMARK    7  A    between atoms: O_8  and  C_9
REMARK    8  A    between atoms: C_16  and  C_37
REMARK    9  A    between atoms: C_23  and  O_36
REMARK   10  A    between atoms: C_25  and  O_35
REMARK   11  A    between atoms: C_29  and  C_34
REMARK                            x       y       z     vdW  Elec       q    Type
REMARK                         _______ _______ _______ _____ _____    ______ ____
ROOT
ATOM      1  C   UNL     1       4.374  -0.008  -1.999  0.00  0.00    -0.002 C 
ATOM      2  C   UNL     1       4.400   1.522  -2.116  0.00  0.00    +0.004 C 
ATOM      3  C   UNL     1       3.193   2.043  -1.312  0.00  0.00    +0.005 C 
ATOM      4  C   UNL     1       2.192   0.867  -1.328  0.00  0.00    +0.001 C 
ATOM      5  C   UNL     1       3.048  -0.395  -1.282  0.00  0.00    -0.026 C 
ATOM      6  C   UNL     1       3.443  -0.801   0.135  0.00  0.00    +0.007 C 
ATOM      7  C   UNL     1       2.262  -0.764   1.105  0.00  0.00    +0.005 C 
ATOM      8  C   UNL     1       1.729   0.663   1.145  0.00  0.00    +0.001 C 
ATOM      9  C   UNL     1       1.176   1.036  -0.222  0.00  0.00    +0.027 C 
ATOM     10  C   UNL     1      -0.152   0.366  -0.528  0.00  0.00    +0.147 C 
ATOM     11  C   UNL     1      -1.160   0.669   0.586  0.00  0.00    +0.147 C 
ATOM     12  C   UNL     1      -0.608   0.164   1.921  0.00  0.00    +0.026 C 
ATOM     13  C   UNL     1       0.697   0.886   2.245  0.00  0.00    -0.024 C 
ATOM     14  C   UNL     1       0.429   2.391   2.372  0.00  0.00    +0.007 C 
ATOM     15  C   UNL     1      -0.622   2.669   3.442  0.00  0.00    +0.001 C 
ATOM     16  C   UNL     1      -1.917   1.923   3.128  0.00  0.00    +0.000 C 
ATOM     17  C   UNL     1      -1.646   0.424   3.014  0.00  0.00    +0.007 C 
ATOM     18  C   UNL     1       1.258   0.379   3.578  0.00  0.00    +0.012 C 
ATOM     19  C   UNL     1       2.397  -1.569  -2.033  0.00  0.00    +0.012 C 
ENDROOT
BRANCH   1  21
ATOM     20  C   UNL     1       3.381   0.038  -4.293  0.00  0.00    +0.008 C 
ATOM     21  C   UNL     1       4.413  -0.644  -3.392  0.00  0.00    -0.010 C 
BRANCH  21  22
ATOM     22  C   UNL     1       5.809  -0.470  -3.993  0.00  0.00    +0.014 C 
BRANCH  22  23
ATOM     23  C   UNL     1       5.869  -1.168  -5.353  0.00  0.00    +0.121 C 
BRANCH  23  24
ATOM     24  C   UNL     1       7.244  -0.997  -5.946  0.00  0.00    +0.307 C 
ATOM     25  O   UNL     1       8.089  -0.380  -5.342  0.00  0.00    -0.251 OA
BRANCH  24  26
ATOM     26  O   UNL     1       7.529  -1.530  -7.144  0.00  0.00    -0.468 OA
ATOM     27  C   UNL     1       8.874  -1.325  -7.653  0.00  0.00    +0.280 C 
ENDBRANCH  24  26
ENDBRANCH  23  24
ENDBRANCH  22  23
ENDBRANCH  21  22
ENDBRANCH   1  21
BRANCH  11  28
ATOM     28  O   UNL     1      -2.390   0.000   0.296  0.00  0.00    -0.389 OA
ATOM     29  H   UNL     1      -2.796   0.266  -0.540  0.00  0.00    +0.210 HD
ENDBRANCH  11  28
BRANCH  10  30
ATOM     30  O   UNL     1      -0.034  -1.046  -0.664  0.00  0.00    -0.389 OA
ATOM     31  H   UNL     1      -0.868  -1.494  -0.859  0.00  0.00    +0.210 HD
ENDBRANCH  10  30
TORSDOF 7
