REMARK  Name = ZINC21191047
REMARK  7 active torsions:
REMARK  status: ('A' for Active; 'I' for Inactive)
REMARK    1  A    between atoms: C_1  and  O_2
REMARK    2  A    between atoms: O_2  and  C_3
REMARK    3  A    between atoms: C_5  and  C_13
REMARK    4  A    between atoms: C_7  and  N_10
REMARK    5  A    between atoms: C_8  and  O_9
REMARK    6  A    between atoms: C_14  and  C_15
REMARK    7  A    between atoms: C_20  and  C_25
REMARK                            x       y       z     vdW  Elec       q    Type
REMARK                         _______ _______ _______ _____ _____    ______ ____
ROOT
ATOM      1  C   UNL     1       2.453   0.293   4.186  0.00  0.00    +0.031 C 
ATOM      2  C   UNL     1       2.984  -0.324   5.271  0.00  0.00    +0.086 C 
ATOM      3 CL   UNL     1       3.057  -2.057   5.335  0.00  0.00    -0.080 Cl
ENDROOT
BRANCH   2   4
ATOM      4  C   UNL     1       3.495   0.472   6.389  0.00  0.00    +0.176 A 
ATOM      5  N   UNL     1       3.427   1.801   6.328  0.00  0.00    -0.188 NA
ATOM      6  C   UNL     1       3.874   2.565   7.309  0.00  0.00    +0.283 A 
ATOM      7  O   UNL     1       3.791   3.912   7.219  0.00  0.00    -0.265 OA
ATOM      8  C   UNL     1       4.443   1.952   8.460  0.00  0.00    +0.082 A 
ATOM      9  C   UNL     1       4.999   2.556   9.659  0.00  0.00    +0.010 A 
ATOM     10  C   UNL     1       5.507   1.617  10.665  0.00  0.00    +0.057 A 
ATOM     11  S   UNL     1       5.236   0.100  10.005  0.00  0.00    -0.076 S 
ATOM     12  C   UNL     1       4.486   0.538   8.462  0.00  0.00    +0.116 A 
ATOM     13  N   UNL     1       4.017  -0.151   7.453  0.00  0.00    -0.219 NA
BRANCH   9  14
ATOM     14  C   UNL     1       5.046   3.944   9.842  0.00  0.00    +0.021 A 
ATOM     15  C   UNL     1       4.625   4.712  10.958  0.00  0.00    +0.016 A 
ATOM     16  C   UNL     1       4.799   6.052  10.844  0.00  0.00    +0.008 A 
ATOM     17  C   UNL     1       5.359   6.558   9.680  0.00  0.00    +0.046 A 
ATOM     18  S   UNL     1       5.658   5.201   8.736  0.00  0.00    -0.097 S 
ENDBRANCH   9  14
ENDBRANCH   2   4
BRANCH   1  21
ATOM     19  C   UNL     1       0.660  -0.846   1.097  0.00  0.00    +0.164 A 
ATOM     20  C   UNL     1       0.997  -0.104   2.210  0.00  0.00    +0.057 A 
ATOM     21  C   UNL     1       2.088  -0.491   3.002  0.00  0.00    -0.018 A 
ATOM     22  C   UNL     1       2.830  -1.630   2.657  0.00  0.00    +0.044 A 
ATOM     23  C   UNL     1       2.485  -2.364   1.545  0.00  0.00    +0.172 A 
ATOM     24  C   UNL     1       1.400  -1.982   0.764  0.00  0.00    +0.189 A 
BRANCH  23  25
ATOM     25  N   UNL     1       3.269  -3.566   1.181  0.00  0.00    +0.060 N 
ATOM     26  O   UNL     1       4.295  -3.932   1.922  0.00  0.00    -0.126 OA
ATOM     27  O   UNL     1       2.941  -4.269   0.117  0.00  0.00    -0.126 OA
ENDBRANCH  23  25
BRANCH  19  29
ATOM     28  C   UNL     1      -1.110   0.698   0.727  0.00  0.00    +0.277 C 
ATOM     29  O   UNL     1      -0.398  -0.474   0.328  0.00  0.00    -0.491 OA
ENDBRANCH  19  29
BRANCH  24  30
ATOM     30  O   UNL     1       1.062  -2.713  -0.329  0.00  0.00    -0.502 OA
ATOM     31  H   UNL     1       1.501  -2.430  -1.143  0.00  0.00    +0.292 HD
ENDBRANCH  24  30
ENDBRANCH   1  21
TORSDOF 6
