REMARK  Name = ZINC32227320
REMARK  6 active torsions:
REMARK  status: ('A' for Active; 'I' for Inactive)
REMARK    1  A    between atoms: C_1  and  C_2
REMARK    2  A    between atoms: C_7  and  S_8
REMARK    3  A    between atoms: S_8  and  N_11
REMARK    4  A    between atoms: N_11  and  C_12
REMARK    5  A    between atoms: N_11  and  C_13
REMARK    6  A    between atoms: C_17  and  N_19
REMARK                            x       y       z     vdW  Elec       q    Type
REMARK                         _______ _______ _______ _____ _____    ______ ____
ROOT
ATOM      1  N   UNL     1      -3.514   1.204   1.485  0.00  0.00    -0.206 N 
ATOM      2  C   UNL     1      -3.292   0.480   2.739  0.00  0.00    +0.157 C 
ENDROOT
BRANCH   1   3
ATOM      3  C   UNL     1      -4.471   2.222   1.425  0.00  0.00    +0.053 A 
ATOM      4  C   UNL     1      -4.343   3.242   0.490  0.00  0.00    +0.027 A 
ATOM      5  C   UNL     1      -5.291   4.245   0.426  0.00  0.00    +0.042 A 
ATOM      6  C   UNL     1      -6.363   4.244   1.299  0.00  0.00    +0.144 A 
ATOM      7  C   UNL     1      -6.493   3.228   2.241  0.00  0.00    +0.062 A 
ATOM      8  C   UNL     1      -5.545   2.217   2.303  0.00  0.00    +0.050 A 
ATOM      9  F   UNL     1      -7.286   5.229   1.237  0.00  0.00    -0.204 F 
BRANCH   7  10
ATOM     10  N   UNL     1      -7.578   3.226   3.123  0.00  0.00    -0.356 N 
ATOM     11  H   UNL     1      -7.680   2.423   3.868  0.00  0.00    +0.142 HD
ATOM     12  H   UNL     1      -8.329   4.028   3.073  0.00  0.00    +0.142 HD
ENDBRANCH   7  10
ENDBRANCH   1   3
BRANCH   1  13
ATOM     13  S   UNL     1      -2.631   0.817   0.138  0.00  0.00    +0.075 S 
ATOM     14  O   UNL     1      -3.472   1.059  -0.982  0.00  0.00    -0.150 OA
ATOM     15  O   UNL     1      -2.042  -0.452   0.389  0.00  0.00    -0.150 OA
BRANCH  13  22
ATOM     16  C   UNL     1      -0.392   1.025   2.159  0.00  0.00    +0.046 C 
ATOM     17  C   UNL     1      -0.327   1.994   1.007  0.00  0.00    -0.021 A 
ATOM     18  C   UNL     1       0.709   2.906   0.929  0.00  0.00    +0.043 A 
ATOM     19  C   UNL     1       0.768   3.796  -0.130  0.00  0.00    +0.124 A 
ATOM     20  C   UNL     1      -0.211   3.772  -1.109  0.00  0.00    +0.040 A 
ATOM     21  C   UNL     1      -1.246   2.860  -1.028  0.00  0.00    +0.032 A 
ATOM     22  C   UNL     1      -1.307   1.975   0.033  0.00  0.00    +0.112 A 
ATOM     23  F   UNL     1       1.780   4.687  -0.207  0.00  0.00    -0.205 F 
ENDBRANCH  13  22
ENDBRANCH   1  13
TORSDOF 4
