REMARK  Name = ZINC39696701
REMARK  11 active torsions:
REMARK  status: ('A' for Active; 'I' for Inactive)
REMARK    1  A    between atoms: C_1  and  N_2
REMARK    2  A    between atoms: C_6  and  C_9
REMARK    3  A    between atoms: C_9  and  N_10
REMARK    4  A    between atoms: C_11  and  C_13
REMARK    5  A    between atoms: C_24  and  C_26
REMARK    6  A    between atoms: C_28  and  O_36
REMARK    7  A    between atoms: C_29  and  O_34
REMARK    8  A    between atoms: C_30  and  O_32
REMARK    9  A    between atoms: O_32  and  C_33
REMARK   10  A    between atoms: O_34  and  C_35
REMARK   11  A    between atoms: O_36  and  C_37
REMARK                            x       y       z     vdW  Elec       q    Type
REMARK                         _______ _______ _______ _____ _____    ______ ____
ROOT
ATOM      1  C   UNL     1       1.600  -5.943   3.700  0.00  0.00    +0.100 C 
ATOM      2  C   UNL     1       0.246  -6.685   3.760  0.00  0.00    +0.121 C 
ATOM      3  N   UNL     1       0.526  -7.912   4.543  0.00  0.00    -0.296 N 
ATOM      4  C   UNL     1       1.449  -7.463   5.614  0.00  0.00    +0.115 C 
ATOM      5  C   UNL     1       2.386  -6.456   4.918  0.00  0.00    -0.004 C 
ATOM      6  C   UNL     1       2.712  -5.301   5.861  0.00  0.00    -0.010 C 
ATOM      7  C   UNL     1       3.544  -5.826   7.035  0.00  0.00    -0.082 C 
ATOM      8  N   UNL     1       4.780  -6.434   6.528  0.00  0.00    +0.379 N 
ATOM      9  C   UNL     1       4.460  -7.601   5.697  0.00  0.00    -0.082 C 
ATOM     10  C   UNL     1       3.667  -7.151   4.467  0.00  0.00    -0.010 C 
ATOM     11  C   UNL     1       0.050  -9.154   4.331  0.00  0.00    +0.247 C 
ATOM     12  O   UNL     1      -0.600  -9.393   3.331  0.00  0.00    -0.270 OA
ATOM     13  H   UNL     1       5.284  -5.757   5.976  0.00  0.00    -0.086 HD
ATOM     14  H   UNL     1       5.354  -6.724   7.306  0.00  0.00    -0.086 HD
ENDROOT
BRANCH  11  15
ATOM     15  C   UNL     1       0.316 -10.225   5.311  0.00  0.00    +0.044 A 
ATOM     16  C   UNL     1       0.657  -9.900   6.626  0.00  0.00    +0.062 A 
ATOM     17  C   UNL     1       0.906 -10.905   7.543  0.00  0.00    +0.166 A 
ATOM     18  C   UNL     1       0.818 -12.239   7.155  0.00  0.00    +0.204 A 
ATOM     19  C   UNL     1       0.479 -12.566   5.845  0.00  0.00    +0.166 A 
ATOM     20  C   UNL     1       0.223 -11.565   4.927  0.00  0.00    +0.062 A 
BRANCH  19  21
ATOM     21  O   UNL     1       0.394 -13.870   5.470  0.00  0.00    -0.491 OA
ATOM     22  C   UNL     1       0.041 -14.132   4.110  0.00  0.00    +0.277 C 
ENDBRANCH  19  21
BRANCH  18  23
ATOM     23  O   UNL     1       1.064 -13.225   8.058  0.00  0.00    -0.488 OA
ATOM     24  C   UNL     1      -0.051 -13.708   8.811  0.00  0.00    +0.277 C 
ENDBRANCH  18  23
BRANCH  17  25
ATOM     25  O   UNL     1       1.238 -10.589   8.823  0.00  0.00    -0.491 OA
ATOM     26  C   UNL     1       1.311  -9.200   9.151  0.00  0.00    +0.277 C 
ENDBRANCH  17  25
ENDBRANCH  11  15
BRANCH   1  28
ATOM     27  N   UNL     1       2.247  -3.609   3.199  0.00  0.00    -0.313 N 
ATOM     28  C   UNL     1       1.388  -4.455   3.801  0.00  0.00    +0.218 C 
ATOM     29  O   UNL     1       0.444  -4.018   4.425  0.00  0.00    -0.275 OA
ATOM     30  H   UNL     1       3.002  -3.958   2.700  0.00  0.00    +0.149 HD
BRANCH  27  31
ATOM     31  C   UNL     1       2.041  -2.162   3.297  0.00  0.00    +0.137 C 
BRANCH  31  37
ATOM     32  C   UNL     1       3.851   2.226   1.992  0.00  0.00    +0.105 C 
ATOM     33  N   UNL     1       4.045   0.770   1.963  0.00  0.00    -0.301 NA
ATOM     34  C   UNL     1       5.333   0.398   2.564  0.00  0.00    +0.112 C 
ATOM     35  C   UNL     1       5.521  -1.118   2.459  0.00  0.00    +0.175 C 
ATOM     36  O   UNL     1       4.419  -1.774   3.091  0.00  0.00    -0.372 OA
ATOM     37  C   UNL     1       3.148  -1.435   2.530  0.00  0.00    +0.149 C 
ATOM     38  C   UNL     1       2.936   0.077   2.636  0.00  0.00    +0.117 C 
ENDBRANCH  31  37
ENDBRANCH  27  31
ENDBRANCH   1  28
TORSDOF 7
