REMARK  Name = ZINC21810712
REMARK  9 active torsions:
REMARK  status: ('A' for Active; 'I' for Inactive)
REMARK    1  A    between atoms: C_1  and  C_2
REMARK    2  A    between atoms: C_7  and  C_36
REMARK    3  A    between atoms: N_9  and  C_10
REMARK    4  A    between atoms: C_10  and  C_11
REMARK    5  A    between atoms: C_11  and  C_12
REMARK    6  A    between atoms: C_12  and  N_13
REMARK    7  A    between atoms: C_22  and  C_23
REMARK    8  A    between atoms: C_22  and  C_24
REMARK    9  A    between atoms: N_26  and  C_27
REMARK                            x       y       z     vdW  Elec       q    Type
REMARK                         _______ _______ _______ _____ _____    ______ ____
ROOT
ATOM      1  N   UNL     1       0.373   5.425   2.229  0.00  0.00    -0.281 N 
ATOM      2  C   UNL     1       1.674   5.499   1.863  0.00  0.00    +0.264 C 
ATOM      3  O   UNL     1       2.576   5.332   2.663  0.00  0.00    -0.268 OA
ATOM      4  C   UNL     1       1.940   5.791   0.449  0.00  0.00    +0.109 A 
ATOM      5  C   UNL     1       3.101   5.758  -0.264  0.00  0.00    +0.079 A 
ATOM      6  C   UNL     1       2.797   6.124  -1.583  0.00  0.00    +0.153 A 
ATOM      7  C   UNL     1       1.429   6.389  -1.643  0.00  0.00    +0.088 A 
ATOM      8  N   UNL     1       0.910   6.198  -0.398  0.00  0.00    -0.331 N 
ATOM      9  C   UNL     1      -0.460   6.367   0.087  0.00  0.00    +0.157 C 
ATOM     10  C   UNL     1      -0.705   5.402   1.247  0.00  0.00    +0.128 C 
ATOM     11  C   UNL     1      -2.014   5.784   1.941  0.00  0.00    +0.043 C 
ATOM     12  C   UNL     1       1.158   6.749  -2.985  0.00  0.00    +0.067 A 
ATOM     13  C   UNL     1       2.321   6.694  -3.656  0.00  0.00    +0.198 A 
ATOM     14  O   UNL     1       3.304   6.322  -2.819  0.00  0.00    -0.461 OA
ENDROOT
BRANCH  10  15
ATOM     15  C   UNL     1      -0.835   4.004   0.699  0.00  0.00    +0.238 C 
ATOM     16  O   UNL     1      -1.930   3.555   0.434  0.00  0.00    -0.273 OA
ATOM     17  N   UNL     1       0.267   3.252   0.504  0.00  0.00    -0.311 N 
ATOM     18  H   UNL     1       1.260   3.658   0.744  0.00  0.00    +0.149 HD
BRANCH  17  19
ATOM     19  C   UNL     1       0.141   1.893  -0.029  0.00  0.00    +0.073 C 
ATOM     20  C   UNL     1      -0.135   0.919   1.118  0.00  0.00    +0.022 C 
ATOM     21  C   UNL     1      -0.266  -0.500   0.562  0.00  0.00    +0.002 C 
ATOM     22  C   UNL     1       1.034  -0.895  -0.142  0.00  0.00    +0.000 C 
ATOM     23  C   UNL     1       1.310   0.079  -1.289  0.00  0.00    +0.002 C 
ATOM     24  C   UNL     1       1.441   1.498  -0.732  0.00  0.00    +0.022 C 
ENDBRANCH  17  19
ENDBRANCH  10  15
BRANCH   1  25
ATOM     25  C   UNL     1       0.038   5.366   3.654  0.00  0.00    +0.107 C 
BRANCH  25  26
ATOM     26  C   UNL     1      -0.008   3.905   4.107  0.00  0.00    +0.000 C 
BRANCH  26  27
ATOM     27  C   UNL     1      -0.358   3.844   5.596  0.00  0.00    -0.077 C 
BRANCH  27  34
ATOM     28  C   UNL     1      -2.668   2.255   5.355  0.00  0.00    -0.013 C 
ATOM     29  C   UNL     1      -1.275   1.625   5.285  0.00  0.00    -0.071 C 
ATOM     30  C   UNL     1      -1.323   0.215   5.877  0.00  0.00    -0.016 C 
ATOM     31  C   UNL     1       0.077  -0.404   5.823  0.00  0.00    -0.003 C 
ATOM     32  C   UNL     1       1.054   0.496   6.585  0.00  0.00    -0.016 C 
ATOM     33  C   UNL     1       1.032   1.898   5.972  0.00  0.00    -0.071 C 
ATOM     34  N   UNL     1      -0.327   2.447   6.048  0.00  0.00    +0.383 N 
ATOM     35  C   UNL     1       1.993   2.806   6.743  0.00  0.00    -0.013 C 
ATOM     36  H   UNL     1      -0.639   2.425   7.103  0.00  0.00    -0.081 HD
ENDBRANCH  27  34
ENDBRANCH  26  27
ENDBRANCH  25  26
ENDBRANCH   1  25
TORSDOF 6
