REMARK  Name = ZINC67352798
REMARK  11 active torsions:
REMARK  status: ('A' for Active; 'I' for Inactive)
REMARK    1  A    between atoms: C_1  and  C_2
REMARK    2  A    between atoms: C_4  and  O_21
REMARK    3  A    between atoms: C_7  and  N_8
REMARK    4  A    between atoms: C_9  and  C_11
REMARK    5  A    between atoms: N_13  and  C_14
REMARK    6  A    between atoms: C_14  and  C_15
REMARK    7  A    between atoms: C_15  and  C_16
REMARK    8  A    between atoms: C_15  and  C_17
REMARK    9  A    between atoms: C_15  and  C_18
REMARK   10  A    between atoms: O_21  and  C_22
REMARK   11  A    between atoms: C_25  and  C_28
REMARK                            x       y       z     vdW  Elec       q    Type
REMARK                         _______ _______ _______ _____ _____    ______ ____
ROOT
ATOM      1  N   UNL     1      -1.033  -0.960   2.270  0.00  0.00    -0.278 N 
ATOM      2  C   UNL     1      -1.373  -1.793   3.273  0.00  0.00    +0.303 C 
ATOM      3  O   UNL     1      -1.381  -2.993   3.089  0.00  0.00    -0.265 OA
ATOM      4  H   UNL     1      -0.953  -0.007   2.436  0.00  0.00    +0.155 HD
ENDROOT
BRANCH   1  11
ATOM      5  C   UNL     1      -1.516   0.741   0.042  0.00  0.00    +0.046 C 
ATOM      6  C   UNL     1      -1.019  -0.671  -0.127  0.00  0.00    -0.026 A 
ATOM      7  C   UNL     1      -0.780  -1.172  -1.391  0.00  0.00    +0.051 A 
ATOM      8  C   UNL     1      -0.322  -2.473  -1.548  0.00  0.00    +0.129 A 
ATOM      9  C   UNL     1      -0.105  -3.271  -0.433  0.00  0.00    +0.048 A 
ATOM     10  C   UNL     1      -0.343  -2.772   0.831  0.00  0.00    +0.027 A 
ATOM     11  C   UNL     1      -0.796  -1.468   0.989  0.00  0.00    +0.037 A 
BRANCH   8  12
ATOM     12  O   UNL     1      -0.087  -2.965  -2.793  0.00  0.00    -0.456 OA
BRANCH  12  13
ATOM     13  C   UNL     1      -0.306  -2.147  -3.853  0.00  0.00    +0.129 A 
ATOM     14  C   UNL     1       0.614  -1.152  -4.162  0.00  0.00    +0.047 A 
ATOM     15  C   UNL     1       0.396  -0.319  -5.237  0.00  0.00    +0.022 A 
ATOM     16  C   UNL     1      -0.752  -0.476  -6.019  0.00  0.00    +0.052 A 
ATOM     17  C   UNL     1      -1.674  -1.479  -5.705  0.00  0.00    +0.022 A 
ATOM     18  C   UNL     1      -1.446  -2.310  -4.631  0.00  0.00    +0.047 A 
BRANCH  16  19
ATOM     19  C   UNL     1      -0.982   0.387  -7.138  0.00  0.00    +0.099 C 
ATOM     20  N   UNL     1      -1.165   1.072  -8.025  0.00  0.00    -0.191 NA
ENDBRANCH  16  19
ENDBRANCH  12  13
ENDBRANCH   8  12
ENDBRANCH   1  11
BRANCH   2  21
ATOM     21  C   UNL     1      -1.738  -1.240   4.612  0.00  0.00    +0.299 C 
ATOM     22  O   UNL     1      -1.730  -0.041   4.795  0.00  0.00    -0.265 OA
ATOM     23  N   UNL     1      -2.078  -2.073   5.615  0.00  0.00    -0.307 N 
ATOM     24  H   UNL     1      -2.085  -3.032   5.468  0.00  0.00    +0.149 HD
BRANCH  23  25
ATOM     25  C   UNL     1      -2.437  -1.531   6.928  0.00  0.00    +0.120 C 
BRANCH  25  26
ATOM     26  C   UNL     1      -2.777  -2.680   7.878  0.00  0.00    +0.057 C 
ATOM     27  C   UNL     1      -3.957  -3.475   7.316  0.00  0.00    +0.022 C 
ATOM     28  C   UNL     1      -1.564  -3.601   8.021  0.00  0.00    +0.022 C 
BRANCH  26  29
ATOM     29  C   UNL     1      -3.146  -2.123   9.229  0.00  0.00    +0.218 C 
ATOM     30  O   UNL     1      -3.138  -0.924   9.413  0.00  0.00    -0.275 OA
ATOM     31  N   UNL     1      -3.486  -2.956  10.232  0.00  0.00    -0.329 N 
ATOM     32  H   UNL     1      -3.493  -3.914  10.085  0.00  0.00    +0.145 HD
ATOM     33  H   UNL     1      -3.724  -2.597  11.102  0.00  0.00    +0.145 HD
ENDBRANCH  26  29
ENDBRANCH  25  26
ENDBRANCH  23  25
ENDBRANCH   2  21
TORSDOF 8
