REMARK  Name = ZINC05466517
REMARK  6 active torsions:
REMARK  status: ('A' for Active; 'I' for Inactive)
REMARK    1  A    between atoms: C_1  and  N_2
REMARK    2  A    between atoms: C_3  and  N_25
REMARK    3  A    between atoms: C_4  and  C_11
REMARK    4  A    between atoms: C_11  and  C_13
REMARK    5  A    between atoms: C_13  and  S_14
REMARK    6  A    between atoms: S_14  and  C_15
REMARK                            x       y       z     vdW  Elec       q    Type
REMARK                         _______ _______ _______ _____ _____    ______ ____
ROOT
ATOM      1  C   UNL     1      -2.480  -2.605   0.022  0.00  0.00    +0.182 C 
ATOM      2  O   UNL     1      -3.493  -1.938  -0.055  0.00  0.00    -0.291 OA
ENDROOT
BRANCH   1   6
ATOM      3  C   UNL     1       0.265   1.450   0.033  0.00  0.00    +0.155 C 
ATOM      4  N   UNL     1       0.138  -0.010   0.013  0.00  0.00    -0.285 N 
ATOM      5  C   UNL     1      -1.106  -0.574   0.028  0.00  0.00    +0.116 A 
ATOM      6  C   UNL     1      -1.218  -1.975   0.008  0.00  0.00    +0.120 A 
ATOM      7  C   UNL     1       0.022  -2.762  -0.028  0.00  0.00    +0.266 A 
ATOM      8  O   UNL     1      -0.015  -3.978  -0.047  0.00  0.00    -0.267 OA
ATOM      9  N   UNL     1       1.202  -2.108  -0.040  0.00  0.00    -0.274 N 
ATOM     10  H   UNL     1       2.029  -2.614  -0.064  0.00  0.00    +0.173 HD
ATOM     11  C   UNL     1       1.246  -0.766  -0.025  0.00  0.00    +0.330 A 
ATOM     12  O   UNL     1       2.330  -0.216  -0.042  0.00  0.00    -0.246 OA
BRANCH   5  13
ATOM     13  N   UNL     1      -2.219   0.208   0.062  0.00  0.00    -0.344 N 
ATOM     14  H   UNL     1      -2.134   1.170   0.156  0.00  0.00    +0.144 HD
ATOM     15  H   UNL     1      -3.098  -0.196  -0.009  0.00  0.00    +0.144 HD
ENDBRANCH   5  13
ENDBRANCH   1   6
BRANCH   1  16
ATOM     16  C   UNL     1      -2.572  -4.105   0.134  0.00  0.00    +0.156 C 
BRANCH  16  17
ATOM     17  S   UNL     1      -4.316  -4.606   0.126  0.00  0.00    -0.091 S 
BRANCH  17  18
ATOM     18  C   UNL     1      -4.255  -6.362   0.262  0.00  0.00    +0.136 A 
ATOM     19  N   UNL     1      -3.204  -7.146   0.355  0.00  0.00    -0.233 NA
ATOM     20  C   UNL     1      -3.309  -8.489   0.454  0.00  0.00    +0.081 A 
ATOM     21  C   UNL     1      -2.267  -9.439   0.559  0.00  0.00    +0.049 A 
ATOM     22  C   UNL     1      -2.547 -10.779   0.652  0.00  0.00    +0.043 A 
ATOM     23  C   UNL     1      -3.854 -11.248   0.645  0.00  0.00    +0.021 A 
ATOM     24  C   UNL     1      -4.897 -10.345   0.544  0.00  0.00    +0.018 A 
ATOM     25  C   UNL     1      -4.625  -9.003   0.451  0.00  0.00    +0.040 A 
ATOM     26  S   UNL     1      -5.608  -7.529   0.315  0.00  0.00    -0.061 S 
ATOM     27 CL   UNL     1      -1.239 -11.913   0.779  0.00  0.00    -0.083 Cl
ENDBRANCH  17  18
ENDBRANCH  16  17
ENDBRANCH   1  16
TORSDOF 5
