REMARK  Name = ZINC40089846
REMARK  3 active torsions:
REMARK  status: ('A' for Active; 'I' for Inactive)
REMARK    1  A    between atoms: C_3  and  C_20
REMARK    2  A    between atoms: C_11  and  C_13
REMARK    3  A    between atoms: C_14  and  C_15
REMARK                            x       y       z     vdW  Elec       q    Type
REMARK                         _______ _______ _______ _____ _____    ______ ____
ROOT
ATOM      1  C   UNL     1       0.009   1.292  -0.109  0.00  0.00    +0.003 A 
ATOM      2  C   UNL     1       1.191   2.004  -0.129  0.00  0.00    +0.013 A 
ATOM      3  C   UNL     1       2.412   1.330  -0.113  0.00  0.00    +0.041 A 
ATOM      4  C   UNL     1       2.438  -0.067  -0.075  0.00  0.00    -0.014 A 
ATOM      5  C   UNL     1       1.247  -0.770  -0.052  0.00  0.00    +0.040 A 
ATOM      6  C   UNL     1       0.034  -0.089  -0.070  0.00  0.00    +0.024 A 
ATOM      7  N   UNL     1       1.242  -2.171  -0.004  0.00  0.00    -0.268 N 
ATOM      8  C   UNL     1       2.489  -2.896  -0.281  0.00  0.00    +0.114 C 
ATOM      9  C   UNL     1       3.619  -2.192   0.480  0.00  0.00    +0.024 C 
ATOM     10  C   UNL     1       3.770  -0.771  -0.063  0.00  0.00    +0.039 C 
ATOM     11  C   UNL     1       0.110  -2.841   0.292  0.00  0.00    +0.244 C 
ATOM     12  O   UNL     1      -0.931  -2.233   0.460  0.00  0.00    -0.270 OA
ENDROOT
BRANCH   3  13
ATOM     13  C   UNL     1       3.678   2.094  -0.136  0.00  0.00    +0.242 C 
ATOM     14  O   UNL     1       4.740   1.512  -0.036  0.00  0.00    -0.270 OA
ATOM     15  N   UNL     1       3.654   3.435  -0.268  0.00  0.00    -0.325 N 
ATOM     16  H   UNL     1       2.806   3.899  -0.347  0.00  0.00    +0.145 HD
ATOM     17  H   UNL     1       4.485   3.936  -0.283  0.00  0.00    +0.145 HD
ENDBRANCH   3  13
BRANCH  11  18
ATOM     18  C   UNL     1       0.133  -4.251   0.406  0.00  0.00    +0.069 C 
ATOM     19  C   UNL     1      -1.022  -4.934   0.601  0.00  0.00    +0.020 C 
BRANCH  19  20
ATOM     20  C   UNL     1      -0.999  -6.345   0.716  0.00  0.00    +0.012 A 
ATOM     21  C   UNL     1      -2.057  -7.226   0.909  0.00  0.00    +0.015 A 
ATOM     22  C   UNL     1      -1.719  -8.556   0.981  0.00  0.00    +0.008 A 
ATOM     23  C   UNL     1      -0.415  -8.913   0.861  0.00  0.00    +0.046 A 
ATOM     24  S   UNL     1       0.393  -7.457   0.641  0.00  0.00    -0.097 S 
ENDBRANCH  19  20
ENDBRANCH  11  18
TORSDOF 3
