REMARK  Name = ZINC67479368
REMARK  7 active torsions:
REMARK  status: ('A' for Active; 'I' for Inactive)
REMARK    1  A    between atoms: C_1  and  C_2
REMARK    2  A    between atoms: C_6  and  C_7
REMARK    3  A    between atoms: N_9  and  N_10
REMARK    4  A    between atoms: N_13  and  C_14
REMARK    5  A    between atoms: C_14  and  C_15
REMARK    6  A    between atoms: N_20  and  C_21
REMARK    7  A    between atoms: C_21  and  C_22
REMARK                            x       y       z     vdW  Elec       q    Type
REMARK                         _______ _______ _______ _____ _____    ______ ____
ROOT
ATOM      1  N   UNL     1       0.058  -0.732   4.900  0.00  0.00    -0.218 N 
ATOM      2  C   UNL     1       0.080  -1.625   5.909  0.00  0.00    +0.316 C 
ATOM      3  O   UNL     1       0.086  -1.239   7.062  0.00  0.00    -0.251 OA
ATOM      4  N   UNL     1       0.096  -2.945   5.640  0.00  0.00    -0.300 N 
ATOM      5  H   UNL     1       0.047   0.219   5.094  0.00  0.00    +0.174 HD
ATOM      6  H   UNL     1       0.091  -3.253   4.720  0.00  0.00    +0.150 HD
ENDROOT
BRANCH   1   9
ATOM      7  C   UNL     1       0.030  -0.283   2.562  0.00  0.00    +0.267 C 
ATOM      8  O   UNL     1       0.016   0.910   2.805  0.00  0.00    -0.268 OA
ATOM      9  N   UNL     1       0.052  -1.176   3.571  0.00  0.00    -0.229 N 
ATOM     10  H   UNL     1       0.063  -2.126   3.378  0.00  0.00    +0.173 HD
BRANCH   7  16
ATOM     11  C   UNL     1      -0.018   1.503   0.010  0.00  0.00    +0.045 C 
ATOM     12  C   UNL     1       0.002  -0.004   0.002  0.00  0.00    -0.031 A 
ATOM     13  C   UNL     1       0.007  -0.729  -1.166  0.00  0.00    +0.011 A 
ATOM     14  C   UNL     1       0.026  -2.083  -1.101  0.00  0.00    +0.046 A 
ATOM     15  S   UNL     1       0.038  -2.416   0.545  0.00  0.00    -0.092 S 
ATOM     16  C   UNL     1       0.023  -0.748   1.172  0.00  0.00    +0.078 A 
ENDBRANCH   7  16
ENDBRANCH   1   9
BRANCH   4  17
ATOM     17  C   UNL     1       0.119  -3.916   6.737  0.00  0.00    +0.090 C 
BRANCH  17  18
ATOM     18  C   UNL     1       0.133  -5.334   6.163  0.00  0.00    -0.051 C 
ATOM     19  C   UNL     1       0.328  -6.359   7.300  0.00  0.00    -0.016 C 
ATOM     20  C   UNL     1       1.258  -7.421   6.657  0.00  0.00    -0.020 C 
ATOM     21  C   UNL     1       2.164  -6.542   5.760  0.00  0.00    -0.078 C 
ATOM     22  N   UNL     1       1.267  -5.488   5.233  0.00  0.00    +0.383 N 
ATOM     23  H   UNL     1       1.770  -4.616   5.163  0.00  0.00    -0.081 HD
BRANCH  22  24
ATOM     24  C   UNL     1       0.769  -5.876   3.906  0.00  0.00    -0.075 C 
BRANCH  24  25
ATOM     25  C   UNL     1       1.934  -5.913   2.915  0.00  0.00    -0.028 C 
ATOM     26  C   UNL     1       2.498  -4.502   2.738  0.00  0.00    +0.002 C 
ATOM     27  C   UNL     1       3.663  -4.538   1.747  0.00  0.00    +0.000 C 
ATOM     28  C   UNL     1       3.168  -5.062   0.398  0.00  0.00    +0.000 C 
ATOM     29  C   UNL     1       2.604  -6.473   0.574  0.00  0.00    +0.000 C 
ATOM     30  C   UNL     1       1.439  -6.437   1.565  0.00  0.00    +0.002 C 
ENDBRANCH  24  25
ENDBRANCH  22  24
ENDBRANCH  17  18
ENDBRANCH   4  17
TORSDOF 6
