REMARK  Name = ZINC67629179
REMARK  9 active torsions:
REMARK  status: ('A' for Active; 'I' for Inactive)
REMARK    1  A    between atoms: C_1  and  C_2
REMARK    2  A    between atoms: C_10  and  C_11
REMARK    3  A    between atoms: C_11  and  C_13
REMARK    4  A    between atoms: C_11  and  N_14
REMARK    5  A    between atoms: N_17  and  C_18
REMARK    6  A    between atoms: N_17  and  C_19
REMARK    7  A    between atoms: C_19  and  C_21
REMARK    8  A    between atoms: C_19  and  C_22
REMARK    9  A    between atoms: C_26  and  O_28
REMARK                            x       y       z     vdW  Elec       q    Type
REMARK                         _______ _______ _______ _____ _____    ______ ____
ROOT
ATOM      1  N   UNL     1      -0.918  -1.153   3.287  0.00  0.00    -0.290 N 
ATOM      2  C   UNL     1      -1.462  -0.647   4.411  0.00  0.00    +0.303 C 
ATOM      3  O   UNL     1      -1.141   0.460   4.797  0.00  0.00    -0.253 OA
ATOM      4  N   UNL     1      -2.361  -1.370   5.109  0.00  0.00    -0.282 N 
ATOM      5  C   UNL     1      -2.748  -2.704   4.644  0.00  0.00    +0.134 C 
ATOM      6  H   UNL     1      -1.174  -2.037   2.979  0.00  0.00    +0.151 HD
ENDROOT
BRANCH   1   7
ATOM      7  C   UNL     1       0.059  -0.368   2.529  0.00  0.00    +0.138 C 
ATOM      8  C   UNL     1       1.454  -0.579   3.123  0.00  0.00    +0.036 C 
BRANCH   7  18
ATOM      9  C   UNL     1       0.060   1.516   0.057  0.00  0.00    +0.048 C 
ATOM     10  C   UNL     1       0.054   0.009   0.031  0.00  0.00    +0.000 A 
ATOM     11  C   UNL     1       0.054  -0.852  -1.157  0.00  0.00    +0.023 A 
ATOM     12  C   UNL     1       0.059  -0.618  -2.531  0.00  0.00    +0.012 A 
ATOM     13  C   UNL     1       0.056  -1.674  -3.399  0.00  0.00    +0.001 A 
ATOM     14  C   UNL     1       0.050  -2.976  -2.921  0.00  0.00    +0.004 A 
ATOM     15  C   UNL     1       0.046  -3.228  -1.566  0.00  0.00    +0.047 A 
ATOM     16  C   UNL     1       0.048  -2.169  -0.666  0.00  0.00    +0.136 A 
ATOM     17  O   UNL     1       0.044  -2.094   0.680  0.00  0.00    -0.458 OA
ATOM     18  C   UNL     1       0.054  -0.814   1.089  0.00  0.00    +0.129 A 
ENDBRANCH   7  18
ENDBRANCH   1   7
BRANCH   4  19
ATOM     19  C   UNL     1      -2.952  -0.820   6.331  0.00  0.00    +0.104 C 
ATOM     20  C   UNL     1      -4.478  -0.869   6.227  0.00  0.00    +0.033 C 
BRANCH  19  21
ATOM     21  C   UNL     1      -2.504  -1.636   7.516  0.00  0.00    -0.024 A 
ATOM     22  C   UNL     1      -1.898  -1.014   8.593  0.00  0.00    +0.006 A 
ATOM     23  C   UNL     1      -1.486  -1.759   9.682  0.00  0.00    +0.004 A 
ATOM     24  C   UNL     1      -1.677  -3.127   9.697  0.00  0.00    +0.045 A 
ATOM     25  C   UNL     1      -2.284  -3.753   8.618  0.00  0.00    +0.117 A 
ATOM     26  C   UNL     1      -2.703  -3.002   7.529  0.00  0.00    +0.050 A 
BRANCH  25  27
ATOM     27  O   UNL     1      -2.473  -5.099   8.630  0.00  0.00    -0.507 OA
ATOM     28  H   UNL     1      -3.318  -5.374   9.012  0.00  0.00    +0.292 HD
ENDBRANCH  25  27
ENDBRANCH  19  21
ENDBRANCH   4  19
TORSDOF 5
