REMARK  Name = ZINC06279692
REMARK  9 active torsions:
REMARK  status: ('A' for Active; 'I' for Inactive)
REMARK    1  A    between atoms: C_1  and  C_2
REMARK    2  A    between atoms: C_2  and  C_3
REMARK    3  A    between atoms: C_2  and  O_4
REMARK    4  A    between atoms: O_4  and  C_5
REMARK    5  A    between atoms: C_5  and  C_7
REMARK    6  A    between atoms: C_7  and  C_25
REMARK    7  A    between atoms: C_8  and  C_9
REMARK    8  A    between atoms: C_13  and  N_15
REMARK    9  A    between atoms: C_16  and  C_18
REMARK                            x       y       z     vdW  Elec       q    Type
REMARK                         _______ _______ _______ _____ _____    ______ ____
ROOT
ATOM      1  C   UNL     1       7.383   1.791  -0.018  0.00  0.00    -0.022 A 
ATOM      2  C   UNL     1       7.606   0.410   0.072  0.00  0.00    +0.008 A 
ATOM      3  C   UNL     1       6.546  -0.446   0.279  0.00  0.00    +0.002 A 
ATOM      4  C   UNL     1       5.261   0.051   0.397  0.00  0.00    +0.023 A 
ATOM      5  C   UNL     1       5.026   1.419   0.308  0.00  0.00    +0.034 A 
ATOM      6  C   UNL     1       6.081   2.291   0.096  0.00  0.00    +0.031 A 
ENDROOT
BRANCH   5   7
ATOM      7  N   UNL     1       3.723   1.913   0.428  0.00  0.00    -0.281 N 
ATOM      8  C   UNL     1       3.502   3.082   1.062  0.00  0.00    +0.250 C 
ATOM      9  O   UNL     1       4.420   3.659   1.611  0.00  0.00    -0.270 OA
ATOM     10  H   UNL     1       2.979   1.415   0.056  0.00  0.00    +0.155 HD
BRANCH   8  11
ATOM     11  C   UNL     1       2.143   3.662   1.089  0.00  0.00    +0.055 A 
ATOM     12  C   UNL     1       1.086   3.002   0.460  0.00  0.00    +0.014 A 
ATOM     13  C   UNL     1      -0.180   3.548   0.490  0.00  0.00    +0.001 A 
ATOM     14  C   UNL     1      -0.405   4.748   1.141  0.00  0.00    +0.001 A 
ATOM     15  C   UNL     1       0.635   5.406   1.772  0.00  0.00    +0.021 A 
ATOM     16  C   UNL     1       1.910   4.873   1.745  0.00  0.00    +0.053 A 
ATOM     17 CL   UNL     1       3.217   5.704   2.531  0.00  0.00    -0.083 Cl
ENDBRANCH   8  11
ENDBRANCH   5   7
BRANCH   1  19
ATOM     18  C   UNL     1       9.578   2.310  -1.007  0.00  0.00    +0.136 C 
ATOM     19  C   UNL     1       8.508   2.707  -0.237  0.00  0.00    +0.034 C 
BRANCH  18  20
ATOM     20  C   UNL     1      10.776   3.159  -1.093  0.00  0.00    +0.350 C 
ATOM     21  O   UNL     1      10.820   4.211  -0.486  0.00  0.00    -0.244 OA
BRANCH  20  22
ATOM     22  O   UNL     1      11.824   2.771  -1.847  0.00  0.00    -0.458 OA
BRANCH  22  24
ATOM     23  C   UNL     1      14.245   2.837  -2.097  0.00  0.00    +0.052 C 
ATOM     24  C   UNL     1      12.972   3.659  -1.886  0.00  0.00    +0.171 C 
ATOM     25  C   UNL     1      12.810   4.652  -3.038  0.00  0.00    +0.052 C 
ENDBRANCH  22  24
ENDBRANCH  20  22
ENDBRANCH  18  20
BRANCH  18  26
ATOM     26  C   UNL     1       9.525   1.071  -1.722  0.00  0.00    +0.106 C 
ATOM     27  N   UNL     1       9.483   0.088  -2.290  0.00  0.00    -0.191 NA
ENDBRANCH  18  26
ENDBRANCH   1  19
TORSDOF 7
