REMARK  Name = ZINC39954539
REMARK  6 active torsions:
REMARK  status: ('A' for Active; 'I' for Inactive)
REMARK    1  A    between atoms: C_1  and  C_2
REMARK    2  A    between atoms: C_2  and  C_3
REMARK    3  A    between atoms: C_2  and  C_4
REMARK    4  A    between atoms: C_4  and  C_5
REMARK    5  A    between atoms: C_7  and  C_11
REMARK    6  A    between atoms: C_17  and  C_20
REMARK                            x       y       z     vdW  Elec       q    Type
REMARK                         _______ _______ _______ _____ _____    ______ ____
ROOT
ATOM      1  C   UNL     1      -2.671  -5.035   0.559  0.00  0.00    +0.181 A 
ATOM      2  N   UNL     1      -3.843  -4.843   0.030  0.00  0.00    -0.129 NA
ATOM      3  N   UNL     1      -4.692  -5.674   0.524  0.00  0.00    -0.121 NA
ATOM      4  C   UNL     1      -4.102  -6.423   1.402  0.00  0.00    +0.211 A 
ATOM      5  N   UNL     1      -2.773  -6.088   1.452  0.00  0.00    -0.222 N 
ATOM      6  N   UNL     1      -1.938  -6.798   2.262  0.00  0.00    -0.262 N 
ATOM      7  C   UNL     1      -2.609  -7.528   3.371  0.00  0.00    +0.202 C 
ATOM      8  S   UNL     1      -4.271  -7.731   2.599  0.00  0.00    -0.054 S 
ATOM      9  H   UNL     1      -1.352  -7.418   1.724  0.00  0.00    +0.168 HD
ENDROOT
BRANCH   7  10
ATOM     10  C   UNL     1      -1.950  -8.856   3.640  0.00  0.00    +0.091 A 
ATOM     11  C   UNL     1      -2.698  -9.915   4.122  0.00  0.00    +0.136 A 
ATOM     12  N   UNL     1      -2.120 -11.079   4.357  0.00  0.00    -0.260 NA
ATOM     13  C   UNL     1      -0.826 -11.232   4.133  0.00  0.00    +0.130 A 
ATOM     14  C   UNL     1      -0.078 -10.173   3.651  0.00  0.00    +0.131 A 
ATOM     15  N   UNL     1      -0.657  -9.010   3.411  0.00  0.00    -0.254 NA
ENDBRANCH   7  10
BRANCH   1  18
ATOM     16  C   UNL     1      -1.416  -2.035  -0.119  0.00  0.00    +0.062 C 
ATOM     17  C   UNL     1      -1.465  -2.886   0.907  0.00  0.00    +0.034 C 
ATOM     18  C   UNL     1      -1.420  -4.254   0.250  0.00  0.00    +0.222 C 
ATOM     19  N   UNL     1      -1.346  -3.930  -1.185  0.00  0.00    -0.172 NA
ATOM     20  N   UNL     1      -1.355  -2.701  -1.293  0.00  0.00    -0.158 NA
BRANCH  16  21
ATOM     21  C   UNL     1      -1.433  -0.534   0.013  0.00  0.00    +0.060 C 
BRANCH  21  23
ATOM     22  C   UNL     1      -0.019   1.526   0.010  0.00  0.00    +0.007 C 
ATOM     23  C   UNL     1       0.002  -0.004   0.002  0.00  0.00    -0.011 C 
ATOM     24  C   UNL     1       0.742  -0.511   1.242  0.00  0.00    +0.007 C 
ENDBRANCH  21  23
ENDBRANCH  16  21
ENDBRANCH   1  18
TORSDOF 4
