REMARK  Name = ZINC14792600
REMARK  10 active torsions:
REMARK  status: ('A' for Active; 'I' for Inactive)
REMARK    1  A    between atoms: C_1  and  C_2
REMARK    2  A    between atoms: C_2  and  C_4
REMARK    3  A    between atoms: C_2  and  N_10
REMARK    4  A    between atoms: C_11  and  C_13
REMARK    5  A    between atoms: C_18  and  N_19
REMARK    6  A    between atoms: C_20  and  C_22
REMARK    7  A    between atoms: C_22  and  S_23
REMARK    8  A    between atoms: S_23  and  C_24
REMARK    9  A    between atoms: C_27  and  C_33
REMARK   10  A    between atoms: C_29  and  N_30
REMARK                            x       y       z     vdW  Elec       q    Type
REMARK                         _______ _______ _______ _____ _____    ______ ____
ROOT
ATOM      1  N   UNL     1       3.363  -3.032  -0.026  0.00  0.00    -0.284 N 
ATOM      2  C   UNL     1       3.377  -1.815  -0.604  0.00  0.00    +0.227 C 
ATOM      3  O   UNL     1       4.382  -1.416  -1.154  0.00  0.00    -0.275 OA
ATOM      4  H   UNL     1       2.582  -3.325   0.469  0.00  0.00    +0.155 HD
ENDROOT
BRANCH   1  10
ATOM      5  C   UNL     1       4.296  -5.257  -0.251  0.00  0.00    +0.058 A 
ATOM      6  C   UNL     1       5.414  -6.086  -0.364  0.00  0.00    +0.015 A 
ATOM      7  C   UNL     1       6.678  -5.538  -0.366  0.00  0.00    +0.001 A 
ATOM      8  C   UNL     1       6.847  -4.167  -0.257  0.00  0.00    +0.002 A 
ATOM      9  C   UNL     1       5.751  -3.335  -0.149  0.00  0.00    +0.024 A 
ATOM     10  C   UNL     1       4.470  -3.870  -0.139  0.00  0.00    +0.046 A 
BRANCH   5  12
ATOM     11  N   UNL     1       2.779  -7.176  -0.244  0.00  0.00    -0.305 N 
ATOM     12  C   UNL     1       2.939  -5.837  -0.248  0.00  0.00    +0.246 C 
ATOM     13  O   UNL     1       1.966  -5.108  -0.249  0.00  0.00    -0.270 OA
ATOM     14  H   UNL     1       3.555  -7.757  -0.243  0.00  0.00    +0.150 HD
BRANCH  11  16
ATOM     15  C   UNL     1       0.914  -7.833   1.196  0.00  0.00    +0.033 C 
ATOM     16  C   UNL     1       1.432  -7.752  -0.242  0.00  0.00    +0.100 C 
BRANCH  16  17
ATOM     17  C   UNL     1       1.476  -9.135  -0.839  0.00  0.00    -0.027 A 
ATOM     18  C   UNL     1       2.531  -9.979  -0.549  0.00  0.00    +0.005 A 
ATOM     19  C   UNL     1       2.569 -11.249  -1.093  0.00  0.00    +0.000 A 
ATOM     20  C   UNL     1       1.556 -11.672  -1.934  0.00  0.00    +0.000 A 
ATOM     21  C   UNL     1       0.504 -10.825  -2.228  0.00  0.00    +0.000 A 
ATOM     22  C   UNL     1       0.464  -9.557  -1.681  0.00  0.00    +0.005 A 
ENDBRANCH  16  17
ENDBRANCH  11  16
ENDBRANCH   5  12
ENDBRANCH   1  10
BRANCH   2  23
ATOM     23  C   UNL     1       2.144  -0.949  -0.567  0.00  0.00    +0.170 C 
BRANCH  23  24
ATOM     24  S   UNL     1       2.478   0.615  -1.424  0.00  0.00    -0.114 S 
BRANCH  24  25
ATOM     25  C   UNL     1       0.961   1.503  -1.296  0.00  0.00    +0.039 A 
ATOM     26  C   UNL     1      -0.125   0.933  -0.636  0.00  0.00    +0.018 A 
ATOM     27  C   UNL     1      -1.304   1.614  -0.538  0.00  0.00    +0.014 A 
ATOM     28  C   UNL     1      -1.422   2.893  -1.091  0.00  0.00    +0.039 A 
ATOM     29  C   UNL     1      -0.334   3.468  -1.754  0.00  0.00    +0.047 A 
ATOM     30  C   UNL     1       0.851   2.774  -1.855  0.00  0.00    +0.140 A 
BRANCH  28  31
ATOM     31  C   UNL     1      -2.694   3.631  -0.980  0.00  0.00    +0.242 C 
ATOM     32  O   UNL     1      -2.797   4.742  -1.466  0.00  0.00    -0.270 OA
ATOM     33  N   UNL     1      -3.742   3.076  -0.341  0.00  0.00    -0.325 N 
ATOM     34  H   UNL     1      -3.660   2.191   0.047  0.00  0.00    +0.145 HD
ATOM     35  H   UNL     1      -4.579   3.562  -0.268  0.00  0.00    +0.145 HD
ENDBRANCH  28  31
BRANCH  30  36
ATOM     36  N   UNL     1       2.006   3.378  -2.555  0.00  0.00    +0.058 N 
ATOM     37  O   UNL     1       1.909   4.490  -3.044  0.00  0.00    -0.126 OA
ATOM     38  O   UNL     1       3.054   2.764  -2.643  0.00  0.00    -0.126 OA
ENDBRANCH  30  36
ENDBRANCH  24  25
ENDBRANCH  23  24
ENDBRANCH   2  23
TORSDOF 9
