REMARK  Name = ZINC35732262
REMARK  4 active torsions:
REMARK  status: ('A' for Active; 'I' for Inactive)
REMARK    1  A    between atoms: C_1  and  C_2
REMARK    2  A    between atoms: C_8  and  S_12
REMARK    3  A    between atoms: S_12  and  N_15
REMARK    4  A    between atoms: N_15  and  C_16
REMARK                            x       y       z     vdW  Elec       q    Type
REMARK                         _______ _______ _______ _____ _____    ______ ____
ROOT
ATOM      1  C   UNL     1      -0.018   1.503   0.010  0.00  0.00    +0.045 C 
ATOM      2  C   UNL     1       0.002  -0.004   0.002  0.00  0.00    -0.032 A 
ATOM      3  C   UNL     1       0.006  -0.681  -1.184  0.00  0.00    +0.015 A 
ATOM      4  C   UNL     1       0.026  -2.088  -1.146  0.00  0.00    +0.003 A 
ATOM      5  C   UNL     1       0.031  -2.852  -2.324  0.00  0.00    +0.010 A 
ATOM      6  C   UNL     1       0.051  -4.211  -2.245  0.00  0.00    +0.003 A 
ATOM      7  C   UNL     1       0.065  -4.855  -1.009  0.00  0.00    +0.031 A 
ATOM      8  C   UNL     1       0.060  -4.146   0.152  0.00  0.00    +0.134 A 
ATOM      9  C   UNL     1       0.041  -2.741   0.112  0.00  0.00    +0.098 A 
ATOM     10  N   UNL     1       0.037  -2.018   1.236  0.00  0.00    -0.253 NA
ATOM     11  C   UNL     1       0.023  -0.708   1.204  0.00  0.00    +0.114 A 
ENDROOT
BRANCH   8  12
ATOM     12  S   UNL     1       0.077  -4.986   1.701  0.00  0.00    +0.074 S 
ATOM     13  O   UNL     1      -0.953  -4.406   2.489  0.00  0.00    -0.150 OA
ATOM     14  O   UNL     1       0.122  -6.376   1.409  0.00  0.00    -0.150 OA
BRANCH  12  15
ATOM     15  N   UNL     1       1.509  -4.612   2.445  0.00  0.00    -0.213 N 
ATOM     16  H   UNL     1       2.166  -5.307   2.610  0.00  0.00    +0.174 HD
BRANCH  15  17
ATOM     17  C   UNL     1       1.773  -3.286   2.838  0.00  0.00    +0.085 A 
ATOM     18  C   UNL     1       2.934  -2.611   2.642  0.00  0.00    +0.129 A 
ATOM     19  N   UNL     1       2.777  -1.366   3.166  0.00  0.00    -0.283 N 
ATOM     20  H   UNL     1       3.443  -0.661   3.171  0.00  0.00    +0.188 HD
ATOM     21  N   UNL     1       1.483  -1.283   3.696  0.00  0.00    -0.180 NA
ATOM     22  C   UNL     1       0.881  -2.427   3.495  0.00  0.00    +0.158 A 
ENDBRANCH  15  17
ENDBRANCH  12  15
ENDBRANCH   8  12
TORSDOF 3
