REMARK  Name = ZINC50631151
REMARK  5 active torsions:
REMARK  status: ('A' for Active; 'I' for Inactive)
REMARK    1  A    between atoms: C_1  and  C_2
REMARK    2  A    between atoms: N_7  and  S_8
REMARK    3  A    between atoms: S_8  and  C_11
REMARK    4  A    between atoms: C_12  and  N_21
REMARK    5  A    between atoms: C_14  and  N_18
REMARK                            x       y       z     vdW  Elec       q    Type
REMARK                         _______ _______ _______ _____ _____    ______ ____
ROOT
ATOM      1  C   UNL     1       2.547   1.212   2.956  0.00  0.00    +0.161 A 
ATOM      2  C   UNL     1       2.267   2.474   2.449  0.00  0.00    +0.056 A 
ATOM      3  C   UNL     1       1.907   3.502   3.311  0.00  0.00    +0.057 A 
ATOM      4  C   UNL     1       1.829   3.268   4.670  0.00  0.00    +0.131 A 
ATOM      5  C   UNL     1       2.109   2.012   5.173  0.00  0.00    +0.073 A 
ATOM      6  C   UNL     1       2.463   0.982   4.317  0.00  0.00    +0.154 A 
ATOM      7  F   UNL     1       2.730  -0.246   4.812  0.00  0.00    -0.203 F 
ENDROOT
BRANCH   1   8
ATOM      8  S   UNL     1       3.004  -0.095   1.866  0.00  0.00    +0.066 S 
ATOM      9  O   UNL     1       3.538  -1.132   2.678  0.00  0.00    -0.153 OA
ATOM     10  O   UNL     1       3.741   0.498   0.806  0.00  0.00    -0.153 OA
BRANCH   8  16
ATOM     11  C   UNL     1       1.489  -3.005   2.002  0.00  0.00    +0.026 C 
ATOM     12  C   UNL     1       0.726  -1.692   1.810  0.00  0.00    +0.077 C 
ATOM     13  C   UNL     1      -0.460  -1.911   0.848  0.00  0.00    +0.021 C 
ATOM     14  C   UNL     1      -0.474  -0.604   0.011  0.00  0.00    +0.019 C 
ATOM     15  C   UNL     1       1.039  -0.294  -0.106  0.00  0.00    +0.110 C 
ATOM     16  N   UNL     1       1.608  -0.686   1.200  0.00  0.00    -0.174 NA
ENDBRANCH   8  16
ENDBRANCH   1   8
BRANCH   4  17
ATOM     17  N   UNL     1       1.446   4.364   5.588  0.00  0.00    +0.057 N 
ATOM     18  O   UNL     1       1.202   5.463   5.148  0.00  0.00    -0.126 OA
ATOM     19  O   UNL     1       1.378   4.160   6.777  0.00  0.00    -0.126 OA
ENDBRANCH   4  17
BRANCH   2  20
ATOM     20  N   UNL     1       2.346   2.709   1.074  0.00  0.00    -0.356 N 
ATOM     21  H   UNL     1       2.457   1.966   0.461  0.00  0.00    +0.142 HD
ATOM     22  H   UNL     1       2.291   3.616   0.733  0.00  0.00    +0.142 HD
ENDBRANCH   2  20
TORSDOF 4
