REMARK  Name = ZINC03158712
REMARK  10 active torsions:
REMARK  status: ('A' for Active; 'I' for Inactive)
REMARK    1  A    between atoms: C_1  and  C_2
REMARK    2  A    between atoms: C_5  and  C_30
REMARK    3  A    between atoms: C_6  and  N_8
REMARK    4  A    between atoms: N_8  and  C_9
REMARK    5  A    between atoms: C_9  and  N_11
REMARK    6  A    between atoms: N_11  and  C_12
REMARK    7  A    between atoms: C_12  and  C_14
REMARK    8  A    between atoms: C_12  and  N_18
REMARK    9  A    between atoms: C_19  and  C_21
REMARK   10  A    between atoms: C_26  and  N_27
REMARK                            x       y       z     vdW  Elec       q    Type
REMARK                         _______ _______ _______ _____ _____    ______ ____
ROOT
ATOM      1  C   UNL     1       2.070  -1.100   0.373  0.00  0.00    +0.211 C 
ENDROOT
BRANCH   1   2
ATOM      2  C   UNL     1       1.984  -2.433   1.118  0.00  0.00    +0.225 C 
ATOM      3 CL   UNL     1       0.591  -3.387   0.485  0.00  0.00    -0.080 Cl
ATOM      4 CL   UNL     1       3.510  -3.360   0.870  0.00  0.00    -0.080 Cl
ATOM      5 CL   UNL     1       1.749  -2.123   2.879  0.00  0.00    -0.080 Cl
ENDBRANCH   1   2
BRANCH   1   6
ATOM      6  N   UNL     1       0.830  -0.346   0.575  0.00  0.00    -0.289 N 
ATOM      7  C   UNL     1       0.880   0.967   0.872  0.00  0.00    +0.248 C 
ATOM      8  O   UNL     1       1.955   1.527   0.973  0.00  0.00    -0.270 OA
ATOM      9  H   UNL     1      -0.142  -0.853   0.484  0.00  0.00    +0.151 HD
BRANCH   7  10
ATOM     10  C   UNL     1      -0.371   1.729   1.070  0.00  0.00    +0.067 A 
ATOM     11  C   UNL     1      -1.258   1.369   2.086  0.00  0.00    +0.015 A 
ATOM     12  C   UNL     1      -2.421   2.087   2.268  0.00  0.00    +0.001 A 
ATOM     13  C   UNL     1      -2.715   3.156   1.440  0.00  0.00    +0.002 A 
ATOM     14  C   UNL     1      -1.844   3.514   0.427  0.00  0.00    +0.033 A 
ATOM     15  C   UNL     1      -0.674   2.808   0.237  0.00  0.00    +0.138 A 
BRANCH  15  16
ATOM     16  N   UNL     1       0.257   3.192  -0.847  0.00  0.00    +0.057 N 
ATOM     17  O   UNL     1       0.010   4.156  -1.549  0.00  0.00    -0.126 OA
ATOM     18  O   UNL     1       1.271   2.545  -1.037  0.00  0.00    -0.126 OA
ENDBRANCH  15  16
ENDBRANCH   7  10
ENDBRANCH   1   6
BRANCH   1  19
ATOM     19  N   UNL     1       2.261  -1.351  -1.058  0.00  0.00    -0.305 N 
ATOM     20  H   UNL     1       1.656  -2.115  -1.567  0.00  0.00    +0.150 HD
BRANCH  19  21
ATOM     21  C   UNL     1       3.179  -0.647  -1.749  0.00  0.00    +0.136 C 
ATOM     22  S   UNL     1       4.121   0.542  -0.956  0.00  0.00    -0.019 S 
BRANCH  21  23
ATOM     23  N   UNL     1       3.354  -0.878  -3.065  0.00  0.00    -0.297 N 
ATOM     24  H   UNL     1       2.694  -1.582  -3.593  0.00  0.00    +0.154 HD
BRANCH  23  30
ATOM     25  C   UNL     1       5.916   3.223  -3.954  0.00  0.00    +0.044 C 
ATOM     26  C   UNL     1       5.641   1.764  -4.210  0.00  0.00    -0.049 A 
ATOM     27  C   UNL     1       6.401   1.069  -5.133  0.00  0.00    +0.004 A 
ATOM     28  C   UNL     1       6.153  -0.270  -5.372  0.00  0.00    +0.005 A 
ATOM     29  C   UNL     1       5.146  -0.920  -4.684  0.00  0.00    -0.029 A 
ATOM     30  C   UNL     1       4.377  -0.224  -3.760  0.00  0.00    +0.036 A 
ATOM     31  C   UNL     1       4.630   1.121  -3.523  0.00  0.00    +0.027 A 
ATOM     32  C   UNL     1       4.880  -2.381  -4.939  0.00  0.00    +0.045 C 
ENDBRANCH  23  30
ENDBRANCH  21  23
ENDBRANCH  19  21
ENDBRANCH   1  19
TORSDOF 8
