REMARK  Name = ZINC64982608
REMARK  8 active torsions:
REMARK  status: ('A' for Active; 'I' for Inactive)
REMARK    1  A    between atoms: C_1  and  C_2
REMARK    2  A    between atoms: C_5  and  O_9
REMARK    3  A    between atoms: C_7  and  C_8
REMARK    4  A    between atoms: O_9  and  C_10
REMARK    5  A    between atoms: C_10  and  C_12
REMARK    6  A    between atoms: C_10  and  C_13
REMARK    7  A    between atoms: N_15  and  C_16
REMARK    8  A    between atoms: C_19  and  N_23
REMARK                            x       y       z     vdW  Elec       q    Type
REMARK                         _______ _______ _______ _____ _____    ______ ____
ROOT
ATOM      1  C   UNL     1       0.572  -6.141  -1.218  0.00  0.00    +0.258 C 
ATOM      2  O   UNL     1       0.990  -6.560  -0.159  0.00  0.00    -0.271 OA
ATOM      3  N   UNL     1       0.681  -6.894  -2.331  0.00  0.00    -0.282 N 
ATOM      4  H   UNL     1       0.421  -6.528  -3.191  0.00  0.00    +0.155 HD
ENDROOT
BRANCH   3   5
ATOM      5  C   UNL     1       1.167  -8.204  -2.245  0.00  0.00    +0.048 A 
ATOM      6  C   UNL     1       1.057  -8.910  -1.055  0.00  0.00    +0.026 A 
ATOM      7  C   UNL     1       1.539 -10.202  -0.974  0.00  0.00    +0.034 A 
ATOM      8  C   UNL     1       2.130 -10.793  -2.075  0.00  0.00    +0.127 A 
ATOM      9  C   UNL     1       2.242 -10.092  -3.262  0.00  0.00    +0.049 A 
ATOM     10  C   UNL     1       1.756  -8.801  -3.352  0.00  0.00    +0.041 A 
ATOM     11 BR   UNL     1       1.902  -7.846  -4.978  0.00  0.00    -0.048 Br
BRANCH   8  12
ATOM     12  N   UNL     1       2.646 -12.177  -1.984  0.00  0.00    +0.056 N 
ATOM     13  O   UNL     1       2.550 -12.791  -0.947  0.00  0.00    -0.126 OA
ATOM     14  O   UNL     1       3.163 -12.694  -2.946  0.00  0.00    -0.126 OA
ENDBRANCH   8  12
ENDBRANCH   3   5
BRANCH   1  15
ATOM     15  C   UNL     1      -0.069  -4.779  -1.289  0.00  0.00    +0.256 C 
ATOM     16  C   UNL     1      -1.545  -4.929  -1.663  0.00  0.00    +0.062 C 
BRANCH  15  17
ATOM     17  O   UNL     1       0.038  -4.136  -0.018  0.00  0.00    -0.480 OA
BRANCH  17  22
ATOM     18  C   UNL     1      -0.116   1.495   0.018  0.00  0.00    +0.044 C 
ATOM     19  C   UNL     1      -0.074  -0.012   0.008  0.00  0.00    -0.047 A 
ATOM     20  C   UNL     1      -0.071  -0.695  -1.194  0.00  0.00    +0.007 A 
ATOM     21  C   UNL     1      -0.034  -2.075  -1.206  0.00  0.00    +0.046 A 
ATOM     22  C   UNL     1       0.002  -2.777  -0.009  0.00  0.00    +0.122 A 
ATOM     23  C   UNL     1      -0.001  -2.090   1.196  0.00  0.00    +0.049 A 
ATOM     24  C   UNL     1      -0.034  -0.709   1.202  0.00  0.00    -0.044 A 
ATOM     25  C   UNL     1      -0.031   0.039   2.510  0.00  0.00    +0.044 C 
ENDBRANCH  17  22
ENDBRANCH  15  17
ENDBRANCH   1  15
TORSDOF 5
