REMARK  Name = ZINC17311734
REMARK  4 active torsions:
REMARK  status: ('A' for Active; 'I' for Inactive)
REMARK    1  A    between atoms: C_1  and  C_2
REMARK    2  A    between atoms: C_5  and  N_8
REMARK    3  A    between atoms: C_9  and  C_10
REMARK    4  A    between atoms: C_15  and  N_16
REMARK                            x       y       z     vdW  Elec       q    Type
REMARK                         _______ _______ _______ _____ _____    ______ ____
ROOT
ATOM      1  C   UNL     1       0.102   1.470  -0.005  0.00  0.00    +0.017 A 
ATOM      2  C   UNL     1       1.237   2.290   0.002  0.00  0.00    +0.060 A 
ATOM      3  C   UNL     1       1.097   3.662   0.024  0.00  0.00    +0.167 A 
ATOM      4  C   UNL     1      -0.177   4.237   0.039  0.00  0.00    +0.168 A 
ATOM      5  C   UNL     1      -1.305   3.433   0.032  0.00  0.00    +0.073 A 
ATOM      6  C   UNL     1      -1.177   2.053   0.005  0.00  0.00    +0.037 A 
ATOM      7  O   UNL     1      -0.040   5.594   0.059  0.00  0.00    -0.453 OA
ATOM      8  C   UNL     1       1.318   5.839   0.470  0.00  0.00    +0.466 C 
ATOM      9  O   UNL     1       2.026   4.664   0.035  0.00  0.00    -0.453 OA
ENDROOT
BRANCH   6  10
ATOM     10  N   UNL     1      -2.312   1.246  -0.007  0.00  0.00    -0.357 N 
ATOM     11  H   UNL     1      -3.312   1.704   0.001  0.00  0.00    +0.142 HD
ATOM     12  H   UNL     1      -2.209   0.151  -0.025  0.00  0.00    +0.142 HD
ENDBRANCH   6  10
BRANCH   1  14
ATOM     13  N   UNL     1      -0.808  -0.752   0.073  0.00  0.00    -0.255 NA
ATOM     14  C   UNL     1       0.247   0.010  -0.028  0.00  0.00    +0.121 C 
BRANCH  13  19
ATOM     15  C   UNL     1      -0.251  -6.369  -0.019  0.00  0.00    +0.044 C 
ATOM     16  C   UNL     1      -0.400  -4.870   0.006  0.00  0.00    -0.050 A 
ATOM     17  C   UNL     1      -1.223  -4.274   0.946  0.00  0.00    +0.005 A 
ATOM     18  C   UNL     1      -1.363  -2.903   0.974  0.00  0.00    +0.028 A 
ATOM     19  C   UNL     1      -0.673  -2.114   0.051  0.00  0.00    +0.064 A 
ATOM     20  C   UNL     1       0.152  -2.722  -0.898  0.00  0.00    +0.028 A 
ATOM     21  C   UNL     1       0.287  -4.095  -0.912  0.00  0.00    +0.005 A 
ENDBRANCH  13  19
ENDBRANCH   1  14
TORSDOF 3
