REMARK  Name = ZINC20748710
REMARK  8 active torsions:
REMARK  status: ('A' for Active; 'I' for Inactive)
REMARK    1  A    between atoms: C_1  and  C_2
REMARK    2  A    between atoms: C_2  and  O_3
REMARK    3  A    between atoms: O_3  and  C_4
REMARK    4  A    between atoms: C_9  and  C_10
REMARK    5  A    between atoms: C_23  and  C_26
REMARK    6  A    between atoms: N_28  and  C_29
REMARK    7  A    between atoms: C_32  and  C_36
REMARK    8  A    between atoms: C_33  and  C_35
REMARK                            x       y       z     vdW  Elec       q    Type
REMARK                         _______ _______ _______ _____ _____    ______ ____
ROOT
ATOM      1  C   UNL     1      -2.552   5.206  -0.682  0.00  0.00    +0.108 C 
ATOM      2  C   UNL     1      -1.450   5.821   0.155  0.00  0.00    +0.029 C 
ATOM      3  C   UNL     1      -1.188   7.324   0.013  0.00  0.00    +0.033 C 
ATOM      4  C   UNL     1       0.306   7.403   0.334  0.00  0.00    -0.030 C 
ATOM      5  C   UNL     1       0.893   6.246   0.048  0.00  0.00    -0.023 C 
ATOM      6  C   UNL     1      -0.128   5.325  -0.510  0.00  0.00    +0.049 C 
ATOM      7  C   UNL     1      -0.077   3.861  -0.309  0.00  0.00    -0.019 A 
ATOM      8  C   UNL     1       1.118   3.194  -0.146  0.00  0.00    +0.006 A 
ATOM      9  C   UNL     1       1.148   1.820   0.024  0.00  0.00    +0.001 A 
ATOM     10  C   UNL     1      -0.029   1.104   0.025  0.00  0.00    +0.015 A 
ATOM     11  C   UNL     1      -1.247   1.760  -0.144  0.00  0.00    +0.058 A 
ATOM     12  C   UNL     1      -1.287   3.162  -0.299  0.00  0.00    +0.044 A 
ATOM     13  N   UNL     1      -2.531   3.757  -0.427  0.00  0.00    -0.336 N 
ATOM     14  H   UNL     1      -3.475   3.198  -0.348  0.00  0.00    +0.147 HD
ENDROOT
BRANCH   1  20
ATOM     15  C   UNL     1      -2.628   6.709  -2.688  0.00  0.00    +0.125 A 
ATOM     16  C   UNL     1      -2.393   6.955  -4.033  0.00  0.00    +0.046 A 
ATOM     17  C   UNL     1      -1.833   5.973  -4.826  0.00  0.00    +0.004 A 
ATOM     18  C   UNL     1      -1.506   4.745  -4.280  0.00  0.00    +0.001 A 
ATOM     19  C   UNL     1      -1.734   4.499  -2.939  0.00  0.00    +0.009 A 
ATOM     20  C   UNL     1      -2.299   5.476  -2.143  0.00  0.00    +0.015 A 
BRANCH  15  21
ATOM     21  O   UNL     1      -3.179   7.674  -1.906  0.00  0.00    -0.492 OA
BRANCH  21  23
ATOM     22  C   UNL     1      -4.100   9.872  -1.504  0.00  0.00    +0.048 C 
ATOM     23  C   UNL     1      -3.493   8.918  -2.534  0.00  0.00    +0.225 C 
ENDBRANCH  21  23
ENDBRANCH  15  21
ENDBRANCH   1  20
BRANCH  11  24
ATOM     24  C   UNL     1      -2.501   0.986  -0.154  0.00  0.00    +0.250 C 
ATOM     25  O   UNL     1      -3.566   1.555  -0.301  0.00  0.00    -0.270 OA
ATOM     26  N   UNL     1      -2.467  -0.353  -0.001  0.00  0.00    -0.281 N 
ATOM     27  H   UNL     1      -1.502  -0.877   0.044  0.00  0.00    +0.155 HD
BRANCH  26  28
ATOM     28  C   UNL     1      -3.661  -1.075   0.100  0.00  0.00    +0.034 A 
ATOM     29  C   UNL     1      -3.741  -2.363  -0.414  0.00  0.00    +0.023 A 
ATOM     30  C   UNL     1      -4.920  -3.073  -0.313  0.00  0.00    +0.005 A 
ATOM     31  C   UNL     1      -6.022  -2.504   0.299  0.00  0.00    -0.047 A 
ATOM     32  C   UNL     1      -5.946  -1.222   0.812  0.00  0.00    -0.046 A 
ATOM     33  C   UNL     1      -4.767  -0.508   0.719  0.00  0.00    +0.027 A 
ATOM     34  C   UNL     1      -7.149  -0.606   1.479  0.00  0.00    +0.044 C 
ATOM     35  C   UNL     1      -7.308  -3.282   0.408  0.00  0.00    +0.044 C 
ENDBRANCH  26  28
ENDBRANCH  11  24
TORSDOF 5
