REMARK  Name = ZINC51362427
REMARK  5 active torsions:
REMARK  status: ('A' for Active; 'I' for Inactive)
REMARK    1  A    between atoms: C_1  and  N_2
REMARK    2  A    between atoms: C_6  and  C_12
REMARK    3  A    between atoms: C_12  and  C_14
REMARK    4  A    between atoms: C_12  and  O_22
REMARK    5  A    between atoms: C_14  and  C_15
REMARK                            x       y       z     vdW  Elec       q    Type
REMARK                         _______ _______ _______ _____ _____    ______ ____
ROOT
ATOM      1  C   UNL     1      -0.018   1.461   0.010  0.00  0.00    +0.156 C 
ATOM      2  N   UNL     1       0.002  -0.004   0.002  0.00  0.00    -0.277 N 
ATOM      3  C   UNL     1      -1.111  -0.844   0.003  0.00  0.00    +0.090 A 
ATOM      4  C   UNL     1      -2.478  -0.613   0.010  0.00  0.00    +0.030 A 
ATOM      5  C   UNL     1      -3.355  -1.680   0.009  0.00  0.00    +0.008 A 
ATOM      6  C   UNL     1      -2.873  -2.977   0.000  0.00  0.00    -0.015 A 
ATOM      7  C   UNL     1      -1.513  -3.215  -0.008  0.00  0.00    +0.054 A 
ATOM      8  C   UNL     1      -0.625  -2.151  -0.007  0.00  0.00    +0.157 A 
ATOM      9  O   UNL     1       0.729  -2.076  -0.013  0.00  0.00    -0.407 OA
ATOM     10  C   UNL     1       1.100  -0.786  -0.013  0.00  0.00    +0.421 A 
ATOM     11  O   UNL     1       2.248  -0.385  -0.022  0.00  0.00    -0.223 OA
ENDROOT
BRANCH   6  12
ATOM     12  C   UNL     1      -3.837  -4.135  -0.000  0.00  0.00    +0.149 C 
BRANCH  12  13
ATOM     13  O   UNL     1      -4.986  -3.799   0.780  0.00  0.00    -0.387 OA
ATOM     14  H   UNL     1      -5.469  -3.026   0.457  0.00  0.00    +0.210 HD
ENDBRANCH  12  13
BRANCH  12  15
ATOM     15  C   UNL     1      -4.268  -4.440  -1.436  0.00  0.00    +0.071 C 
BRANCH  15  16
ATOM     16  C   UNL     1      -5.134  -5.673  -1.450  0.00  0.00    -0.045 A 
ATOM     17  C   UNL     1      -4.558  -6.921  -1.598  0.00  0.00    +0.005 A 
ATOM     18  C   UNL     1      -5.351  -8.052  -1.610  0.00  0.00    +0.015 A 
ATOM     19  C   UNL     1      -6.723  -7.936  -1.475  0.00  0.00    +0.018 A 
ATOM     20  C   UNL     1      -7.300  -6.687  -1.327  0.00  0.00    +0.015 A 
ATOM     21  C   UNL     1      -6.504  -5.556  -1.310  0.00  0.00    +0.005 A 
ATOM     22 BR   UNL     1      -7.810  -9.483  -1.492  0.00  0.00    -0.050 Br
ENDBRANCH  15  16
ENDBRANCH  12  15
ENDBRANCH   6  12
TORSDOF 4
