REMARK  Name = ZINC50890198
REMARK  10 active torsions:
REMARK  status: ('A' for Active; 'I' for Inactive)
REMARK    1  A    between atoms: C_1  and  C_2
REMARK    2  A    between atoms: C_2  and  C_3
REMARK    3  A    between atoms: C_3  and  C_4
REMARK    4  A    between atoms: C_4  and  C_5
REMARK    5  A    between atoms: C_5  and  C_7
REMARK    6  A    between atoms: C_5  and  N_8
REMARK    7  A    between atoms: N_8  and  S_9
REMARK    8  A    between atoms: S_9  and  C_12
REMARK    9  A    between atoms: C_17  and  N_18
REMARK   10  A    between atoms: N_18  and  N_19
REMARK                            x       y       z     vdW  Elec       q    Type
REMARK                         _______ _______ _______ _____ _____    ______ ____
ROOT
ATOM      1  C   UNL     1       2.294  -3.003  -5.742  0.00  0.00    +0.147 A 
ATOM      2  C   UNL     1       3.675  -3.079  -5.708  0.00  0.00    +0.048 A 
ATOM      3  C   UNL     1       4.293  -4.175  -6.298  0.00  0.00    +0.038 A 
ATOM      4  C   UNL     1       3.516  -5.148  -6.896  0.00  0.00    +0.128 A 
ATOM      5  N   UNL     1       2.200  -5.048  -6.913  0.00  0.00    -0.236 NA
ATOM      6  C   UNL     1       1.575  -4.022  -6.356  0.00  0.00    +0.159 A 
ATOM      7 BR   UNL     1       6.177  -4.332  -6.283  0.00  0.00    -0.049 Br
ENDROOT
BRANCH   1   8
ATOM      8  S   UNL     1       1.458  -1.636  -5.009  0.00  0.00    +0.062 S 
ATOM      9  O   UNL     1       0.547  -1.148  -5.984  0.00  0.00    -0.153 OA
ATOM     10  O   UNL     1       2.458  -0.815  -4.422  0.00  0.00    -0.153 OA
BRANCH   8  11
ATOM     11  N   UNL     1       0.544  -2.232  -3.763  0.00  0.00    -0.187 NA
ATOM     12  H   UNL     1      -0.424  -2.176  -3.802  0.00  0.00    +0.148 HD
BRANCH  11  13
ATOM     13  C   UNL     1       1.196  -2.844  -2.603  0.00  0.00    +0.073 C 
ATOM     14  C   UNL     1       0.846  -4.333  -2.547  0.00  0.00    +0.025 C 
BRANCH  13  15
ATOM     15  C   UNL     1       0.712  -2.158  -1.325  0.00  0.00    +0.020 C 
BRANCH  15  16
ATOM     16  C   UNL     1       1.171  -0.699  -1.324  0.00  0.00    +0.001 C 
BRANCH  16  18
ATOM     17  C   UNL     1       1.147   1.447  -0.044  0.00  0.00    +0.004 C 
ATOM     18  C   UNL     1       0.687  -0.012  -0.045  0.00  0.00    -0.003 C 
ENDBRANCH  16  18
ENDBRANCH  15  16
ENDBRANCH  13  15
ENDBRANCH  11  13
ENDBRANCH   8  11
ENDBRANCH   1   8
BRANCH   6  19
ATOM     19  N   UNL     1       0.186  -3.961  -6.392  0.00  0.00    -0.266 N 
ATOM     20  H   UNL     1      -0.279  -3.237  -5.944  0.00  0.00    +0.167 HD
BRANCH  19  21
ATOM     21  N   UNL     1      -0.523  -4.920  -7.057  0.00  0.00    -0.255 NA
ATOM     22  H   UNL     1      -1.515  -4.744  -6.996  0.00  0.00    +0.140 HD
ATOM     23  H   UNL     1      -0.227  -4.987  -8.019  0.00  0.00    +0.140 HD
ENDBRANCH  19  21
ENDBRANCH   6  19
TORSDOF 8
