REMARK  Name = ZINC00148967
REMARK  7 active torsions:
REMARK  status: ('A' for Active; 'I' for Inactive)
REMARK    1  A    between atoms: C_4  and  N_7
REMARK    2  A    between atoms: N_7  and  N_8
REMARK    3  A    between atoms: C_9  and  C_10
REMARK    4  A    between atoms: C_9  and  C_12
REMARK    5  A    between atoms: C_12  and  C_14
REMARK    6  A    between atoms: C_19  and  O_20
REMARK    7  A    between atoms: O_20  and  C_21
REMARK                            x       y       z     vdW  Elec       q    Type
REMARK                         _______ _______ _______ _____ _____    ______ ____
ROOT
ATOM      1  C   UNL     1       4.811  -4.049  -0.066  0.00  0.00    +0.227 C 
ATOM      2  O   UNL     1       5.867  -4.641  -0.192  0.00  0.00    -0.284 OA
ENDROOT
BRANCH   1   3
ATOM      3  C   UNL     1       3.550  -4.807   0.054  0.00  0.00    +0.066 A 
ATOM      4  C   UNL     1       2.325  -4.134   0.070  0.00  0.00    +0.015 A 
ATOM      5  C   UNL     1       1.152  -4.848   0.182  0.00  0.00    +0.001 A 
ATOM      6  C   UNL     1       1.180  -6.229   0.279  0.00  0.00    +0.004 A 
ATOM      7  C   UNL     1       2.384  -6.907   0.264  0.00  0.00    +0.047 A 
ATOM      8  C   UNL     1       3.574  -6.205   0.146  0.00  0.00    +0.141 A 
BRANCH   8   9
ATOM      9  O   UNL     1       4.757  -6.870   0.126  0.00  0.00    -0.405 OA
BRANCH   9  10
ATOM     10  C   UNL     1       4.703  -8.294   0.224  0.00  0.00    +0.575 C 
ATOM     11  F   UNL     1       3.965  -8.808  -0.848  0.00  0.00    -0.133 F 
ATOM     12  F   UNL     1       6.001  -8.814   0.187  0.00  0.00    -0.133 F 
ATOM     13  F   UNL     1       4.090  -8.655   1.428  0.00  0.00    -0.133 F 
ENDBRANCH   9  10
ENDBRANCH   8   9
ENDBRANCH   1   3
BRANCH   1  15
ATOM     14  N   UNL     1       3.642  -1.936  -0.003  0.00  0.00    -0.168 NA
ATOM     15  C   UNL     1       4.791  -2.579  -0.034  0.00  0.00    +0.205 C 
BRANCH  14  16
ATOM     16  N   UNL     1       3.624  -0.647   0.025  0.00  0.00    -0.236 N 
ATOM     17  H   UNL     1       4.458  -0.150   0.023  0.00  0.00    +0.174 HD
BRANCH  16  21
ATOM     18  C   UNL     1      -0.007   1.385   0.121  0.00  0.00    +0.000 A 
ATOM     19  C   UNL     1       1.180   2.094   0.119  0.00  0.00    +0.002 A 
ATOM     20  C   UNL     1       2.387   1.424   0.088  0.00  0.00    +0.025 A 
ATOM     21  C   UNL     1       2.407   0.034   0.057  0.00  0.00    +0.048 A 
ATOM     22  C   UNL     1       1.212  -0.675   0.059  0.00  0.00    +0.025 A 
ATOM     23  C   UNL     1       0.009   0.002   0.091  0.00  0.00    +0.002 A 
ENDBRANCH  16  21
ENDBRANCH  14  16
BRANCH  15  24
ATOM     24  C   UNL     1       6.022  -1.847  -0.036  0.00  0.00    +0.125 C 
ATOM     25  N   UNL     1       6.998  -1.265  -0.038  0.00  0.00    -0.189 NA
ENDBRANCH  15  24
ENDBRANCH   1  15
TORSDOF 7
