REMARK  Name = ZINC67389459
REMARK  7 active torsions:
REMARK  status: ('A' for Active; 'I' for Inactive)
REMARK    1  A    between atoms: C_1  and  N_2
REMARK    2  A    between atoms: C_8  and  C_10
REMARK    3  A    between atoms: C_10  and  C_11
REMARK    4  A    between atoms: C_11  and  N_12
REMARK    5  A    between atoms: N_15  and  N_16
REMARK    6  A    between atoms: C_17  and  C_19
REMARK    7  A    between atoms: C_19  and  C_20
REMARK                            x       y       z     vdW  Elec       q    Type
REMARK                         _______ _______ _______ _____ _____    ______ ____
ROOT
ATOM      1  N   UNL     1       3.980  -5.859   2.083  0.00  0.00    -0.298 N 
ATOM      2  C   UNL     1       4.875  -6.866   2.036  0.00  0.00    +0.316 C 
ATOM      3  O   UNL     1       5.229  -7.315   0.963  0.00  0.00    -0.251 OA
ATOM      4  N   UNL     1       5.378  -7.375   3.178  0.00  0.00    -0.218 N 
ATOM      5  H   UNL     1       3.698  -5.501   2.939  0.00  0.00    +0.150 HD
ATOM      6  H   UNL     1       6.022  -8.099   3.144  0.00  0.00    +0.174 HD
ENDROOT
BRANCH   4   7
ATOM      7  N   UNL     1       4.970  -6.857   4.415  0.00  0.00    -0.233 N 
ATOM      8  C   UNL     1       5.472  -7.366   5.557  0.00  0.00    +0.229 C 
ATOM      9  O   UNL     1       6.278  -8.272   5.515  0.00  0.00    -0.274 OA
ATOM     10  H   UNL     1       4.326  -6.133   4.449  0.00  0.00    +0.173 HD
BRANCH   8  11
ATOM     11  C   UNL     1       5.034  -6.809   6.887  0.00  0.00    +0.101 C 
BRANCH  11  12
ATOM     12  C   UNL     1       5.749  -7.558   8.014  0.00  0.00    -0.002 C 
ATOM     13  C   UNL     1       7.252  -7.282   7.936  0.00  0.00    +0.004 C 
ATOM     14  C   UNL     1       7.967  -8.030   9.062  0.00  0.00    +0.000 C 
ATOM     15  C   UNL     1       7.430  -7.551  10.413  0.00  0.00    +0.000 C 
ATOM     16  C   UNL     1       5.927  -7.827  10.491  0.00  0.00    +0.000 C 
ATOM     17  C   UNL     1       5.212  -7.079   9.364  0.00  0.00    +0.004 C 
ENDBRANCH  11  12
ENDBRANCH   8  11
ENDBRANCH   4   7
BRANCH   1  18
ATOM     18  C   UNL     1       3.434  -5.306   0.841  0.00  0.00    +0.115 C 
BRANCH  18  19
ATOM     19  C   UNL     1       2.448  -4.184   1.173  0.00  0.00    +0.114 C 
BRANCH  19  27
ATOM     20  C   UNL     1      -0.018   1.465   0.010  0.00  0.00    +0.105 C 
ATOM     21  N   UNL     1       0.002  -0.004   0.002  0.00  0.00    -0.302 NA
ATOM     22  C   UNL     1       0.592  -0.516  -1.242  0.00  0.00    +0.103 C 
ATOM     23  C   UNL     1       0.430  -2.039  -1.292  0.00  0.00    +0.123 C 
ATOM     24  N   UNL     1       0.991  -2.608  -0.057  0.00  0.00    -0.299 N 
ATOM     25  C   UNL     1       0.549  -2.051   1.230  0.00  0.00    +0.123 C 
ATOM     26  C   UNL     1       0.706  -0.527   1.180  0.00  0.00    +0.103 C 
ATOM     27  C   UNL     1       1.886  -3.615  -0.104  0.00  0.00    +0.217 C 
ATOM     28  O   UNL     1       2.239  -4.063  -1.175  0.00  0.00    -0.276 OA
ENDBRANCH  19  27
ENDBRANCH  18  19
ENDBRANCH   1  18
TORSDOF 6
