REMARK  Name = ZINC05408216
REMARK  7 active torsions:
REMARK  status: ('A' for Active; 'I' for Inactive)
REMARK    1  A    between atoms: C_1  and  C_2
REMARK    2  A    between atoms: C_2  and  C_31
REMARK    3  A    between atoms: C_6  and  C_20
REMARK    4  A    between atoms: C_8  and  C_18
REMARK    5  A    between atoms: C_9  and  N_17
REMARK    6  A    between atoms: C_23  and  S_26
REMARK    7  A    between atoms: S_26  and  C_27
REMARK                            x       y       z     vdW  Elec       q    Type
REMARK                         _______ _______ _______ _____ _____    ______ ____
ROOT
ATOM      1  C   UNL     1      -0.945   1.772   0.066  0.00  0.00    +0.011 C 
ATOM      2  C   UNL     1      -0.661   0.274  -0.058  0.00  0.00    -0.023 C 
ATOM      3  C   UNL     1      -1.925  -0.519   0.283  0.00  0.00    +0.058 C 
ATOM      4  C   UNL     1      -1.631  -1.997   0.208  0.00  0.00    +0.028 C 
ATOM      5  C   UNL     1      -0.403  -2.477   0.496  0.00  0.00    +0.025 C 
ATOM      6  C   UNL     1      -0.115  -3.956   0.434  0.00  0.00    +0.097 C 
ATOM      7  C   UNL     1      -1.156  -4.678  -0.369  0.00  0.00    +0.077 C 
ATOM      8  C   UNL     1      -2.361  -4.110  -0.630  0.00  0.00    +0.109 C 
ATOM      9  N   UNL     1      -2.644  -2.845  -0.163  0.00  0.00    -0.229 N 
ATOM     10  C   UNL     1      -3.965  -2.425  -0.067  0.00  0.00    +0.223 A 
ATOM     11  N   UNL     1      -4.393  -1.268   0.480  0.00  0.00    -0.246 N 
ATOM     12  H   UNL     1      -3.843  -0.575   0.879  0.00  0.00    +0.192 HD
ATOM     13  N   UNL     1      -5.791  -1.267   0.357  0.00  0.00    -0.160 NA
ATOM     14  C   UNL     1      -6.123  -2.383  -0.236  0.00  0.00    +0.246 A 
ATOM     15  N   UNL     1      -5.019  -3.082  -0.497  0.00  0.00    -0.201 NA
ATOM     16  C   UNL     1       0.646  -1.613   0.859  0.00  0.00    +0.162 C 
ATOM     17  O   UNL     1       1.737  -2.079   1.121  0.00  0.00    -0.292 OA
ATOM     18  C   UNL     1       0.443  -0.125   0.927  0.00  0.00    +0.086 C 
ATOM     19  C   UNL     1      -0.217  -0.049  -1.486  0.00  0.00    +0.011 C 
ENDROOT
BRANCH   6  20
ATOM     20  C   UNL     1      -0.097  -4.514   1.833  0.00  0.00    -0.035 A 
ATOM     21  C   UNL     1      -1.227  -4.426   2.626  0.00  0.00    +0.005 A 
ATOM     22  C   UNL     1      -1.214  -4.936   3.909  0.00  0.00    +0.015 A 
ATOM     23  C   UNL     1      -0.064  -5.540   4.404  0.00  0.00    +0.008 A 
ATOM     24  C   UNL     1       1.070  -5.628   3.604  0.00  0.00    +0.015 A 
ATOM     25  C   UNL     1       1.048  -5.120   2.320  0.00  0.00    +0.005 A 
BRANCH  23  26
ATOM     26  S   UNL     1      -0.042  -6.192   6.040  0.00  0.00    -0.129 S 
ATOM     27  C   UNL     1       1.634  -6.861   6.224  0.00  0.00    +0.090 C 
ENDBRANCH  23  26
ENDBRANCH   6  20
BRANCH   8  28
ATOM     28  N   UNL     1      -3.299  -4.797  -1.362  0.00  0.00    -0.345 N 
ATOM     29  H   UNL     1      -3.199  -5.751  -1.506  0.00  0.00    +0.144 HD
ATOM     30  H   UNL     1      -4.062  -4.328  -1.735  0.00  0.00    +0.144 HD
ENDBRANCH   8  28
BRANCH   7  31
ATOM     31  C   UNL     1      -0.873  -5.991  -0.869  0.00  0.00    +0.099 C 
ATOM     32  N   UNL     1      -0.650  -7.031  -1.265  0.00  0.00    -0.191 NA
ENDBRANCH   7  31
TORSDOF 4
