REMARK  Name = ZINC00663827
REMARK  5 active torsions:
REMARK  status: ('A' for Active; 'I' for Inactive)
REMARK    1  A    between atoms: C_3  and  C_7
REMARK    2  A    between atoms: C_9  and  C_26
REMARK    3  A    between atoms: C_11  and  N_25
REMARK    4  A    between atoms: C_12  and  C_16
REMARK    5  A    between atoms: C_16  and  C_18
REMARK                            x       y       z     vdW  Elec       q    Type
REMARK                         _______ _______ _______ _____ _____    ______ ____
ROOT
ATOM      1  C   UNL     1      -0.027   1.482   0.126  0.00  0.00    +0.074 A 
ATOM      2  C   UNL     1      -1.247   2.164   0.155  0.00  0.00    +0.041 A 
ATOM      3  C   UNL     1      -1.276   3.526   0.152  0.00  0.00    +0.068 A 
ATOM      4  C   UNL     1      -0.053   4.245   0.109  0.00  0.00    +0.041 A 
ATOM      5  C   UNL     1       0.150   5.684   0.092  0.00  0.00    +0.053 A 
ATOM      6  C   UNL     1       1.446   6.162   0.048  0.00  0.00    +0.083 A 
ATOM      7  S   UNL     1       2.432   4.678   0.026  0.00  0.00    -0.064 S 
ATOM      8  C   UNL     1       1.130   3.471   0.076  0.00  0.00    +0.112 A 
ATOM      9  N   UNL     1       1.115   2.157   0.085  0.00  0.00    -0.239 NA
ENDROOT
BRANCH   1  12
ATOM     10  C   UNL     1       1.165  -2.081   0.112  0.00  0.00    +0.020 A 
ATOM     11  C   UNL     1       1.202  -0.697   0.101  0.00  0.00    +0.013 A 
ATOM     12  C   UNL     1      -0.009  -0.000   0.136  0.00  0.00    +0.018 A 
ATOM     13  C   UNL     1      -1.201  -0.723   0.185  0.00  0.00    +0.120 A 
ATOM     14  N   UNL     1      -1.186  -2.040   0.187  0.00  0.00    -0.263 NA
ATOM     15  C   UNL     1      -0.058  -2.724   0.155  0.00  0.00    +0.111 A 
ENDBRANCH   1  12
BRANCH   3  16
ATOM     16  C   UNL     1      -2.591   4.261   0.190  0.00  0.00    +0.418 C 
ATOM     17  F   UNL     1      -3.640   3.336   0.229  0.00  0.00    -0.166 F 
ATOM     18  F   UNL     1      -2.640   5.071   1.329  0.00  0.00    -0.166 F 
ATOM     19  F   UNL     1      -2.714   5.056  -0.954  0.00  0.00    -0.166 F 
ENDBRANCH   3  16
BRANCH   5  20
ATOM     20  N   UNL     1      -0.928   6.555   0.121  0.00  0.00    -0.356 N 
ATOM     21  H   UNL     1      -1.833   6.206   0.152  0.00  0.00    +0.142 HD
ATOM     22  H   UNL     1      -0.778   7.513   0.110  0.00  0.00    +0.142 HD
ENDBRANCH   5  20
BRANCH   6  23
ATOM     23  C   UNL     1       1.885   7.507   0.024  0.00  0.00    +0.202 C 
ATOM     24  O   UNL     1       1.074   8.410  -0.078  0.00  0.00    -0.286 OA
BRANCH  23  25
ATOM     25  C   UNL     1       3.327   7.815   0.123  0.00  0.00    +0.023 A 
ATOM     26  C   UNL     1       4.199   6.905   0.725  0.00  0.00    +0.014 A 
ATOM     27  C   UNL     1       5.543   7.196   0.811  0.00  0.00    +0.039 A 
ATOM     28  C   UNL     1       6.029   8.394   0.311  0.00  0.00    +0.123 A 
ATOM     29  C   UNL     1       5.167   9.304  -0.283  0.00  0.00    +0.039 A 
ATOM     30  C   UNL     1       3.822   9.021  -0.379  0.00  0.00    +0.014 A 
ATOM     31  F   UNL     1       7.347   8.677   0.402  0.00  0.00    -0.205 F 
ENDBRANCH  23  25
ENDBRANCH   6  23
TORSDOF 5
