REMARK  Name = ZINC62914780
REMARK  5 active torsions:
REMARK  status: ('A' for Active; 'I' for Inactive)
REMARK    1  A    between atoms: C_1  and  C_2
REMARK    2  A    between atoms: C_2  and  C_3
REMARK    3  A    between atoms: C_3  and  C_18
REMARK    4  A    between atoms: C_8  and  C_10
REMARK    5  A    between atoms: C_11  and  C_12
REMARK                            x       y       z     vdW  Elec       q    Type
REMARK                         _______ _______ _______ _____ _____    ______ ____
ROOT
ATOM      1  C   UNL     1       0.742  -0.511   1.242  0.00  0.00    +0.089 C 
ATOM      2  C   UNL     1       0.711  -2.056   1.291  0.00  0.00    +0.039 C 
ATOM      3  C   UNL     1       0.502  -2.348   2.798  0.00  0.00    +0.109 C 
ATOM      4  N   UNL     1      -0.423  -1.274   3.227  0.00  0.00    -0.297 N 
ATOM      5  C   UNL     1       0.017  -0.055   2.521  0.00  0.00    +0.126 C 
ATOM      6  C   UNL     1      -1.456  -1.386   4.086  0.00  0.00    +0.239 C 
ATOM      7  O   UNL     1      -2.138  -0.412   4.349  0.00  0.00    -0.271 OA
ENDROOT
BRANCH   1   8
ATOM      8  C   UNL     1       2.164  -0.013   1.241  0.00  0.00    +0.364 C 
ATOM      9  O   UNL     1       2.391   1.185   1.232  0.00  0.00    -0.246 OA
ATOM     10  O   UNL     1       3.089  -0.808   1.249  0.00  0.00    -0.246 OA
ENDBRANCH   1   8
BRANCH   1  12
ATOM     11  C   UNL     1      -0.019   1.526   0.010  0.00  0.00    +0.005 C 
ATOM     12  C   UNL     1       0.002  -0.004   0.002  0.00  0.00    +0.016 C 
ENDBRANCH   1  12
BRANCH   6  13
ATOM     13  C   UNL     1      -1.747  -2.635   4.681  0.00  0.00    +0.068 C 
ATOM     14  C   UNL     1      -2.787  -2.749   5.546  0.00  0.00    +0.020 C 
BRANCH  14  15
ATOM     15  C   UNL     1      -3.079  -3.999   6.141  0.00  0.00    +0.013 A 
ATOM     16  C   UNL     1      -4.090  -4.328   7.038  0.00  0.00    +0.016 A 
ATOM     17  C   UNL     1      -4.120  -5.639   7.445  0.00  0.00    +0.023 A 
ATOM     18  C   UNL     1      -3.190  -6.502   6.961  0.00  0.00    +0.055 A 
ATOM     19  S   UNL     1      -2.251  -5.563   5.933  0.00  0.00    -0.082 S 
ATOM     20 BR   UNL     1      -3.002  -8.343   7.349  0.00  0.00    -0.043 Br
ENDBRANCH  14  15
ENDBRANCH   6  13
TORSDOF 4
