REMARK  Name = ZINC61938114
REMARK  3 active torsions:
REMARK  status: ('A' for Active; 'I' for Inactive)
REMARK    1  A    between atoms: C_4  and  C_6
REMARK    2  A    between atoms: C_4  and  C_10
REMARK    3  A    between atoms: N_7  and  O_8
REMARK                            x       y       z     vdW  Elec       q    Type
REMARK                         _______ _______ _______ _____ _____    ______ ____
ROOT
ATOM      1  C   UNL     1       0.380   2.192   1.344  0.00  0.00    +0.001 C 
ATOM      2  C   UNL     1       1.894   2.305   1.040  0.00  0.00    +0.001 C 
ATOM      3  C   UNL     1       2.423   0.897   1.409  0.00  0.00    +0.024 C 
ATOM      4  C   UNL     1       1.309  -0.061   0.939  0.00  0.00    +0.105 C 
ATOM      5  C   UNL     1       0.010   0.762   0.898  0.00  0.00    +0.024 C 
ENDROOT
BRANCH   4   6
ATOM      6  C   UNL     1       1.629  -0.590  -0.435  0.00  0.00    +0.229 C 
ATOM      7  O   UNL     1       2.661  -0.268  -0.984  0.00  0.00    -0.275 OA
ATOM      8  N   UNL     1       0.767  -1.421  -1.055  0.00  0.00    -0.298 N 
ATOM      9  C   UNL     1       1.115  -1.935  -2.393  0.00  0.00    +0.110 C 
ATOM     10  C   UNL     1       0.759  -3.423  -2.522  0.00  0.00    +0.047 C 
ATOM     11  C   UNL     1       1.104  -4.141  -1.233  0.00  0.00    +0.161 C 
ATOM     12  O   UNL     1      -0.038  -4.131  -0.385  0.00  0.00    -0.378 OA
ATOM     13  C   UNL     1      -0.247  -3.060   0.459  0.00  0.00    +0.178 C 
ATOM     14  C   UNL     1      -0.464  -1.782  -0.377  0.00  0.00    +0.136 C 
ENDBRANCH   4   6
BRANCH   4  15
ATOM     15  C   UNL     1       1.166  -1.203   1.912  0.00  0.00    +0.147 C 
ATOM     16  N   UNL     1       2.190  -1.934   2.205  0.00  0.00    -0.076 NA
ATOM     17  N   UNL     1      -0.056  -1.468   2.488  0.00  0.00    -0.343 N 
ATOM     18  H   UNL     1      -0.853  -1.018   2.165  0.00  0.00    +0.144 HD
ATOM     19  H   UNL     1      -0.121  -2.104   3.218  0.00  0.00    +0.144 HD
BRANCH  16  20
ATOM     20  O   UNL     1       3.461  -1.624   1.662  0.00  0.00    -0.408 OA
ATOM     21  H   UNL     1       4.165  -2.226   1.938  0.00  0.00    +0.328 HD
ENDBRANCH  16  20
ENDBRANCH   4  15
TORSDOF 3
