REMARK  Name = ZINC33413811
REMARK  5 active torsions:
REMARK  status: ('A' for Active; 'I' for Inactive)
REMARK    1  A    between atoms: C_1  and  C_2
REMARK    2  A    between atoms: C_7  and  C_8
REMARK    3  A    between atoms: C_7  and  C_9
REMARK    4  A    between atoms: C_11  and  S_13
REMARK    5  A    between atoms: S_13  and  C_14
REMARK                            x       y       z     vdW  Elec       q    Type
REMARK                         _______ _______ _______ _____ _____    ______ ____
ROOT
ATOM      1  C   UNL     1      -0.019   1.526   0.010  0.00  0.00    +0.013 C 
ATOM      2  C   UNL     1       0.002  -0.004   0.002  0.00  0.00    -0.014 C 
ATOM      3  C   UNL     1       0.744  -0.669  -1.197  0.00  0.00    +0.008 C 
ATOM      4  C   UNL     1       1.062  -2.103  -0.714  0.00  0.00    +0.005 C 
ATOM      5  C   UNL     1       0.481  -2.169   0.732  0.00  0.00    -0.004 C 
ATOM      6  C   UNL     1       0.727  -0.695   1.211  0.00  0.00    -0.026 C 
ATOM      7  C   UNL     1       2.216  -0.348   1.260  0.00  0.00    +0.012 C 
ATOM      8  C   UNL     1       0.031  -0.400   2.541  0.00  0.00    +0.012 C 
ATOM      9  C   UNL     1      -1.065  -2.175   0.532  0.00  0.00    +0.019 C 
ATOM     10  C   UNL     1      -1.389  -0.705   0.062  0.00  0.00    +0.061 C 
ENDROOT
BRANCH  10  11
ATOM     11  S   UNL     1      -2.477   0.147   1.238  0.00  0.00    -0.080 S 
BRANCH  11  12
ATOM     12  C   UNL     1      -4.023  -0.679   1.064  0.00  0.00    +0.210 A 
ATOM     13  N   UNL     1      -5.142  -0.385   1.737  0.00  0.00    -0.188 NA
ATOM     14  C   UNL     1      -6.109  -1.196   1.364  0.00  0.00    +0.209 A 
ATOM     15  N   UNL     1      -5.613  -2.034   0.430  0.00  0.00    -0.246 N 
ATOM     16  H   UNL     1      -6.093  -2.740  -0.030  0.00  0.00    +0.192 HD
ATOM     17  N   UNL     1      -4.267  -1.677   0.249  0.00  0.00    -0.144 NA
ATOM     18  N   UNL     1      -7.405  -1.190   1.845  0.00  0.00    -0.328 N 
ATOM     19  H   UNL     1      -7.669  -0.546   2.521  0.00  0.00    +0.145 HD
ATOM     20  H   UNL     1      -8.051  -1.831   1.507  0.00  0.00    +0.145 HD
ENDBRANCH  11  12
ENDBRANCH  10  11
TORSDOF 2
