REMARK  Name = ZINC12330243
REMARK  5 active torsions:
REMARK  status: ('A' for Active; 'I' for Inactive)
REMARK    1  A    between atoms: C_7  and  O_30
REMARK    2  A    between atoms: C_16  and  C_17
REMARK    3  A    between atoms: C_16  and  N_60
REMARK    4  A    between atoms: C_17  and  C_19
REMARK    5  A    between atoms: C_17  and  O_29
REMARK                            x       y       z     vdW  Elec       q    Type
REMARK                         _______ _______ _______ _____ _____    ______ ____
ROOT
ATOM      1  C   UNL     1     -10.741  -0.967   1.611  0.00  0.00    +0.001 A 
ATOM      2  C   UNL     1     -10.045  -0.411   0.553  0.00  0.00    +0.004 A 
ATOM      3  C   UNL     1      -9.075  -1.147  -0.096  0.00  0.00    +0.046 A 
ATOM      4  C   UNL     1      -8.793  -2.448   0.310  0.00  0.00    +0.127 A 
ATOM      5  C   UNL     1      -9.489  -3.000   1.371  0.00  0.00    +0.023 A 
ATOM      6  C   UNL     1     -10.463  -2.258   2.018  0.00  0.00    +0.010 A 
ATOM      7  C   UNL     1      -9.212  -4.404   1.847  0.00  0.00    +0.152 C 
ATOM      8  C   UNL     1      -8.462  -5.178   0.760  0.00  0.00    +0.084 C 
ATOM      9  C   UNL     1      -7.301  -4.311   0.263  0.00  0.00    +0.110 C 
ATOM     10  O   UNL     1      -7.835  -3.142  -0.357  0.00  0.00    -0.485 OA
ATOM     11  C   UNL     1      -6.471  -5.101  -0.752  0.00  0.00    +0.029 C 
ATOM     12  C   UNL     1      -5.278  -4.253  -1.198  0.00  0.00    -0.075 C 
ATOM     13  C   UNL     1      -5.221  -3.103   0.934  0.00  0.00    -0.075 C 
ATOM     14  C   UNL     1      -6.415  -3.914   1.445  0.00  0.00    +0.029 C 
ATOM     15  N   UNL     1      -4.450  -3.932  -0.017  0.00  0.00    +0.382 N 
ATOM     16  H   UNL     1      -4.179  -4.806   0.448  0.00  0.00    -0.082 HD
ENDROOT
BRANCH   7  17
ATOM     17  O   UNL     1     -10.448  -5.062   2.133  0.00  0.00    -0.387 OA
ATOM     18  H   UNL     1     -10.976  -4.627   2.817  0.00  0.00    +0.210 HD
ENDBRANCH   7  17
BRANCH  15  19
ATOM     19  C   UNL     1      -3.229  -3.213  -0.436  0.00  0.00    -0.042 C 
BRANCH  19  20
ATOM     20  C   UNL     1      -2.450  -2.784   0.809  0.00  0.00    +0.128 C 
BRANCH  20  21
ATOM     21  C   UNL     1      -1.174  -2.099   0.392  0.00  0.00    -0.021 A 
ATOM     22  C   UNL     1      -0.078  -2.849   0.009  0.00  0.00    +0.006 A 
ATOM     23  C   UNL     1       1.088  -2.215  -0.368  0.00  0.00    +0.004 A 
ATOM     24  C   UNL     1       1.169  -0.828  -0.366  0.00  0.00    -0.044 A 
ATOM     25  C   UNL     1       0.076  -0.081   0.011  0.00  0.00    -0.044 A 
ATOM     26  C   UNL     1      -1.096  -0.722   0.392  0.00  0.00    +0.010 A 
ATOM     27  C   UNL     1       0.090   1.425   0.028  0.00  0.00    +0.035 C 
ATOM     28  C   UNL     1       1.524   1.949   0.016  0.00  0.00    +0.005 C 
ATOM     29  C   UNL     1       2.277   1.270  -1.134  0.00  0.00    +0.005 C 
ATOM     30  C   UNL     1       2.476  -0.202  -0.777  0.00  0.00    +0.035 C 
ENDBRANCH  20  21
BRANCH  20  31
ATOM     31  O   UNL     1      -2.138  -3.935   1.596  0.00  0.00    -0.389 OA
ATOM     32  H   UNL     1      -1.599  -4.592   1.135  0.00  0.00    +0.210 HD
ENDBRANCH  20  31
ENDBRANCH  19  20
ENDBRANCH  15  19
TORSDOF 5
