REMARK  Name = ZINC48752276
REMARK  9 active torsions:
REMARK  status: ('A' for Active; 'I' for Inactive)
REMARK    1  A    between atoms: C_1  and  N_2
REMARK    2  A    between atoms: N_2  and  C_3
REMARK    3  A    between atoms: N_2  and  C_4
REMARK    4  A    between atoms: C_4  and  C_9
REMARK    5  A    between atoms: C_9  and  N_10
REMARK    6  A    between atoms: C_11  and  C_13
REMARK    7  A    between atoms: N_15  and  C_16
REMARK    8  A    between atoms: C_21  and  C_22
REMARK    9  A    between atoms: C_22  and  N_23
REMARK                            x       y       z     vdW  Elec       q    Type
REMARK                         _______ _______ _______ _____ _____    ______ ____
ROOT
ATOM      1  C   UNL     1      -3.505   3.431   1.655  0.00  0.00    +0.303 C 
ATOM      2  O   UNL     1      -3.014   4.027   0.718  0.00  0.00    -0.265 OA
ATOM      3  N   UNL     1      -4.261   4.093   2.552  0.00  0.00    -0.277 N 
ATOM      4  H   UNL     1      -4.598   3.632   3.337  0.00  0.00    +0.155 HD
ENDROOT
BRANCH   3   5
ATOM      5  C   UNL     1      -4.561   5.444   2.353  0.00  0.00    +0.039 A 
ATOM      6  C   UNL     1      -3.686   6.253   1.639  0.00  0.00    +0.023 A 
ATOM      7  C   UNL     1      -3.985   7.587   1.444  0.00  0.00    +0.002 A 
ATOM      8  C   UNL     1      -5.154   8.117   1.959  0.00  0.00    +0.000 A 
ATOM      9  C   UNL     1      -6.027   7.315   2.671  0.00  0.00    +0.007 A 
ATOM     10  C   UNL     1      -5.737   5.978   2.864  0.00  0.00    -0.005 A 
BRANCH  10  11
ATOM     11  C   UNL     1      -6.692   5.103   3.634  0.00  0.00    +0.180 C 
BRANCH  11  12
ATOM     12  N   UNL     1      -6.276   5.042   5.037  0.00  0.00    -0.267 N 
ATOM     13  C   UNL     1      -7.043   5.340   6.106  0.00  0.00    +0.108 A 
ATOM     14  C   UNL     1      -6.292   5.158   7.217  0.00  0.00    +0.041 A 
ATOM     15  C   UNL     1      -5.022   4.733   6.812  0.00  0.00    +0.134 A 
ATOM     16  N   UNL     1      -5.013   4.658   5.506  0.00  0.00    -0.179 NA
ENDBRANCH  11  12
ENDBRANCH  10  11
ENDBRANCH   3   5
BRANCH   1  18
ATOM     17  N   UNL     1      -2.515   1.303   0.914  0.00  0.00    -0.309 N 
ATOM     18  C   UNL     1      -3.271   1.965   1.812  0.00  0.00    +0.299 C 
ATOM     19  O   UNL     1      -3.763   1.369   2.748  0.00  0.00    -0.265 OA
ATOM     20  H   UNL     1      -2.122   1.779   0.166  0.00  0.00    +0.149 HD
BRANCH  17  21
ATOM     21  C   UNL     1      -2.286  -0.136   1.068  0.00  0.00    +0.093 C 
BRANCH  21  22
ATOM     22  C   UNL     1      -1.499  -0.659  -0.135  0.00  0.00    -0.050 C 
ATOM     23  C   UNL     1      -2.319  -0.465  -1.428  0.00  0.00    -0.010 C 
ATOM     24  C   UNL     1      -2.004  -1.726  -2.270  0.00  0.00    -0.001 C 
ATOM     25  C   UNL     1      -1.940  -2.845  -1.200  0.00  0.00    -0.001 C 
ATOM     26  C   UNL     1      -1.258  -2.172   0.009  0.00  0.00    -0.010 C 
BRANCH  22  28
ATOM     27  C   UNL     1       0.588  -0.213   0.959  0.00  0.00    -0.096 C 
ATOM     28  N   UNL     1      -0.216   0.047  -0.242  0.00  0.00    +0.381 N 
ATOM     29  C   UNL     1       0.508  -0.430  -1.429  0.00  0.00    -0.096 C 
ATOM     30  H   UNL     1      -0.383   1.038  -0.327  0.00  0.00    -0.082 HD
ENDBRANCH  22  28
ENDBRANCH  21  22
ENDBRANCH  17  21
ENDBRANCH   1  18
TORSDOF 7
