REMARK  Name = ZINC58005278
REMARK  8 active torsions:
REMARK  status: ('A' for Active; 'I' for Inactive)
REMARK    1  A    between atoms: C_1  and  C_2
REMARK    2  A    between atoms: C_2  and  C_3
REMARK    3  A    between atoms: C_3  and  C_18
REMARK    4  A    between atoms: N_6  and  C_15
REMARK    5  A    between atoms: C_10  and  N_14
REMARK    6  A    between atoms: C_15  and  C_16
REMARK    7  A    between atoms: C_15  and  C_17
REMARK    8  A    between atoms: C_18  and  C_19
REMARK                            x       y       z     vdW  Elec       q    Type
REMARK                         _______ _______ _______ _____ _____    ______ ____
ROOT
ATOM      1  C   UNL     1       0.859  -0.518  -1.329  0.00  0.00    +0.186 C 
ATOM      2  C   UNL     1       0.179   0.070  -2.541  0.00  0.00    +0.264 C 
ATOM      3  O   UNL     1      -0.636  -0.583  -3.158  0.00  0.00    -0.271 OA
ATOM      4  N   UNL     1       0.482   1.324  -2.934  0.00  0.00    -0.262 N 
ATOM      5  C   UNL     1       1.517   2.015  -2.284  0.00  0.00    +0.079 A 
ATOM      6  C   UNL     1       1.702   3.371  -2.503  0.00  0.00    +0.029 A 
ATOM      7  C   UNL     1       2.716   4.043  -1.847  0.00  0.00    +0.025 A 
ATOM      8  C   UNL     1       3.549   3.362  -0.968  0.00  0.00    +0.028 A 
ATOM      9  C   UNL     1       3.369   2.002  -0.751  0.00  0.00    +0.070 A 
ATOM     10  C   UNL     1       2.358   1.327  -1.412  0.00  0.00    +0.145 A 
ATOM     11  O   UNL     1       2.191  -0.011  -1.232  0.00  0.00    -0.475 OA
ENDROOT
BRANCH   8  12
ATOM     12  N   UNL     1       4.570   4.046  -0.301  0.00  0.00    -0.358 N 
ATOM     13  H   UNL     1       4.697   4.996  -0.453  0.00  0.00    +0.142 HD
ATOM     14  H   UNL     1       5.152   3.571   0.313  0.00  0.00    +0.142 HD
ENDBRANCH   8  12
BRANCH   4  15
ATOM     15  C   UNL     1      -0.261   1.958  -4.027  0.00  0.00    +0.076 C 
ATOM     16  C   UNL     1      -0.097   1.129  -5.303  0.00  0.00    +0.028 C 
ATOM     17  C   UNL     1      -1.744   2.037  -3.657  0.00  0.00    +0.028 C 
ENDBRANCH   4  15
BRANCH   1  19
ATOM     18  C   UNL     1      -0.074   1.383  -0.004  0.00  0.00    +0.008 C 
ATOM     19  C   UNL     1       0.076  -0.138  -0.071  0.00  0.00    +0.054 C 
ENDBRANCH   1  19
BRANCH   1  20
ATOM     20  C   UNL     1       0.903  -2.042  -1.461  0.00  0.00    +0.054 C 
ATOM     21  C   UNL     1       1.686  -2.423  -2.718  0.00  0.00    +0.008 C 
ENDBRANCH   1  20
TORSDOF 4
