REMARK  Name = ZINC40794442
REMARK  7 active torsions:
REMARK  status: ('A' for Active; 'I' for Inactive)
REMARK    1  A    between atoms: C_1  and  C_2
REMARK    2  A    between atoms: C_5  and  O_8
REMARK    3  A    between atoms: O_8  and  C_9
REMARK    4  A    between atoms: C_10  and  N_24
REMARK    5  A    between atoms: C_11  and  N_15
REMARK    6  A    between atoms: N_15  and  N_16
REMARK    7  A    between atoms: C_17  and  C_19
REMARK                            x       y       z     vdW  Elec       q    Type
REMARK                         _______ _______ _______ _____ _____    ______ ____
ROOT
ATOM      1  C   UNL     1       0.175  -4.771   1.169  0.00  0.00    +0.246 A 
ATOM      2  C   UNL     1       0.309  -6.158   1.214  0.00  0.00    +0.129 A 
ATOM      3  C   UNL     1       0.428  -6.769   2.464  0.00  0.00    +0.163 A 
ATOM      4  N   UNL     1       0.410  -6.010   3.557  0.00  0.00    -0.217 NA
ATOM      5  C   UNL     1       0.282  -4.701   3.469  0.00  0.00    +0.227 A 
ATOM      6  N   UNL     1       0.172  -4.086   2.308  0.00  0.00    -0.199 NA
ENDROOT
BRANCH   2   7
ATOM      7  N   UNL     1       0.323  -6.920   0.035  0.00  0.00    -0.351 N 
ATOM      8  H   UNL     1       0.239  -6.482  -0.827  0.00  0.00    +0.143 HD
ATOM      9  H   UNL     1       0.417  -7.884   0.081  0.00  0.00    +0.143 HD
ENDBRANCH   2   7
BRANCH   3  10
ATOM     10  N   UNL     1       0.564  -8.148   2.566  0.00  0.00    -0.246 N 
ATOM     11  H   UNL     1       0.576  -8.695   1.765  0.00  0.00    +0.172 HD
BRANCH  10  12
ATOM     12  N   UNL     1       0.683  -8.749   3.826  0.00  0.00    -0.229 N 
ATOM     13  C   UNL     1       0.814 -10.087   3.924  0.00  0.00    +0.295 C 
ATOM     14  O   UNL     1       0.829 -10.773   2.919  0.00  0.00    -0.265 OA
ATOM     15  H   UNL     1       0.670  -8.203   4.627  0.00  0.00    +0.173 HD
BRANCH  13  16
ATOM     16  C   UNL     1       0.939 -10.717   5.243  0.00  0.00    +0.190 A 
ATOM     17  C   UNL     1       1.082 -12.053   5.484  0.00  0.00    +0.054 A 
ATOM     18  C   UNL     1       1.163 -12.206   6.877  0.00  0.00    +0.042 A 
ATOM     19  C   UNL     1       1.066 -10.971   7.418  0.00  0.00    +0.196 A 
ATOM     20  O   UNL     1       0.937 -10.076   6.430  0.00  0.00    -0.458 OA
ENDBRANCH  13  16
ENDBRANCH  10  12
ENDBRANCH   3  10
BRANCH   1  21
ATOM     21  O   UNL     1       0.057  -4.129  -0.021  0.00  0.00    -0.436 OA
BRANCH  21  26
ATOM     22  C   UNL     1      -0.025   1.503   0.009  0.00  0.00    +0.044 C 
ATOM     23  C   UNL     1      -0.003  -0.004   0.001  0.00  0.00    -0.050 A 
ATOM     24  C   UNL     1       1.193  -0.678   0.167  0.00  0.00    +0.007 A 
ATOM     25  C   UNL     1       1.216  -2.059   0.160  0.00  0.00    +0.046 A 
ATOM     26  C   UNL     1       0.037  -2.770  -0.013  0.00  0.00    +0.130 A 
ATOM     27  C   UNL     1      -1.162  -2.092  -0.179  0.00  0.00    +0.046 A 
ATOM     28  C   UNL     1      -1.180  -0.711  -0.166  0.00  0.00    +0.007 A 
ENDBRANCH  21  26
ENDBRANCH   1  21
TORSDOF 6
