REMARK  Name = ZINC43189347
REMARK  9 active torsions:
REMARK  status: ('A' for Active; 'I' for Inactive)
REMARK    1  A    between atoms: C_1  and  C_2
REMARK    2  A    between atoms: C_2  and  C_3
REMARK    3  A    between atoms: C_2  and  C_4
REMARK    4  A    between atoms: C_2  and  N_26
REMARK    5  A    between atoms: C_4  and  N_5
REMARK    6  A    between atoms: N_8  and  C_9
REMARK    7  A    between atoms: C_9  and  C_10
REMARK    8  A    between atoms: N_26  and  C_27
REMARK    9  A    between atoms: N_26  and  C_28
REMARK                            x       y       z     vdW  Elec       q    Type
REMARK                         _______ _______ _______ _____ _____    ______ ____
ROOT
ATOM      1  C   UNL     1      -3.765  -6.173  -1.005  0.00  0.00    -0.014 A 
ATOM      2  C   UNL     1      -3.541  -6.673  -2.281  0.00  0.00    +0.010 A 
ATOM      3  C   UNL     1      -3.316  -8.029  -2.429  0.00  0.00    +0.042 A 
ATOM      4  C   UNL     1      -3.322  -8.843  -1.300  0.00  0.00    +0.099 A 
ATOM      5  N   UNL     1      -3.539  -8.328  -0.100  0.00  0.00    -0.349 N 
ATOM      6  C   UNL     1      -3.751  -7.036   0.071  0.00  0.00    +0.089 A 
ATOM      7  N   UNL     1      -3.098 -10.208  -1.433  0.00  0.00    -0.312 N 
ATOM      8  C   UNL     1      -2.987 -10.840  -2.759  0.00  0.00    +0.111 C 
ATOM      9  C   UNL     1      -1.569 -11.392  -2.898  0.00  0.00    +0.054 C 
ATOM     10  C   UNL     1      -1.174 -12.171  -1.672  0.00  0.00    -0.041 A 
ATOM     11  C   UNL     1      -0.127 -13.077  -1.793  0.00  0.00    +0.004 A 
ATOM     12  C   UNL     1       0.291 -13.816  -0.706  0.00  0.00    +0.000 A 
ATOM     13  C   UNL     1      -0.335 -13.655   0.516  0.00  0.00    +0.000 A 
ATOM     14  C   UNL     1      -1.376 -12.759   0.639  0.00  0.00    +0.005 A 
ATOM     15  C   UNL     1      -1.802 -12.019  -0.456  0.00  0.00    -0.027 A 
ATOM     16  C   UNL     1      -2.957 -11.076  -0.260  0.00  0.00    +0.141 C 
ATOM     17  H   UNL     1      -3.539  -8.914   0.674  0.00  0.00    +0.167 HD
ENDROOT
BRANCH   1  18
ATOM     18  C   UNL     1      -4.014  -4.701  -0.797  0.00  0.00    +0.142 C 
BRANCH  18  22
ATOM     19  N   UNL     1      -1.541  -2.054  -0.170  0.00  0.00    -0.301 N 
ATOM     20  C   UNL     1      -2.715  -2.684  -0.370  0.00  0.00    +0.300 C 
ATOM     21  O   UNL     1      -3.754  -2.053  -0.361  0.00  0.00    -0.253 OA
ATOM     22  N   UNL     1      -2.738  -4.016  -0.580  0.00  0.00    -0.295 N 
ATOM     23  H   UNL     1      -0.712  -2.558  -0.177  0.00  0.00    +0.150 HD
ATOM     24  H   UNL     1      -1.909  -4.520  -0.587  0.00  0.00    +0.151 HD
BRANCH  19  25
ATOM     25  C   UNL     1      -1.516  -0.607   0.057  0.00  0.00    +0.093 C 
BRANCH  25  27
ATOM     26  C   UNL     1       0.639  -0.430  -1.194  0.00  0.00    -0.008 C 
ATOM     27  C   UNL     1      -0.065  -0.127   0.130  0.00  0.00    -0.056 C 
ATOM     28  C   UNL     1      -0.039   1.381   0.388  0.00  0.00    -0.008 C 
BRANCH  27  29
ATOM     29  N   UNL     1       0.627  -0.822   1.223  0.00  0.00    +0.380 N 
ATOM     30  C   UNL     1       1.986  -0.283   1.364  0.00  0.00    -0.096 C 
ATOM     31  C   UNL     1      -0.112  -0.621   2.477  0.00  0.00    -0.096 C 
ATOM     32  H   UNL     1       0.676  -1.809   1.016  0.00  0.00    -0.082 HD
ENDBRANCH  27  29
ENDBRANCH  25  27
ENDBRANCH  19  25
ENDBRANCH  18  22
ENDBRANCH   1  18
TORSDOF 5
