REMARK  Name = ZINC59520387
REMARK  6 active torsions:
REMARK  status: ('A' for Active; 'I' for Inactive)
REMARK    1  A    between atoms: C_4  and  O_7
REMARK    2  A    between atoms: O_7  and  C_8
REMARK    3  A    between atoms: C_12  and  N_14
REMARK    4  A    between atoms: C_20  and  O_25
REMARK    5  A    between atoms: O_25  and  C_26
REMARK    6  A    between atoms: C_30  and  N_32
REMARK                            x       y       z     vdW  Elec       q    Type
REMARK                         _______ _______ _______ _____ _____    ______ ____
ROOT
ATOM      1  N   UNL     1       6.597  -4.220   0.519  0.00  0.00    -0.202 N 
ATOM      2  C   UNL     1       7.796  -3.726   0.160  0.00  0.00    +0.258 C 
ATOM      3  O   UNL     1       8.033  -2.565  -0.107  0.00  0.00    -0.269 OA
ATOM      4  C   UNL     1       8.775  -4.830   0.146  0.00  0.00    +0.050 A 
ATOM      5  C   UNL     1      10.130  -4.917  -0.140  0.00  0.00    +0.017 A 
ATOM      6  C   UNL     1      10.773  -6.139  -0.058  0.00  0.00    +0.047 A 
ATOM      7  C   UNL     1      10.071  -7.279   0.310  0.00  0.00    +0.129 A 
ATOM      8  C   UNL     1       8.710  -7.204   0.599  0.00  0.00    +0.060 A 
ATOM      9  C   UNL     1       8.059  -5.987   0.519  0.00  0.00    +0.053 A 
ATOM     10  C   UNL     1       6.668  -5.542   0.753  0.00  0.00    +0.258 C 
ATOM     11  O   UNL     1       5.745  -6.253   1.097  0.00  0.00    -0.269 OA
ENDROOT
BRANCH   1  16
ATOM     12  C   UNL     1       4.301  -1.340   0.493  0.00  0.00    +0.130 A 
ATOM     13  C   UNL     1       3.115  -1.950   0.877  0.00  0.00    +0.046 A 
ATOM     14  C   UNL     1       3.086  -3.306   1.140  0.00  0.00    +0.005 A 
ATOM     15  C   UNL     1       4.238  -4.059   1.021  0.00  0.00    +0.024 A 
ATOM     16  C   UNL     1       5.428  -3.455   0.638  0.00  0.00    +0.048 A 
ATOM     17  C   UNL     1       5.458  -2.094   0.367  0.00  0.00    +0.070 A 
BRANCH  12  18
ATOM     18  O   UNL     1       4.328  -0.006   0.235  0.00  0.00    -0.456 OA
BRANCH  18  22
ATOM     19  C   UNL     1       5.147   2.555   3.363  0.00  0.00    +0.000 A 
ATOM     20  C   UNL     1       5.115   1.190   3.579  0.00  0.00    +0.004 A 
ATOM     21  C   UNL     1       4.841   0.330   2.534  0.00  0.00    +0.046 A 
ATOM     22  C   UNL     1       4.598   0.837   1.265  0.00  0.00    +0.128 A 
ATOM     23  C   UNL     1       4.630   2.208   1.051  0.00  0.00    +0.046 A 
ATOM     24  C   UNL     1       4.905   3.063   2.100  0.00  0.00    +0.004 A 
ENDBRANCH  18  22
ENDBRANCH  12  18
ENDBRANCH   1  16
BRANCH   7  25
ATOM     25  O   UNL     1      10.713  -8.472   0.387  0.00  0.00    -0.456 OA
BRANCH  25  26
ATOM     26  C   UNL     1      11.271  -8.820   1.576  0.00  0.00    +0.130 A 
ATOM     27  C   UNL     1      11.156  -7.975   2.672  0.00  0.00    +0.046 A 
ATOM     28  C   UNL     1      11.722  -8.327   3.881  0.00  0.00    +0.005 A 
ATOM     29  C   UNL     1      12.405  -9.522   4.006  0.00  0.00    +0.023 A 
ATOM     30  C   UNL     1      12.524 -10.372   2.913  0.00  0.00    +0.028 A 
ATOM     31  C   UNL     1      11.950 -10.022   1.698  0.00  0.00    +0.069 A 
BRANCH  30  32
ATOM     32  N   UNL     1      13.214 -11.580   3.038  0.00  0.00    -0.358 N 
ATOM     33  H   UNL     1      13.611 -11.825   3.889  0.00  0.00    +0.142 HD
ATOM     34  H   UNL     1      13.297 -12.173   2.275  0.00  0.00    +0.142 HD
ENDBRANCH  30  32
ENDBRANCH  25  26
ENDBRANCH   7  25
TORSDOF 6
