REMARK  Name = ZINC60340131
REMARK  7 active torsions:
REMARK  status: ('A' for Active; 'I' for Inactive)
REMARK    1  A    between atoms: C_1  and  C_2
REMARK    2  A    between atoms: N_13  and  C_26
REMARK    3  A    between atoms: C_14  and  S_16
REMARK    4  A    between atoms: S_16  and  C_17
REMARK    5  A    between atoms: C_17  and  C_18
REMARK    6  A    between atoms: C_18  and  C_19
REMARK    7  A    between atoms: C_19  and  C_20
REMARK                            x       y       z     vdW  Elec       q    Type
REMARK                         _______ _______ _______ _____ _____    ______ ____
ROOT
ATOM      1  C   UNL     1      -1.565   1.449   2.829  0.00  0.00    +0.008 C 
ATOM      2  C   UNL     1      -1.357   0.066   2.208  0.00  0.00    -0.009 C 
ATOM      3  C   UNL     1      -2.557  -0.829   2.534  0.00  0.00    +0.008 C 
ATOM      4  C   UNL     1      -2.477  -2.120   1.719  0.00  0.00    +0.037 C 
ATOM      5  C   UNL     1      -1.107  -2.757   1.934  0.00  0.00    -0.023 A 
ATOM      6  C   UNL     1      -0.077  -2.026   2.415  0.00  0.00    -0.004 A 
ATOM      7  S   UNL     1       1.293  -3.151   2.502  0.00  0.00    -0.073 S 
ATOM      8  C   UNL     1       0.483  -4.598   1.896  0.00  0.00    +0.117 A 
ATOM      9  C   UNL     1      -0.835  -4.155   1.643  0.00  0.00    +0.076 A 
ATOM     10  C   UNL     1      -1.763  -5.120   1.131  0.00  0.00    +0.268 A 
ATOM     11  O   UNL     1      -2.921  -4.833   0.881  0.00  0.00    -0.267 OA
ATOM     12  N   UNL     1      -1.274  -6.368   0.941  0.00  0.00    -0.255 N 
ATOM     13  C   UNL     1       0.018  -6.708   1.213  0.00  0.00    +0.177 A 
ATOM     14  N   UNL     1       0.902  -5.840   1.687  0.00  0.00    -0.216 NA
ATOM     15  C   UNL     1      -0.089  -0.575   2.789  0.00  0.00    +0.046 C 
ENDROOT
BRANCH  12  16
ATOM     16  C   UNL     1      -2.135  -7.354   0.442  0.00  0.00    +0.052 A 
ATOM     17  C   UNL     1      -2.879  -8.136   1.316  0.00  0.00    +0.026 A 
ATOM     18  C   UNL     1      -3.726  -9.107   0.821  0.00  0.00    +0.002 A 
ATOM     19  C   UNL     1      -3.835  -9.302  -0.544  0.00  0.00    +0.000 A 
ATOM     20  C   UNL     1      -3.096  -8.525  -1.417  0.00  0.00    +0.002 A 
ATOM     21  C   UNL     1      -2.250  -7.549  -0.928  0.00  0.00    +0.026 A 
ENDBRANCH  12  16
BRANCH  13  22
ATOM     22  S   UNL     1       0.534  -8.368   0.924  0.00  0.00    -0.087 S 
BRANCH  22  23
ATOM     23  C   UNL     1       2.281  -8.375   1.411  0.00  0.00    +0.078 C 
BRANCH  23  24
ATOM     24  C   UNL     1       2.861  -9.776   1.208  0.00  0.00    +0.020 C 
BRANCH  24  25
ATOM     25  C   UNL     1       4.335  -9.782   1.618  0.00  0.00    +0.097 C 
BRANCH  25  26
ATOM     26  C   UNL     1       4.907 -11.162   1.418  0.00  0.00    +0.220 C 
ATOM     27  O   UNL     1       4.205 -12.053   0.989  0.00  0.00    -0.275 OA
ATOM     28  N   UNL     1       6.198 -11.406   1.715  0.00  0.00    -0.240 N 
ATOM     29  C   UNL     1       6.710 -12.641   1.536  0.00  0.00    +0.303 C 
ATOM     30  O   UNL     1       6.006 -13.533   1.106  0.00  0.00    -0.253 OA
ATOM     31  N   UNL     1       8.001 -12.885   1.833  0.00  0.00    -0.313 N 
ATOM     32  H   UNL     1       6.760 -10.694   2.059  0.00  0.00    +0.159 HD
ATOM     33  H   UNL     1       8.563 -12.172   2.177  0.00  0.00    +0.146 HD
ATOM     34  H   UNL     1       8.369 -13.773   1.704  0.00  0.00    +0.146 HD
ENDBRANCH  25  26
ENDBRANCH  24  25
ENDBRANCH  23  24
ENDBRANCH  22  23
ENDBRANCH  13  22
TORSDOF 6
