REMARK  Name = ZINC34899531
REMARK  6 active torsions:
REMARK  status: ('A' for Active; 'I' for Inactive)
REMARK    1  A    between atoms: C_1  and  C_2
REMARK    2  A    between atoms: C_6  and  S_8
REMARK    3  A    between atoms: S_8  and  N_11
REMARK    4  A    between atoms: N_11  and  C_12
REMARK    5  A    between atoms: C_18  and  N_20
REMARK    6  A    between atoms: C_21  and  C_23
REMARK                            x       y       z     vdW  Elec       q    Type
REMARK                         _______ _______ _______ _____ _____    ______ ____
ROOT
ATOM      1  C   UNL     1       2.489  -2.047   3.444  0.00  0.00    +0.097 C 
ATOM      2  C   UNL     1       3.257  -1.614   2.194  0.00  0.00    +0.022 C 
ATOM      3  C   UNL     1       4.134  -2.770   1.708  0.00  0.00    +0.002 C 
ATOM      4  C   UNL     1       5.125  -3.155   2.808  0.00  0.00    +0.002 C 
ATOM      5  C   UNL     1       4.357  -3.587   4.058  0.00  0.00    +0.024 C 
ATOM      6  C   UNL     1       3.480  -2.432   4.544  0.00  0.00    +0.091 C 
ENDROOT
BRANCH   6   7
ATOM      7  N   UNL     1       2.745  -2.846   5.741  0.00  0.00    -0.312 N 
ATOM      8  C   UNL     1       3.322  -2.747   6.955  0.00  0.00    +0.199 C 
ATOM      9  O   UNL     1       4.451  -2.315   7.056  0.00  0.00    -0.278 OA
ATOM     10  H   UNL     1       1.842  -3.192   5.660  0.00  0.00    +0.149 HD
BRANCH   8  11
ATOM     11  C   UNL     1       2.566  -3.174   8.186  0.00  0.00    +0.016 C 
ATOM     12  C   UNL     1       2.247  -4.689   8.126  0.00  0.00    -0.009 C 
ATOM     13  C   UNL     1       2.082  -5.034   9.629  0.00  0.00    -0.020 C 
ATOM     14  C   UNL     1       3.131  -4.130  10.311  0.00  0.00    -0.082 C 
ATOM     15  N   UNL     1       3.409  -3.011   9.390  0.00  0.00    +0.387 N 
ATOM     16  H   UNL     1       4.383  -3.022   9.127  0.00  0.00    -0.085 HD
ATOM     17  H   UNL     1       3.190  -2.135   9.842  0.00  0.00    -0.085 HD
ENDBRANCH   8  11
ENDBRANCH   6   7
BRANCH   1  18
ATOM     18  N   UNL     1       1.644  -3.200   3.123  0.00  0.00    -0.185 NA
ATOM     19  H   UNL     1       2.014  -4.096   3.154  0.00  0.00    +0.148 HD
BRANCH  18  20
ATOM     20  S   UNL     1       0.057  -2.973   2.709  0.00  0.00    +0.059 S 
ATOM     21  O   UNL     1      -0.500  -2.110   3.691  0.00  0.00    -0.153 OA
ATOM     22  O   UNL     1      -0.479  -4.260   2.433  0.00  0.00    -0.153 OA
BRANCH  20  28
ATOM     23  C   UNL     1      -0.018   1.503   0.010  0.00  0.00    +0.044 C 
ATOM     24  C   UNL     1       0.002  -0.004   0.002  0.00  0.00    -0.049 A 
ATOM     25  C   UNL     1       0.006  -0.689  -1.199  0.00  0.00    +0.003 A 
ATOM     26  C   UNL     1       0.025  -2.071  -1.207  0.00  0.00    +0.002 A 
ATOM     27  C   UNL     1       0.040  -2.768  -0.013  0.00  0.00    +0.028 A 
ATOM     28  C   UNL     1       0.037  -2.084   1.188  0.00  0.00    +0.106 A 
ATOM     29  C   UNL     1       0.023  -0.702   1.195  0.00  0.00    +0.032 A 
ENDBRANCH  20  28
ENDBRANCH  18  20
ENDBRANCH   1  18
TORSDOF 5
