REMARK  Name = ZINC25042644
REMARK  7 active torsions:
REMARK  status: ('A' for Active; 'I' for Inactive)
REMARK    1  A    between atoms: C_1  and  C_2
REMARK    2  A    between atoms: C_4  and  C_29
REMARK    3  A    between atoms: C_5  and  N_9
REMARK    4  A    between atoms: C_6  and  C_8
REMARK    5  A    between atoms: C_10  and  C_12
REMARK    6  A    between atoms: C_12  and  N_13
REMARK    7  A    between atoms: C_14  and  C_16
REMARK                            x       y       z     vdW  Elec       q    Type
REMARK                         _______ _______ _______ _____ _____    ______ ____
ROOT
ATOM      1  N   UNL     1      -1.294   3.114   1.373  0.00  0.00    -0.303 N 
ATOM      2  C   UNL     1      -2.411   3.816   1.649  0.00  0.00    +0.250 C 
ATOM      3  O   UNL     1      -3.444   3.576   1.052  0.00  0.00    -0.270 OA
ATOM      4  H   UNL     1      -0.344   3.380   1.857  0.00  0.00    +0.150 HD
ENDROOT
BRANCH   2   5
ATOM      5  C   UNL     1      -2.381   4.873   2.672  0.00  0.00    +0.102 A 
ATOM      6  C   UNL     1      -3.484   5.688   2.888  0.00  0.00    +0.031 A 
ATOM      7  C   UNL     1      -3.410   6.686   3.883  0.00  0.00    +0.037 A 
ATOM      8  C   UNL     1      -2.258   6.852   4.633  0.00  0.00    +0.030 A 
ATOM      9  N   UNL     1      -1.183   6.066   4.418  0.00  0.00    -0.325 N 
ATOM     10  H   UNL     1      -0.270   6.209   5.015  0.00  0.00    +0.169 HD
ATOM     11  C   UNL     1      -1.185   5.098   3.487  0.00  0.00    +0.261 A 
ATOM     12  O   UNL     1      -0.194   4.409   3.321  0.00  0.00    -0.267 OA
ATOM     13  C   UNL     1      -2.166   7.903   5.709  0.00  0.00    +0.054 C 
ATOM     14  C   UNL     1      -3.165   9.031   5.471  0.00  0.00    +0.014 C 
ATOM     15  C   UNL     1      -4.574   8.438   5.340  0.00  0.00    +0.080 C 
ATOM     16  C   UNL     1      -4.577   7.555   4.110  0.00  0.00    +0.165 C 
ATOM     17  O   UNL     1      -5.511   7.564   3.335  0.00  0.00    -0.292 OA
ENDBRANCH   2   5
BRANCH   1  18
ATOM     18  C   UNL     1      -1.347   1.996   0.428  0.00  0.00    +0.200 C 
BRANCH  18  20
ATOM     19  N   UNL     1       0.217   0.333  -0.525  0.00  0.00    -0.284 N 
ATOM     20  C   UNL     1       0.024   1.383   0.297  0.00  0.00    +0.234 C 
ATOM     21  O   UNL     1       0.954   1.840   0.927  0.00  0.00    -0.274 OA
ATOM     22  H   UNL     1      -0.641  -0.133  -1.033  0.00  0.00    +0.155 HD
BRANCH  19  27
ATOM     23  C   UNL     1       5.450  -1.689  -1.365  0.00  0.00    +0.044 C 
ATOM     24  C   UNL     1       4.060  -1.152  -1.142  0.00  0.00    -0.050 A 
ATOM     25  C   UNL     1       3.041  -2.009  -0.769  0.00  0.00    +0.008 A 
ATOM     26  C   UNL     1       1.766  -1.520  -0.563  0.00  0.00    -0.029 A 
ATOM     27  C   UNL     1       1.508  -0.166  -0.732  0.00  0.00    +0.039 A 
ATOM     28  C   UNL     1       2.532   0.692  -1.111  0.00  0.00    -0.029 A 
ATOM     29  C   UNL     1       3.806   0.197  -1.310  0.00  0.00    +0.008 A 
ATOM     30  C   UNL     1       2.255   2.161  -1.301  0.00  0.00    +0.045 C 
ATOM     31  C   UNL     1       0.656  -2.455  -0.156  0.00  0.00    +0.045 C 
ENDBRANCH  19  27
ENDBRANCH  18  20
ENDBRANCH   1  18
TORSDOF 4
