REMARK  Name = ZINC35379252
REMARK  7 active torsions:
REMARK  status: ('A' for Active; 'I' for Inactive)
REMARK    1  A    between atoms: C_1  and  C_2
REMARK    2  A    between atoms: C_2  and  C_3
REMARK    3  A    between atoms: C_10  and  C_35
REMARK    4  A    between atoms: C_11  and  S_15
REMARK    5  A    between atoms: S_15  and  N_18
REMARK    6  A    between atoms: C_22  and  C_25
REMARK    7  A    between atoms: N_27  and  C_28
REMARK                            x       y       z     vdW  Elec       q    Type
REMARK                         _______ _______ _______ _____ _____    ______ ____
ROOT
ATOM      1  S   UNL     1      -4.952  -0.429   4.031  0.00  0.00    +0.061 S 
ATOM      2  O   UNL     1      -5.499  -1.167   5.116  0.00  0.00    -0.153 OA
ATOM      3  O   UNL     1      -4.542   0.925   4.161  0.00  0.00    -0.153 OA
ENDROOT
BRANCH   1  11
ATOM      4  C   UNL     1      -0.434  -4.816   4.203  0.00  0.00    +0.259 C 
ATOM      5  C   UNL     1       0.222  -4.504   2.882  0.00  0.00    +0.258 C 
ATOM      6  O   UNL     1       1.127  -5.199   2.471  0.00  0.00    -0.271 OA
ATOM      7  N   UNL     1      -0.202  -3.447   2.157  0.00  0.00    -0.280 N 
ATOM      8  C   UNL     1      -1.330  -2.733   2.586  0.00  0.00    +0.076 A 
ATOM      9  C   UNL     1      -1.658  -1.519   2.004  0.00  0.00    +0.032 A 
ATOM     10  C   UNL     1      -2.766  -0.820   2.447  0.00  0.00    -0.022 A 
ATOM     11  C   UNL     1      -3.546  -1.330   3.468  0.00  0.00    +0.112 A 
ATOM     12  C   UNL     1      -3.227  -2.543   4.050  0.00  0.00    +0.076 A 
ATOM     13  C   UNL     1      -2.123  -3.251   3.607  0.00  0.00    +0.145 A 
ATOM     14  O   UNL     1      -1.817  -4.460   4.149  0.00  0.00    -0.478 OA
ATOM     15  C   UNL     1      -3.124   0.500   1.814  0.00  0.00    +0.046 C 
ATOM     16  H   UNL     1       0.267  -3.184   1.350  0.00  0.00    +0.155 HD
BRANCH   4  18
ATOM     17  C   UNL     1      -0.324  -4.431   6.669  0.00  0.00    +0.008 C 
ATOM     18  C   UNL     1       0.255  -4.021   5.314  0.00  0.00    +0.051 C 
ENDBRANCH   4  18
ENDBRANCH   1  11
BRANCH   1  19
ATOM     19  N   UNL     1      -6.077  -0.469   2.817  0.00  0.00    -0.176 NA
ATOM     20  C   UNL     1      -6.152   0.617   1.830  0.00  0.00    +0.109 C 
ATOM     21  C   UNL     1      -6.074   0.012   0.425  0.00  0.00    +0.018 C 
ATOM     22  C   UNL     1      -7.162  -1.053   0.271  0.00  0.00    +0.015 C 
ATOM     23  C   UNL     1      -6.933  -2.170   1.291  0.00  0.00    +0.091 C 
ATOM     24  C   UNL     1      -7.016  -1.593   2.703  0.00  0.00    +0.122 C 
BRANCH  23  25
ATOM     25  C   UNL     1      -7.985  -3.234   1.117  0.00  0.00    +0.218 C 
ATOM     26  O   UNL     1      -8.731  -3.505   2.034  0.00  0.00    -0.275 OA
ATOM     27  N   UNL     1      -8.098  -3.885  -0.058  0.00  0.00    -0.312 N 
ATOM     28  H   UNL     1      -7.501  -3.668  -0.791  0.00  0.00    +0.149 HD
BRANCH  27  29
ATOM     29  C   UNL     1      -9.121  -4.920  -0.228  0.00  0.00    +0.073 C 
ATOM     30  C   UNL     1      -8.597  -6.242   0.367  0.00  0.00    +0.022 C 
ATOM     31  C   UNL     1      -9.773  -7.134   0.661  0.00  0.00    +0.002 C 
ATOM     32  C   UNL     1     -10.079  -8.106  -0.494  0.00  0.00    +0.000 C 
ATOM     33  C   UNL     1      -9.967  -7.442  -1.880  0.00  0.00    +0.000 C 
ATOM     34  C   UNL     1     -10.565  -6.061  -1.906  0.00  0.00    +0.002 C 
ATOM     35  C   UNL     1      -9.443  -5.036  -1.642  0.00  0.00    +0.022 C 
ENDBRANCH  27  29
ENDBRANCH  23  25
ENDBRANCH   1  19
TORSDOF 5
