REMARK  Name = ZINC08790300
REMARK  7 active torsions:
REMARK  status: ('A' for Active; 'I' for Inactive)
REMARK    1  A    between atoms: C_4  and  C_7
REMARK    2  A    between atoms: C_7  and  C_8
REMARK    3  A    between atoms: C_8  and  N_9
REMARK    4  A    between atoms: C_14  and  C_30
REMARK    5  A    between atoms: C_30  and  C_31
REMARK    6  A    between atoms: C_34  and  O_38
REMARK    7  A    between atoms: C_35  and  O_37
REMARK                            x       y       z     vdW  Elec       q    Type
REMARK                         _______ _______ _______ _____ _____    ______ ____
ROOT
ATOM      1  N   UNL     1      -1.793   2.423   0.689  0.00  0.00    -0.241 N 
ATOM      2  C   UNL     1      -0.793   1.651   1.173  0.00  0.00    +0.224 C 
ATOM      3  O   UNL     1      -0.557   1.438   2.343  0.00  0.00    -0.275 OA
ATOM      4  C   UNL     1      -0.013   1.086   0.008  0.00  0.00    +0.073 C 
ATOM      5  C   UNL     1       1.404   1.698  -0.002  0.00  0.00    -0.053 C 
ATOM      6  C   UNL     1       0.337   2.605  -1.872  0.00  0.00    +0.050 C 
ATOM      7  C   UNL     1      -0.717   1.686  -1.241  0.00  0.00    +0.088 C 
ATOM      8  C   UNL     1      -1.837   2.510  -0.646  0.00  0.00    +0.225 C 
ATOM      9  O   UNL     1      -2.648   3.150  -1.279  0.00  0.00    -0.275 OA
ATOM     10  C   UNL     1       1.046   1.929  -3.012  0.00  0.00    -0.028 A 
ATOM     11  C   UNL     1       1.799   0.781  -3.113  0.00  0.00    +0.004 A 
ATOM     12  C   UNL     1       2.336   0.410  -4.333  0.00  0.00    +0.000 A 
ATOM     13  C   UNL     1       2.113   1.195  -5.450  0.00  0.00    +0.002 A 
ATOM     14  C   UNL     1       1.358   2.345  -5.354  0.00  0.00    +0.023 A 
ATOM     15  C   UNL     1       0.815   2.727  -4.129  0.00  0.00    +0.036 A 
ATOM     16  N   UNL     1       0.030   3.829  -3.782  0.00  0.00    -0.286 N 
ATOM     17  C   UNL     1      -0.293   3.831  -2.474  0.00  0.00    +0.211 C 
ATOM     18  O   UNL     1      -0.962   4.660  -1.895  0.00  0.00    -0.277 OA
ATOM     19  H   UNL     1      -0.250   4.513  -4.410  0.00  0.00    +0.155 HD
ATOM     20  N   UNL     1       1.254   2.923  -0.792  0.00  0.00    +0.394 N 
ATOM     21  H   UNL     1       2.163   3.213  -1.173  0.00  0.00    -0.083 HD
ATOM     22  H   UNL     1       0.870   3.676  -0.210  0.00  0.00    -0.083 HD
ENDROOT
BRANCH   1  23
ATOM     23  C   UNL     1      -2.745   3.115   1.560  0.00  0.00    +0.121 C 
BRANCH  23  24
ATOM     24  C   UNL     1      -3.953   2.211   1.817  0.00  0.00    +0.054 C 
BRANCH  24  28
ATOM     25  C   UNL     1      -6.731   4.231   4.356  0.00  0.00    +0.000 A 
ATOM     26  C   UNL     1      -6.828   4.361   2.983  0.00  0.00    +0.000 A 
ATOM     27  C   UNL     1      -5.929   3.708   2.162  0.00  0.00    +0.004 A 
ATOM     28  C   UNL     1      -4.932   2.924   2.712  0.00  0.00    -0.046 A 
ATOM     29  C   UNL     1      -4.838   2.789   4.085  0.00  0.00    +0.004 A 
ATOM     30  C   UNL     1      -5.735   3.446   4.907  0.00  0.00    +0.000 A 
ENDBRANCH  24  28
ENDBRANCH  23  24
ENDBRANCH   1  23
BRANCH   5  31
ATOM     31  C   UNL     1       1.861   2.005   1.425  0.00  0.00    +0.020 C 
BRANCH  31  32
ATOM     32  C   UNL     1       3.289   2.486   1.402  0.00  0.00    -0.045 A 
ATOM     33  C   UNL     1       3.560   3.836   1.272  0.00  0.00    +0.007 A 
ATOM     34  C   UNL     1       4.868   4.283   1.252  0.00  0.00    +0.049 A 
ATOM     35  C   UNL     1       5.911   3.377   1.361  0.00  0.00    +0.158 A 
ATOM     36  C   UNL     1       5.639   2.019   1.492  0.00  0.00    +0.158 A 
ATOM     37  C   UNL     1       4.325   1.578   1.518  0.00  0.00    +0.052 A 
BRANCH  36  38
ATOM     38  O   UNL     1       6.659   1.126   1.600  0.00  0.00    -0.503 OA
ATOM     39  H   UNL     1       6.938   0.956   2.510  0.00  0.00    +0.292 HD
ENDBRANCH  36  38
BRANCH  35  40
ATOM     40  O   UNL     1       7.199   3.815   1.341  0.00  0.00    -0.503 OA
ATOM     41  H   UNL     1       7.555   4.029   2.214  0.00  0.00    +0.292 HD
ENDBRANCH  35  40
ENDBRANCH  31  32
ENDBRANCH   5  31
TORSDOF 7
