REMARK  Name = ZINC66276962
REMARK  9 active torsions:
REMARK  status: ('A' for Active; 'I' for Inactive)
REMARK    1  A    between atoms: C_1  and  C_2
REMARK    2  A    between atoms: C_8  and  N_10
REMARK    3  A    between atoms: N_10  and  C_11
REMARK    4  A    between atoms: C_11  and  N_13
REMARK    5  A    between atoms: N_13  and  N_14
REMARK    6  A    between atoms: C_15  and  C_17
REMARK    7  A    between atoms: C_20  and  N_26
REMARK    8  A    between atoms: C_21  and  N_23
REMARK    9  A    between atoms: N_26  and  C_27
REMARK                            x       y       z     vdW  Elec       q    Type
REMARK                         _______ _______ _______ _____ _____    ______ ____
ROOT
ATOM      1  N   UNL     1      -1.150   0.861   5.082  0.00  0.00    -0.231 N 
ATOM      2  C   UNL     1      -1.905   1.315   6.102  0.00  0.00    +0.260 C 
ATOM      3  O   UNL     1      -1.412   1.467   7.203  0.00  0.00    -0.269 OA
ATOM      4  H   UNL     1      -1.543   0.739   4.204  0.00  0.00    +0.173 HD
ENDROOT
BRANCH   2   5
ATOM      5  C   UNL     1      -3.330   1.627   5.882  0.00  0.00    +0.040 A 
ATOM      6  C   UNL     1      -3.900   1.448   4.618  0.00  0.00    +0.015 A 
ATOM      7  C   UNL     1      -5.229   1.740   4.417  0.00  0.00    +0.026 A 
ATOM      8  C   UNL     1      -6.006   2.215   5.470  0.00  0.00    +0.058 A 
ATOM      9  C   UNL     1      -5.442   2.395   6.729  0.00  0.00    +0.148 A 
ATOM     10  C   UNL     1      -4.114   2.099   6.939  0.00  0.00    +0.047 A 
BRANCH   9  11
ATOM     11  N   UNL     1      -6.272   2.901   7.846  0.00  0.00    +0.058 N 
ATOM     12  O   UNL     1      -5.760   3.159   8.910  0.00  0.00    -0.126 OA
ATOM     13  O   UNL     1      -7.461   3.057   7.693  0.00  0.00    -0.126 OA
ENDBRANCH   9  11
BRANCH   8  14
ATOM     14  N   UNL     1      -7.350   2.509   5.263  0.00  0.00    -0.339 N 
ATOM     15  H   UNL     1      -7.912   2.762   6.011  0.00  0.00    +0.146 HD
BRANCH  14  16
ATOM     16  C   UNL     1      -7.915   2.438   3.913  0.00  0.00    +0.071 C 
ATOM     17  C   UNL     1      -8.751   3.627   3.433  0.00  0.00    +0.024 C 
ATOM     18  C   UNL     1      -9.435   2.306   3.790  0.00  0.00    +0.024 C 
ENDBRANCH  14  16
ENDBRANCH   8  14
ENDBRANCH   2   5
BRANCH   1  19
ATOM     19  N   UNL     1       0.203   0.564   5.291  0.00  0.00    -0.246 N 
ATOM     20  H   UNL     1       0.597   0.685   6.169  0.00  0.00    +0.172 HD
BRANCH  19  21
ATOM     21  C   UNL     1       0.959   0.109   4.271  0.00  0.00    +0.147 C 
ATOM     22  S   UNL     1       2.612  -0.253   4.526  0.00  0.00    -0.017 S 
BRANCH  21  23
ATOM     23  N   UNL     1       0.412  -0.059   3.051  0.00  0.00    -0.322 N 
ATOM     24  H   UNL     1      -0.525   0.146   2.906  0.00  0.00    +0.148 HD
BRANCH  23  31
ATOM     25  C   UNL     1       0.596   1.442   0.581  0.00  0.00    +0.009 C 
ATOM     26  C   UNL     1       0.632  -0.087   0.615  0.00  0.00    +0.006 C 
ATOM     27  C   UNL     1       1.489  -0.603  -0.542  0.00  0.00    +0.005 C 
ATOM     28  C   UNL     1       1.525  -2.132  -0.508  0.00  0.00    +0.000 C 
ATOM     29  C   UNL     1       2.126  -2.598   0.819  0.00  0.00    +0.002 C 
ATOM     30  C   UNL     1       1.269  -2.083   1.976  0.00  0.00    +0.022 C 
ATOM     31  C   UNL     1       1.233  -0.553   1.942  0.00  0.00    +0.075 C 
ENDBRANCH  23  31
ENDBRANCH  21  23
ENDBRANCH  19  21
ENDBRANCH   1  19
TORSDOF 8
