REMARK  Name = ZINC39507975
REMARK  5 active torsions:
REMARK  status: ('A' for Active; 'I' for Inactive)
REMARK    1  A    between atoms: C_4  and  S_7
REMARK    2  A    between atoms: S_7  and  N_10
REMARK    3  A    between atoms: C_12  and  C_22
REMARK    4  A    between atoms: C_18  and  O_21
REMARK    5  A    between atoms: C_27  and  O_28
REMARK                            x       y       z     vdW  Elec       q    Type
REMARK                         _______ _______ _______ _____ _____    ______ ____
ROOT
ATOM      1  N   UNL     1       4.492  -1.007   1.508  0.00  0.00    -0.170 NA
ATOM      2  C   UNL     1       5.276  -0.009   2.264  0.00  0.00    +0.118 C 
ATOM      3  C   UNL     1       6.047  -0.831   3.328  0.00  0.00    +0.040 C 
ATOM      4  C   UNL     1       5.006  -1.923   3.698  0.00  0.00    +0.033 C 
ATOM      5  C   UNL     1       4.290  -2.172   2.364  0.00  0.00    +0.046 C 
ATOM      6  C   UNL     1       2.793  -2.452   2.587  0.00  0.00    +0.026 C 
ATOM      7  C   UNL     1       2.372  -3.264   1.343  0.00  0.00    +0.033 C 
ATOM      8  C   UNL     1       3.654  -3.902   0.778  0.00  0.00    +0.116 C 
ATOM      9  C   UNL     1       4.812  -3.457   1.698  0.00  0.00    +0.055 C 
ENDROOT
BRANCH   3  10
ATOM     10  C   UNL     1       6.386   0.019   4.526  0.00  0.00    -0.002 A 
ATOM     11  C   UNL     1       5.379   0.631   5.247  0.00  0.00    +0.007 A 
ATOM     12  C   UNL     1       5.690   1.411   6.345  0.00  0.00    +0.001 A 
ATOM     13  C   UNL     1       7.009   1.581   6.725  0.00  0.00    +0.004 A 
ATOM     14  C   UNL     1       8.019   0.971   6.007  0.00  0.00    +0.046 A 
ATOM     15  C   UNL     1       7.710   0.183   4.908  0.00  0.00    +0.120 A 
BRANCH  15  16
ATOM     16  O   UNL     1       8.702  -0.423   4.204  0.00  0.00    -0.506 OA
ATOM     17  H   UNL     1       9.052   0.111   3.478  0.00  0.00    +0.292 HD
ENDBRANCH  15  16
ENDBRANCH   3  10
BRANCH   1  18
ATOM     18  S   UNL     1       3.934  -0.832  -0.041  0.00  0.00    +0.061 S 
ATOM     19  O   UNL     1       3.219  -2.020  -0.352  0.00  0.00    -0.153 OA
ATOM     20  O   UNL     1       5.032  -0.377  -0.819  0.00  0.00    -0.153 OA
BRANCH  18  24
ATOM     21  C   UNL     1       0.900   2.528   0.001  0.00  0.00    +0.000 A 
ATOM     22  C   UNL     1       2.246   2.814  -0.124  0.00  0.00    +0.002 A 
ATOM     23  C   UNL     1       3.173   1.788  -0.137  0.00  0.00    +0.028 A 
ATOM     24  C   UNL     1       2.753   0.476  -0.024  0.00  0.00    +0.105 A 
ATOM     25  C   UNL     1       1.406   0.190   0.103  0.00  0.00    +0.028 A 
ATOM     26  C   UNL     1       0.480   1.216   0.114  0.00  0.00    +0.002 A 
ENDBRANCH  18  24
ENDBRANCH   1  18
BRANCH   8  27
ATOM     27  O   UNL     1       3.539  -5.326   0.790  0.00  0.00    -0.392 OA
ATOM     28  H   UNL     1       2.815  -5.667   0.246  0.00  0.00    +0.210 HD
ENDBRANCH   8  27
TORSDOF 5
