REMARK  Name = ZINC56952199
REMARK  7 active torsions:
REMARK  status: ('A' for Active; 'I' for Inactive)
REMARK    1  A    between atoms: C_1  and  C_2
REMARK    2  A    between atoms: C_2  and  O_3
REMARK    3  A    between atoms: O_3  and  C_4
REMARK    4  A    between atoms: C_7  and  C_10
REMARK    5  A    between atoms: C_10  and  C_16
REMARK    6  A    between atoms: C_16  and  N_17
REMARK    7  A    between atoms: N_20  and  C_21
REMARK                            x       y       z     vdW  Elec       q    Type
REMARK                         _______ _______ _______ _____ _____    ______ ____
ROOT
ATOM      1  C   UNL     1      -0.217  -6.778  -1.709  0.00  0.00    +0.117 C 
ENDROOT
BRANCH   1   2
ATOM      2  C   UNL     1       1.164  -6.124  -1.782  0.00  0.00    +0.015 C 
ATOM      3  C   UNL     1       2.027  -6.615  -0.615  0.00  0.00    +0.041 C 
ATOM      4  C   UNL     1       2.235  -8.126  -0.744  0.00  0.00    +0.160 C 
ATOM      5  O   UNL     1       2.842  -8.416  -2.005  0.00  0.00    -0.380 OA
ATOM      6  C   UNL     1       2.059  -8.022  -3.134  0.00  0.00    +0.160 C 
ATOM      7  C   UNL     1       1.843  -6.507  -3.100  0.00  0.00    +0.041 C 
BRANCH   2  11
ATOM      8  C   UNL     1       0.749  -1.877  -1.566  0.00  0.00    +0.121 A 
ATOM      9  C   UNL     1       0.236  -2.571  -2.652  0.00  0.00    +0.046 A 
ATOM     10  C   UNL     1       0.371  -3.944  -2.720  0.00  0.00    +0.008 A 
ATOM     11  C   UNL     1       1.018  -4.626  -1.706  0.00  0.00    -0.039 A 
ATOM     12  C   UNL     1       1.531  -3.937  -0.622  0.00  0.00    +0.008 A 
ATOM     13  C   UNL     1       1.403  -2.563  -0.553  0.00  0.00    +0.046 A 
BRANCH   8  14
ATOM     14  O   UNL     1       0.618  -0.526  -1.498  0.00  0.00    -0.492 OA
BRANCH  14  16
ATOM     15  C   UNL     1      -0.116   1.623  -2.325  0.00  0.00    +0.048 C 
ATOM     16  C   UNL     1      -0.067   0.115  -2.576  0.00  0.00    +0.225 C 
ENDBRANCH  14  16
ENDBRANCH   8  14
ENDBRANCH   2  11
ENDBRANCH   1   2
BRANCH   1  17
ATOM     17  N   UNL     1      -0.902  -6.337  -0.491  0.00  0.00    -0.299 N 
ATOM     18  C   UNL     1      -2.101  -6.862  -0.165  0.00  0.00    +0.300 C 
ATOM     19  O   UNL     1      -2.613  -7.700  -0.882  0.00  0.00    -0.253 OA
ATOM     20  N   UNL     1      -2.731  -6.456   0.955  0.00  0.00    -0.288 N 
ATOM     21  H   UNL     1      -0.494  -5.669   0.080  0.00  0.00    +0.150 HD
ATOM     22  H   UNL     1      -2.322  -5.788   1.527  0.00  0.00    +0.151 HD
BRANCH  20  23
ATOM     23  C   UNL     1      -4.033  -7.026   1.310  0.00  0.00    +0.160 C 
ATOM     24  C   UNL     1      -4.708  -6.148   2.366  0.00  0.00    +0.032 C 
ATOM     25  C   UNL     1      -3.678  -5.556   3.311  0.00  0.00    +0.004 C 
ATOM     26  C   UNL     1      -2.984  -6.585   4.183  0.00  0.00    +0.019 C 
ATOM     27  C   UNL     1      -2.106  -7.511   3.340  0.00  0.00    +0.104 C 
ATOM     28  N   UNL     1      -2.934  -8.622   2.843  0.00  0.00    -0.314 N 
ATOM     29  C   UNL     1      -3.842  -8.414   1.883  0.00  0.00    +0.233 C 
ATOM     30  O   UNL     1      -4.517  -9.335   1.475  0.00  0.00    -0.274 OA
ATOM     31  H   UNL     1      -2.820  -9.511   3.212  0.00  0.00    +0.149 HD
ENDBRANCH  20  23
ENDBRANCH   1  17
TORSDOF 6
