REMARK  Name = ZINC01318672
REMARK  9 active torsions:
REMARK  status: ('A' for Active; 'I' for Inactive)
REMARK    1  A    between atoms: C_1  and  C_2
REMARK    2  A    between atoms: C_2  and  O_3
REMARK    3  A    between atoms: O_3  and  C_4
REMARK    4  A    between atoms: C_7  and  C_12
REMARK    5  A    between atoms: C_9  and  O_10
REMARK    6  A    between atoms: O_10  and  C_11
REMARK    7  A    between atoms: N_31  and  C_34
REMARK    8  A    between atoms: N_37  and  C_40
REMARK    9  A    between atoms: C_40  and  C_41
REMARK                            x       y       z     vdW  Elec       q    Type
REMARK                         _______ _______ _______ _____ _____    ______ ____
ROOT
ATOM      1  C   UNL     1       1.107  -6.044  -1.844  0.00  0.00    +0.154 C 
ATOM      2  C   UNL     1       2.301  -6.562  -1.075  0.00  0.00    +0.046 A 
ATOM      3  C   UNL     1       2.251  -7.631  -0.250  0.00  0.00    -0.015 A 
ATOM      4  C   UNL     1       3.583  -7.812   0.289  0.00  0.00    +0.003 A 
ATOM      5  C   UNL     1       4.126  -8.744   1.179  0.00  0.00    +0.010 A 
ATOM      6  C   UNL     1       5.460  -8.612   1.479  0.00  0.00    +0.001 A 
ATOM      7  C   UNL     1       6.241  -7.607   0.931  0.00  0.00    +0.002 A 
ATOM      8  C   UNL     1       5.729  -6.673   0.048  0.00  0.00    +0.026 A 
ATOM      9  C   UNL     1       4.378  -6.782  -0.275  0.00  0.00    +0.047 A 
ATOM     10  N   UNL     1       3.571  -6.048  -1.095  0.00  0.00    -0.356 N 
ATOM     11  H   UNL     1       3.853  -5.279  -1.614  0.00  0.00    +0.166 HD
ATOM     12  C   UNL     1       1.011  -8.442   0.029  0.00  0.00    +0.069 C 
ATOM     13  C   UNL     1      -0.029  -8.152  -1.063  0.00  0.00    +0.167 C 
ATOM     14  N   UNL     1      -0.095  -6.710  -1.296  0.00  0.00    -0.276 N 
ATOM     15  C   UNL     1      -1.178  -5.976  -1.035  0.00  0.00    +0.234 C 
ATOM     16  O   UNL     1      -1.102  -4.777  -1.200  0.00  0.00    -0.274 OA
ATOM     17  C   UNL     1      -2.478  -6.532  -0.553  0.00  0.00    +0.204 C 
ATOM     18  N   UNL     1      -2.441  -7.980  -0.431  0.00  0.00    -0.288 N 
ATOM     19  C   UNL     1      -1.356  -8.700  -0.648  0.00  0.00    +0.237 C 
ATOM     20  O   UNL     1      -1.457  -9.900  -0.509  0.00  0.00    -0.274 OA
ENDROOT
BRANCH  18  21
ATOM     21  C   UNL     1      -3.670  -8.671  -0.033  0.00  0.00    +0.073 C 
ATOM     22  C   UNL     1      -4.774  -8.381  -1.054  0.00  0.00    +0.004 C 
ATOM     23  C   UNL     1      -6.075  -9.040  -0.590  0.00  0.00    -0.077 C 
ATOM     24  N   UNL     1      -6.463  -8.500   0.718  0.00  0.00    +0.382 N 
ATOM     25  C   UNL     1      -5.442  -8.836   1.718  0.00  0.00    -0.077 C 
ATOM     26  C   UNL     1      -4.117  -8.169   1.344  0.00  0.00    +0.004 C 
ATOM     27  H   UNL     1      -6.551  -7.497   0.654  0.00  0.00    -0.081 HD
BRANCH  24  28
ATOM     28  C   UNL     1      -7.751  -9.077   1.123  0.00  0.00    -0.043 C 
BRANCH  28  29
ATOM     29  C   UNL     1      -8.210  -8.433   2.405  0.00  0.00    -0.064 A 
ATOM     30  C   UNL     1      -7.841  -8.976   3.622  0.00  0.00    +0.002 A 
ATOM     31  C   UNL     1      -8.262  -8.385   4.798  0.00  0.00    +0.000 A 
ATOM     32  C   UNL     1      -9.051  -7.251   4.759  0.00  0.00    +0.000 A 
ATOM     33  C   UNL     1      -9.419  -6.707   3.542  0.00  0.00    +0.000 A 
ATOM     34  C   UNL     1      -8.995  -7.296   2.365  0.00  0.00    +0.002 A 
ENDBRANCH  28  29
ENDBRANCH  24  28
ENDBRANCH  18  21
BRANCH   1  38
ATOM     35  C   UNL     1       0.780  -1.811  -1.336  0.00  0.00    +0.162 A 
ATOM     36  C   UNL     1       0.925  -2.635  -0.231  0.00  0.00    +0.050 A 
ATOM     37  C   UNL     1       1.030  -4.003  -0.399  0.00  0.00    +0.009 A 
ATOM     38  C   UNL     1       0.992  -4.552  -1.667  0.00  0.00    -0.018 A 
ATOM     39  C   UNL     1       0.848  -3.736  -2.773  0.00  0.00    +0.055 A 
ATOM     40  C   UNL     1       0.736  -2.364  -2.612  0.00  0.00    +0.162 A 
BRANCH  40  41
ATOM     41  O   UNL     1       0.588  -1.560  -3.698  0.00  0.00    -0.491 OA
ATOM     42  C   UNL     1       0.550  -2.197  -4.977  0.00  0.00    +0.277 C 
ENDBRANCH  40  41
BRANCH  35  43
ATOM     43  O   UNL     1       0.676  -0.465  -1.173  0.00  0.00    -0.489 OA
BRANCH  43  45
ATOM     44  C   UNL     1       0.598   1.557   0.149  0.00  0.00    +0.048 C 
ATOM     45  C   UNL     1       0.731   0.033   0.166  0.00  0.00    +0.226 C 
ENDBRANCH  43  45
ENDBRANCH  35  43
ENDBRANCH   1  38
TORSDOF 7
