REMARK  Name = ZINC58949097
REMARK  7 active torsions:
REMARK  status: ('A' for Active; 'I' for Inactive)
REMARK    1  A    between atoms: C_1  and  C_2
REMARK    2  A    between atoms: C_3  and  C_23
REMARK    3  A    between atoms: C_4  and  C_13
REMARK    4  A    between atoms: C_6  and  C_10
REMARK    5  A    between atoms: C_7  and  N_9
REMARK    6  A    between atoms: C_15  and  N_20
REMARK    7  A    between atoms: C_23  and  C_25
REMARK                            x       y       z     vdW  Elec       q    Type
REMARK                         _______ _______ _______ _____ _____    ______ ____
ROOT
ATOM      1  C   UNL     1       0.226   1.440  -0.328  0.00  0.00    +0.086 C 
ATOM      2  C   UNL     1       0.115  -0.053  -0.153  0.00  0.00    +0.112 C 
ATOM      3  C   UNL     1      -1.091  -0.635  -0.271  0.00  0.00    +0.045 C 
ATOM      4  C   UNL     1      -1.256  -2.121  -0.106  0.00  0.00    +0.097 C 
ATOM      5  C   UNL     1       0.083  -2.800  -0.207  0.00  0.00    +0.083 C 
ATOM      6  C   UNL     1       1.233  -2.090  -0.092  0.00  0.00    +0.193 C 
ATOM      7  O   UNL     1       1.222  -0.762   0.110  0.00  0.00    -0.446 OA
ENDROOT
BRANCH   4   8
ATOM      8  C   UNL     1      -1.861  -2.410   1.244  0.00  0.00    -0.015 A 
ATOM      9  C   UNL     1      -1.275  -1.900   2.388  0.00  0.00    +0.038 A 
ATOM     10  C   UNL     1      -1.829  -2.165   3.626  0.00  0.00    +0.127 A 
ATOM     11  C   UNL     1      -2.970  -2.941   3.721  0.00  0.00    +0.034 A 
ATOM     12  C   UNL     1      -3.557  -3.450   2.579  0.00  0.00    +0.022 A 
ATOM     13  C   UNL     1      -3.006  -3.180   1.339  0.00  0.00    +0.045 A 
ATOM     14 CL   UNL     1      -3.746  -3.815  -0.098  0.00  0.00    -0.083 Cl
BRANCH  10  15
ATOM     15  N   UNL     1      -1.201  -1.620   4.850  0.00  0.00    +0.056 N 
ATOM     16  O   UNL     1      -0.203  -0.942   4.766  0.00  0.00    -0.126 OA
ATOM     17  O   UNL     1      -1.685  -1.852   5.933  0.00  0.00    -0.126 OA
ENDBRANCH  10  15
ENDBRANCH   4   8
BRANCH   5  18
ATOM     18  C   UNL     1       0.142  -4.189  -0.423  0.00  0.00    +0.243 C 
ATOM     19  O   UNL     1      -0.028  -4.639  -1.543  0.00  0.00    -0.271 OA
ATOM     20  N   UNL     1       0.388  -5.021   0.608  0.00  0.00    -0.325 N 
ATOM     21  H   UNL     1       0.524  -4.663   1.499  0.00  0.00    +0.145 HD
ATOM     22  H   UNL     1       0.429  -5.979   0.459  0.00  0.00    +0.145 HD
ENDBRANCH   5  18
BRANCH   6  23
ATOM     23  N   UNL     1       2.434  -2.742  -0.189  0.00  0.00    -0.329 N 
ATOM     24  H   UNL     1       2.457  -3.709  -0.263  0.00  0.00    +0.145 HD
ATOM     25  H   UNL     1       3.262  -2.236  -0.185  0.00  0.00    +0.145 HD
ENDBRANCH   6  23
BRANCH   3  26
ATOM     26  C   UNL     1      -2.218   0.159  -0.554  0.00  0.00    +0.160 C 
ATOM     27  O   UNL     1      -2.117   1.369  -0.583  0.00  0.00    -0.293 OA
ATOM     28  C   UNL     1      -3.550  -0.493  -0.822  0.00  0.00    +0.091 C 
ENDBRANCH   3  26
TORSDOF 5
