REMARK  Name = ZINC08532949
REMARK  12 active torsions:
REMARK  status: ('A' for Active; 'I' for Inactive)
REMARK    1  A    between atoms: C_1  and  C_2
REMARK    2  A    between atoms: C_3  and  C_27
REMARK    3  A    between atoms: N_4  and  C_21
REMARK    4  A    between atoms: C_5  and  N_9
REMARK    5  A    between atoms: C_6  and  C_7
REMARK    6  A    between atoms: C_10  and  C_12
REMARK    7  A    between atoms: C_12  and  N_13
REMARK    8  A    between atoms: N_13  and  C_14
REMARK    9  A    between atoms: N_13  and  C_18
REMARK   10  A    between atoms: C_14  and  C_15
REMARK   11  A    between atoms: C_18  and  C_19
REMARK   12  A    between atoms: C_18  and  C_20
REMARK                            x       y       z     vdW  Elec       q    Type
REMARK                         _______ _______ _______ _____ _____    ______ ____
ROOT
ATOM      1  N   UNL     1      -0.781  -3.149   1.359  0.00  0.00    -0.272 N 
ATOM      2  C   UNL     1      -1.145  -3.232   2.654  0.00  0.00    +0.202 C 
ATOM      3  O   UNL     1      -1.947  -2.445   3.111  0.00  0.00    -0.278 OA
ATOM      4  H   UNL     1      -0.207  -3.828   0.971  0.00  0.00    +0.156 HD
ENDROOT
BRANCH   1   9
ATOM      5  C   UNL     1      -2.397   1.382  -0.190  0.00  0.00    +0.047 C 
ATOM      6  C   UNL     1      -1.961  -0.060  -0.153  0.00  0.00    -0.011 A 
ATOM      7  C   UNL     1      -1.887  -0.902  -1.196  0.00  0.00    +0.022 A 
ATOM      8  N   UNL     1      -1.448  -2.124  -0.761  0.00  0.00    -0.329 N 
ATOM      9  C   UNL     1      -1.229  -2.092   0.579  0.00  0.00    +0.123 A 
ATOM     10  C   UNL     1      -1.529  -0.815   1.030  0.00  0.00    +0.095 A 
ATOM     11  C   UNL     1      -2.232  -0.557  -2.622  0.00  0.00    +0.064 C 
BRANCH   8  12
ATOM     12  C   UNL     1      -1.244  -3.296  -1.616  0.00  0.00    +0.089 C 
ATOM     13  C   UNL     1      -2.043  -4.477  -1.063  0.00  0.00    +0.025 C 
ATOM     14  C   UNL     1      -1.830  -5.700  -1.956  0.00  0.00    +0.002 C 
ATOM     15  C   UNL     1      -0.342  -6.059  -1.984  0.00  0.00    +0.000 C 
ATOM     16  C   UNL     1       0.457  -4.878  -2.538  0.00  0.00    +0.002 C 
ATOM     17  C   UNL     1       0.244  -3.654  -1.644  0.00  0.00    +0.025 C 
ENDBRANCH   8  12
BRANCH  10  18
ATOM     18  C   UNL     1      -1.437  -0.331   2.375  0.00  0.00    +0.103 C 
ATOM     19  N   UNL     1      -1.365   0.052   3.442  0.00  0.00    -0.191 NA
ENDBRANCH  10  18
ENDBRANCH   1   9
BRANCH   2  20
ATOM     20  C   UNL     1      -0.555  -4.304   3.534  0.00  0.00    +0.020 C 
BRANCH  20  21
ATOM     21  N   UNL     1      -1.023  -4.116   4.914  0.00  0.00    +0.393 N 
ATOM     22  H   UNL     1      -0.841  -3.167   5.205  0.00  0.00    -0.080 HD
BRANCH  21  23
ATOM     23  C   UNL     1      -0.313  -5.046   5.803  0.00  0.00    -0.074 C 
ATOM     24  C   UNL     1      -0.467  -6.474   5.275  0.00  0.00    -0.013 C 
ATOM     25  C   UNL     1       1.171  -4.676   5.847  0.00  0.00    -0.013 C 
ENDBRANCH  21  23
BRANCH  21  26
ATOM     26  C   UNL     1      -2.467  -4.380   4.981  0.00  0.00    +0.019 C 
BRANCH  26  27
ATOM     27  C   UNL     1      -2.978  -4.026   6.354  0.00  0.00    +0.194 C 
ATOM     28  O   UNL     1      -2.238  -3.507   7.162  0.00  0.00    -0.278 OA
ATOM     29  N   UNL     1      -4.259  -4.286   6.684  0.00  0.00    -0.331 N 
ATOM     30  H   UNL     1      -4.851  -4.702   6.037  0.00  0.00    +0.145 HD
ATOM     31  H   UNL     1      -4.589  -4.058   7.567  0.00  0.00    +0.145 HD
ENDBRANCH  26  27
ENDBRANCH  21  26
ENDBRANCH  20  21
ENDBRANCH   2  20
TORSDOF 8
