REMARK  Name = ZINC18332376
REMARK  10 active torsions:
REMARK  status: ('A' for Active; 'I' for Inactive)
REMARK    1  A    between atoms: C_7  and  N_36
REMARK    2  A    between atoms: C_9  and  C_11
REMARK    3  A    between atoms: C_11  and  O_12
REMARK    4  A    between atoms: O_12  and  C_13
REMARK    5  A    between atoms: C_13  and  C_15
REMARK    6  A    between atoms: C_19  and  C_21
REMARK    7  A    between atoms: C_21  and  O_23
REMARK    8  A    between atoms: O_23  and  C_24
REMARK    9  A    between atoms: C_24  and  C_25
REMARK   10  A    between atoms: C_33  and  N_35
REMARK                            x       y       z     vdW  Elec       q    Type
REMARK                         _______ _______ _______ _____ _____    ______ ____
ROOT
ATOM      1  C   UNL     1       2.331   7.947  -2.894  0.00  0.00    +0.148 A 
ATOM      2  C   UNL     1       2.315   9.334  -3.062  0.00  0.00    +0.035 A 
ATOM      3  C   UNL     1       2.305   9.861  -4.343  0.00  0.00    +0.005 A 
ATOM      4  C   UNL     1       2.300   8.987  -5.419  0.00  0.00    +0.035 A 
ATOM      5  C   UNL     1       2.310   7.611  -5.180  0.00  0.00    +0.148 A 
ATOM      6  N   UNL     1       2.325   7.140  -3.943  0.00  0.00    -0.234 NA
ENDROOT
BRANCH   1   7
ATOM      7  C   UNL     1       2.347   7.374  -1.528  0.00  0.00    +0.358 C 
ATOM      8  O   UNL     1       2.352   8.109  -0.562  0.00  0.00    -0.243 OA
BRANCH   7   9
ATOM      9  O   UNL     1       2.356   6.038  -1.359  0.00  0.00    -0.452 OA
BRANCH   9  10
ATOM     10  C   UNL     1       2.372   5.548   0.008  0.00  0.00    +0.308 C 
BRANCH  10  19
ATOM     11  C   UNL     1       1.204  -0.705  -0.013  0.00  0.00    +0.001 A 
ATOM     12  C   UNL     1       0.002  -0.004   0.002  0.00  0.00    +0.002 A 
ATOM     13  C   UNL     1      -0.016   1.359   0.009  0.00  0.00    +0.028 A 
ATOM     14  C   UNL     1       1.193   2.067   0.002  0.00  0.00    +0.076 A 
ATOM     15  C   UNL     1       2.415   1.352  -0.014  0.00  0.00    +0.040 A 
ATOM     16  C   UNL     1       2.399  -0.047  -0.021  0.00  0.00    +0.013 A 
ATOM     17  C   UNL     1       3.623   2.091  -0.022  0.00  0.00    +0.128 A 
ATOM     18  N   UNL     1       3.547   3.416  -0.014  0.00  0.00    -0.214 NA
ATOM     19  C   UNL     1       2.380   4.041   0.000  0.00  0.00    +0.169 A 
ATOM     20  N   UNL     1       1.231   3.408   0.009  0.00  0.00    -0.228 NA
BRANCH  17  21
ATOM     21  N   UNL     1       4.844   1.452  -0.036  0.00  0.00    -0.343 N 
ATOM     22  H   UNL     1       4.885   0.483  -0.041  0.00  0.00    +0.144 HD
ATOM     23  H   UNL     1       5.663   1.972  -0.042  0.00  0.00    +0.144 HD
ENDBRANCH  17  21
ENDBRANCH  10  19
ENDBRANCH   9  10
ENDBRANCH   7   9
ENDBRANCH   1   7
BRANCH   5  24
ATOM     24  C   UNL     1       2.304   6.669  -6.323  0.00  0.00    +0.358 C 
ATOM     25  O   UNL     1       2.290   7.094  -7.460  0.00  0.00    -0.243 OA
BRANCH  24  26
ATOM     26  O   UNL     1       2.313   5.341  -6.101  0.00  0.00    -0.452 OA
BRANCH  26  27
ATOM     27  C   UNL     1       2.306   4.477  -7.268  0.00  0.00    +0.308 C 
BRANCH  27  28
ATOM     28  C   UNL     1       2.319   3.036  -6.827  0.00  0.00    +0.169 A 
ATOM     29  N   UNL     1       1.171   2.431  -6.632  0.00  0.00    -0.228 NA
ATOM     30  C   UNL     1       1.137   1.149  -6.239  0.00  0.00    +0.076 A 
ATOM     31  C   UNL     1      -0.071   0.471  -6.022  0.00  0.00    +0.028 A 
ATOM     32  C   UNL     1      -0.049  -0.832  -5.624  0.00  0.00    +0.002 A 
ATOM     33  C   UNL     1       1.156  -1.502  -5.428  0.00  0.00    +0.001 A 
ATOM     34  C   UNL     1       2.348  -0.873  -5.631  0.00  0.00    +0.013 A 
ATOM     35  C   UNL     1       2.361   0.465  -6.040  0.00  0.00    +0.040 A 
ATOM     36  C   UNL     1       3.567   1.172  -6.267  0.00  0.00    +0.128 A 
ATOM     37  N   UNL     1       3.487   2.437  -6.659  0.00  0.00    -0.214 NA
BRANCH  36  38
ATOM     38  N   UNL     1       4.790   0.562  -6.090  0.00  0.00    -0.343 N 
ATOM     39  H   UNL     1       4.832  -0.365  -5.807  0.00  0.00    +0.144 HD
ATOM     40  H   UNL     1       5.607   1.059  -6.249  0.00  0.00    +0.144 HD
ENDBRANCH  36  38
ENDBRANCH  27  28
ENDBRANCH  26  27
ENDBRANCH  24  26
ENDBRANCH   5  24
TORSDOF 10
