REMARK  Name = ZINC05850589
REMARK  12 active torsions:
REMARK  status: ('A' for Active; 'I' for Inactive)
REMARK    1  A    between atoms: C_1  and  C_2
REMARK    2  A    between atoms: N_4  and  C_11
REMARK    3  A    between atoms: C_11  and  C_13
REMARK    4  A    between atoms: C_11  and  O_15
REMARK    5  A    between atoms: C_13  and  O_14
REMARK    6  A    between atoms: O_15  and  C_16
REMARK    7  A    between atoms: C_16  and  C_18
REMARK    8  A    between atoms: C_16  and  C_31
REMARK    9  A    between atoms: C_18  and  N_19
REMARK   10  A    between atoms: N_19  and  C_20
REMARK   11  A    between atoms: N_19  and  O_30
REMARK   12  A    between atoms: C_31  and  O_32
REMARK                            x       y       z     vdW  Elec       q    Type
REMARK                         _______ _______ _______ _____ _____    ______ ____
ROOT
ATOM      1  C   UNL     1      -3.633   2.101  -1.659  0.00  0.00    +0.162 C 
ENDROOT
BRANCH   1   2
ATOM      2  O   UNL     1      -3.577   1.849  -0.254  0.00  0.00    -0.347 OA
BRANCH   2   3
ATOM      3  C   UNL     1      -2.656   0.822   0.117  0.00  0.00    +0.249 C 
BRANCH   3   7
ATOM      4  C   UNL     1       1.957  -0.017  -1.409  0.00  0.00    +0.051 C 
ATOM      5  C   UNL     1       0.913   0.895  -0.817  0.00  0.00    +0.030 A 
ATOM      6  C   UNL     1      -0.348   0.455  -0.622  0.00  0.00    +0.102 A 
ATOM      7  N   UNL     1      -1.286   1.298  -0.089  0.00  0.00    -0.272 N 
ATOM      8  C   UNL     1      -0.959   2.558   0.252  0.00  0.00    +0.331 A 
ATOM      9  O   UNL     1      -1.806   3.288   0.729  0.00  0.00    -0.246 OA
ATOM     10  N   UNL     1       0.291   3.022   0.068  0.00  0.00    -0.275 N 
ATOM     11  H   UNL     1       0.515   3.963   0.324  0.00  0.00    +0.173 HD
ATOM     12  C   UNL     1       1.242   2.225  -0.459  0.00  0.00    +0.257 A 
ATOM     13  O   UNL     1       2.373   2.645  -0.626  0.00  0.00    -0.267 OA
ENDBRANCH   3   7
BRANCH   3  14
ATOM     14  C   UNL     1      -2.855   0.466   1.591  0.00  0.00    +0.210 C 
BRANCH  14  15
ATOM     15  O   UNL     1      -2.627   1.624   2.397  0.00  0.00    -0.391 OA
ATOM     16  H   UNL     1      -2.736   1.472   3.345  0.00  0.00    +0.210 HD
ENDBRANCH  14  15
ENDBRANCH   3  14
ENDBRANCH   2   3
ENDBRANCH   1   2
BRANCH   1  17
ATOM     17  C   UNL     1      -4.132   3.526  -1.903  0.00  0.00    +0.148 C 
BRANCH  17  18
ATOM     18  N   UNL     1      -3.157   4.485  -1.367  0.00  0.00    -0.185 NA
BRANCH  18  19
ATOM     19  C   UNL     1      -3.705   5.848  -1.368  0.00  0.00    +0.091 C 
ATOM     20  C   UNL     1      -2.629   6.830  -0.898  0.00  0.00    +0.009 C 
ATOM     21  C   UNL     1      -3.199   8.250  -0.898  0.00  0.00    +0.008 C 
ATOM     22  C   UNL     1      -4.400   8.318   0.048  0.00  0.00    -0.010 C 
ATOM     23  C   UNL     1      -3.954   7.947   1.464  0.00  0.00    +0.007 C 
ATOM     24  C   UNL     1      -3.384   6.527   1.464  0.00  0.00    -0.010 C 
ATOM     25  C   UNL     1      -2.184   6.460   0.518  0.00  0.00    +0.008 C 
ATOM     26  C   UNL     1      -4.460   5.546   0.995  0.00  0.00    +0.008 C 
ATOM     27  C   UNL     1      -4.905   5.916  -0.421  0.00  0.00    +0.009 C 
ATOM     28  C   UNL     1      -5.475   7.336  -0.422  0.00  0.00    +0.008 C 
ENDBRANCH  18  19
BRANCH  18  29
ATOM     29  O   UNL     1      -1.899   4.425  -2.112  0.00  0.00    -0.312 OA
ATOM     30  H   UNL     1      -1.194   4.969  -1.736  0.00  0.00    +0.237 HD
ENDBRANCH  18  29
ENDBRANCH  17  18
ENDBRANCH   1  17
BRANCH   1  31
ATOM     31  C   UNL     1      -4.589   1.105  -2.319  0.00  0.00    +0.188 C 
BRANCH  31  32
ATOM     32  O   UNL     1      -5.917   1.333  -1.841  0.00  0.00    -0.392 OA
ATOM     33  H   UNL     1      -6.578   0.736  -2.218  0.00  0.00    +0.210 HD
ENDBRANCH  31  32
ENDBRANCH   1  31
TORSDOF 11
