REMARK  Name = ZINC42176218
REMARK  5 active torsions:
REMARK  status: ('A' for Active; 'I' for Inactive)
REMARK    1  A    between atoms: C_1  and  C_2
REMARK    2  A    between atoms: C_2  and  N_7
REMARK    3  A    between atoms: N_7  and  S_8
REMARK    4  A    between atoms: S_8  and  C_11
REMARK    5  A    between atoms: N_13  and  C_17
REMARK                            x       y       z     vdW  Elec       q    Type
REMARK                         _______ _______ _______ _____ _____    ______ ____
ROOT
ATOM      1  S   UNL     1      -2.457  -0.233  -1.120  0.00  0.00    +0.064 S 
ATOM      2  O   UNL     1      -1.703  -0.653  -2.249  0.00  0.00    -0.153 OA
ATOM      3  O   UNL     1      -3.750  -0.746  -0.834  0.00  0.00    -0.153 OA
ENDROOT
BRANCH   1   4
ATOM      4  C   UNL     1      -2.626   1.516  -1.252  0.00  0.00    +0.164 A 
ATOM      5  C   UNL     1      -2.185   2.284  -2.273  0.00  0.00    +0.138 A 
ATOM      6  N   UNL     1      -2.508   3.566  -1.998  0.00  0.00    -0.271 N 
ATOM      7  N   UNL     1      -3.171   3.590  -0.764  0.00  0.00    -0.155 NA
ATOM      8  C   UNL     1      -3.248   2.359  -0.316  0.00  0.00    +0.165 A 
ATOM      9  N   UNL     1      -3.844   1.957   0.885  0.00  0.00    -0.340 N 
ATOM     10  C   UNL     1      -2.216   4.727  -2.841  0.00  0.00    +0.172 C 
ATOM     11  H   UNL     1      -3.785   1.031   1.169  0.00  0.00    +0.144 HD
ATOM     12  H   UNL     1      -4.316   2.603   1.432  0.00  0.00    +0.144 HD
ENDBRANCH   1   4
BRANCH   1  13
ATOM     13  N   UNL     1      -1.521  -0.535   0.213  0.00  0.00    -0.184 NA
ATOM     14  H   UNL     1      -1.909  -0.971   0.988  0.00  0.00    +0.149 HD
BRANCH  13  16
ATOM     15  C   UNL     1       0.024   1.343  -0.114  0.00  0.00    +0.029 C 
ATOM     16  C   UNL     1      -0.110  -0.144   0.221  0.00  0.00    +0.037 C 
ATOM     17  C   UNL     1       0.678  -0.987  -0.798  0.00  0.00    +0.023 C 
ATOM     18  C   UNL     1       1.749  -1.758   0.002  0.00  0.00    +0.002 C 
ATOM     19  C   UNL     1       1.177  -1.821   1.440  0.00  0.00    +0.002 C 
ATOM     20  C   UNL     1       0.510  -0.432   1.604  0.00  0.00    +0.023 C 
ENDBRANCH  13  16
ENDBRANCH   1  13
TORSDOF 3
