REMARK  Name = ZINC12428980
REMARK  5 active torsions:
REMARK  status: ('A' for Active; 'I' for Inactive)
REMARK    1  A    between atoms: C_6  and  C_7
REMARK    2  A    between atoms: C_7  and  C_9
REMARK    3  A    between atoms: C_11  and  C_31
REMARK    4  A    between atoms: C_13  and  C_26
REMARK    5  A    between atoms: C_13  and  C_28
REMARK                            x       y       z     vdW  Elec       q    Type
REMARK                         _______ _______ _______ _____ _____    ______ ____
ROOT
ATOM      1  C   UNL     1      -3.434   3.483  -1.169  0.00  0.00    +0.155 C 
ATOM      2  C   UNL     1      -2.546   3.894   0.037  0.00  0.00    +0.078 C 
ATOM      3  C   UNL     1      -3.369   3.505   1.293  0.00  0.00    +0.163 C 
ATOM      4  C   UNL     1      -4.624   2.838   0.719  0.00  0.00    +0.127 C 
ATOM      5  N   UNL     1      -4.790   3.485  -0.609  0.00  0.00    -0.310 N 
ATOM      6  C   UNL     1      -5.794   2.852  -1.305  0.00  0.00    +0.038 A 
ATOM      7  C   UNL     1      -5.707   2.523  -2.644  0.00  0.00    +0.026 A 
ATOM      8  C   UNL     1      -6.761   1.879  -3.266  0.00  0.00    +0.040 A 
ATOM      9  C   UNL     1      -7.908   1.560  -2.556  0.00  0.00    +0.124 A 
ATOM     10  C   UNL     1      -8.013   1.884  -1.215  0.00  0.00    +0.048 A 
ATOM     11  C   UNL     1      -6.963   2.533  -0.580  0.00  0.00    -0.001 A 
ATOM     12  C   UNL     1      -7.036   2.913   0.851  0.00  0.00    +0.007 C 
ATOM     13  C   UNL     1      -5.875   3.067   1.513  0.00  0.00    -0.002 C 
ATOM     14  F   UNL     1      -8.928   0.928  -3.176  0.00  0.00    -0.205 F 
ENDROOT
BRANCH   2  15
ATOM     15  C   UNL     1      -1.242   3.137   0.010  0.00  0.00    -0.037 A 
ATOM     16  C   UNL     1      -1.226   1.751   0.001  0.00  0.00    +0.024 A 
ATOM     17  C   UNL     1      -0.012   1.092  -0.018  0.00  0.00    +0.111 A 
ATOM     18  N   UNL     1       1.121   1.766  -0.039  0.00  0.00    -0.263 NA
ATOM     19  C   UNL     1       1.144   3.084  -0.037  0.00  0.00    +0.111 A 
ATOM     20  C   UNL     1      -0.031   3.812  -0.013  0.00  0.00    +0.024 A 
ENDBRANCH   2  15
BRANCH   3  21
ATOM     21  C   UNL     1      -3.736   4.733   2.085  0.00  0.00    +0.233 C 
ATOM     22  O   UNL     1      -3.454   4.802   3.262  0.00  0.00    -0.274 OA
ATOM     23  N   UNL     1      -4.378   5.755   1.485  0.00  0.00    -0.328 N 
ATOM     24  H   UNL     1      -4.667   5.671   0.563  0.00  0.00    +0.145 HD
ATOM     25  H   UNL     1      -4.550   6.574   1.975  0.00  0.00    +0.145 HD
ENDBRANCH   3  21
BRANCH   1  26
ATOM     26  C   UNL     1      -3.317   4.492  -2.282  0.00  0.00    +0.184 C 
ATOM     27  O   UNL     1      -4.177   5.334  -2.430  0.00  0.00    -0.290 OA
BRANCH  26  33
ATOM     28  C   UNL     1      -1.162   3.491  -3.018  0.00  0.00    +0.013 A 
ATOM     29  C   UNL     1      -0.084   3.460  -3.875  0.00  0.00    +0.020 A 
ATOM     30  C   UNL     1       0.021   4.389  -4.897  0.00  0.00    +0.041 A 
ATOM     31  C   UNL     1      -0.961   5.353  -5.069  0.00  0.00    +0.020 A 
ATOM     32  C   UNL     1      -2.048   5.392  -4.223  0.00  0.00    +0.013 A 
ATOM     33  C   UNL     1      -2.160   4.457  -3.189  0.00  0.00    +0.019 A 
ATOM     34 CL   UNL     1       1.387   4.347  -5.968  0.00  0.00    -0.084 Cl
ENDBRANCH  26  33
ENDBRANCH   1  26
BRANCH   3  35
ATOM     35  C   UNL     1      -2.616   2.556   2.130  0.00  0.00    +0.082 C 
ATOM     36  N   UNL     1      -2.035   1.824   2.775  0.00  0.00    -0.195 NA
ENDBRANCH   3  35
TORSDOF 5
