REMARK  Name = ZINC10207310
REMARK  9 active torsions:
REMARK  status: ('A' for Active; 'I' for Inactive)
REMARK    1  A    between atoms: C_1  and  C_2
REMARK    2  A    between atoms: C_5  and  C_7
REMARK    3  A    between atoms: C_10  and  C_12
REMARK    4  A    between atoms: C_12  and  N_56
REMARK    5  A    between atoms: C_13  and  N_56
REMARK    6  A    between atoms: C_14  and  C_15
REMARK    7  A    between atoms: C_14  and  N_56
REMARK    8  A    between atoms: C_19  and  C_28
REMARK    9  A    between atoms: N_30  and  C_31
REMARK                            x       y       z     vdW  Elec       q    Type
REMARK                         _______ _______ _______ _____ _____    ______ ____
ROOT
ATOM      1  C   UNL     1       1.044   5.960  -0.258  0.00  0.00    +0.203 C 
ATOM      2  O   UNL     1       0.986   7.169  -0.325  0.00  0.00    -0.277 OA
ATOM      3  N   UNL     1      -0.067   5.245   0.008  0.00  0.00    -0.266 N 
ATOM      4  C   UNL     1      -0.044   3.773   0.012  0.00  0.00    +0.168 C 
ATOM      5  C   UNL     1      -0.873   3.299   1.215  0.00  0.00    +0.276 C 
ATOM      6  O   UNL     1      -2.199   3.818   1.094  0.00  0.00    -0.476 OA
ATOM      7  C   UNL     1      -2.338   5.145   0.837  0.00  0.00    +0.143 A 
ATOM      8  C   UNL     1      -1.289   5.880   0.292  0.00  0.00    +0.078 A 
ATOM      9  C   UNL     1      -1.447   7.231   0.031  0.00  0.00    +0.027 A 
ATOM     10  C   UNL     1      -2.650   7.852   0.315  0.00  0.00    +0.002 A 
ATOM     11  C   UNL     1      -3.692   7.125   0.858  0.00  0.00    +0.004 A 
ATOM     12  C   UNL     1      -3.539   5.777   1.125  0.00  0.00    +0.047 A 
ENDROOT
BRANCH   5  13
ATOM     13  C   UNL     1      -0.917   1.792   1.236  0.00  0.00    +0.255 C 
ATOM     14  O   UNL     1      -1.971   1.214   1.075  0.00  0.00    -0.272 OA
ATOM     15  N   UNL     1       0.215   1.088   1.433  0.00  0.00    -0.315 N 
ATOM     16  C   UNL     1       0.172  -0.376   1.453  0.00  0.00    +0.128 C 
ATOM     17  H   UNL     1       1.058   1.550   1.561  0.00  0.00    +0.148 HD
ENDBRANCH   5  13
BRANCH   1  18
ATOM     18  C   UNL     1       2.359   5.255  -0.472  0.00  0.00    +0.019 C 
BRANCH  18  20
ATOM     19  C   UNL     1       3.235   7.019  -1.881  0.00  0.00    -0.095 C 
ATOM     20  N   UNL     1       3.424   6.269  -0.621  0.00  0.00    +0.388 N 
ATOM     21  H   UNL     1       3.374   6.925   0.168  0.00  0.00    -0.081 HD
BRANCH  20  22
ATOM     22  C   UNL     1       4.749   5.614  -0.617  0.00  0.00    -0.003 C 
BRANCH  22  26
ATOM     23  C   UNL     1       7.309   8.160  -1.164  0.00  0.00    +0.108 A 
ATOM     24  C   UNL     1       7.299   8.153   0.181  0.00  0.00    +0.045 A 
ATOM     25  C   UNL     1       6.336   7.197   0.578  0.00  0.00    +0.043 A 
ATOM     26  C   UNL     1       5.816   6.676  -0.548  0.00  0.00    +0.089 A 
ATOM     27  O   UNL     1       6.414   7.259  -1.600  0.00  0.00    -0.466 OA
BRANCH  23  31
ATOM     28  C   UNL     1      10.500   8.982  -3.249  0.00  0.00    +0.008 C 
ATOM     29  C   UNL     1       9.143   8.322  -2.996  0.00  0.00    -0.003 C 
ATOM     30  C   UNL     1       7.899   9.031  -3.538  0.00  0.00    +0.015 C 
ATOM     31  C   UNL     1       8.183   9.026  -2.034  0.00  0.00    +0.058 C 
ENDBRANCH  23  31
ENDBRANCH  22  26
ENDBRANCH  20  22
ENDBRANCH  18  20
ENDBRANCH   1  18
TORSDOF 6
