REMARK  Name = ZINC37075854
REMARK  4 active torsions:
REMARK  status: ('A' for Active; 'I' for Inactive)
REMARK    1  A    between atoms: C_1  and  S_2
REMARK    2  A    between atoms: S_2  and  C_5
REMARK    3  A    between atoms: C_10  and  N_11
REMARK    4  A    between atoms: N_11  and  C_12
REMARK                            x       y       z     vdW  Elec       q    Type
REMARK                         _______ _______ _______ _____ _____    ______ ____
ROOT
ATOM      1  N   UNL     1      -1.130   0.546  -2.684  0.00  0.00    -0.339 N 
ATOM      2  H   UNL     1      -0.620   1.232  -2.226  0.00  0.00    +0.146 HD
ENDROOT
BRANCH   1   3
ATOM      3  C   UNL     1      -1.910   0.887  -3.877  0.00  0.00    +0.074 C 
ATOM      4  C   UNL     1      -1.404   2.226  -4.477  0.00  0.00    +0.026 C 
ATOM      5  C   UNL     1      -2.577   3.225  -4.104  0.00  0.00    -0.006 C 
ATOM      6  C   UNL     1      -3.764   2.255  -4.521  0.00  0.00    +0.009 C 
ATOM      7  C   UNL     1      -3.389   1.103  -3.497  0.00  0.00    +0.013 C 
ATOM      8  C   UNL     1      -3.538   1.934  -2.231  0.00  0.00    -0.003 C 
ATOM      9  C   UNL     1      -2.528   3.114  -2.611  0.00  0.00    -0.004 C 
ATOM     10  C   UNL     1      -2.463   3.996  -1.441  0.00  0.00    +0.004 C 
ATOM     11  C   UNL     1      -2.573   2.991  -0.244  0.00  0.00    +0.001 C 
ATOM     12  C   UNL     1      -2.905   1.529  -0.906  0.00  0.00    +0.004 C 
ENDBRANCH   1   3
BRANCH   1  18
ATOM     13  C   UNL     1      -0.280  -1.122  -1.162  0.00  0.00    +0.109 A 
ATOM     14  C   UNL     1      -0.278  -2.420  -0.689  0.00  0.00    +0.029 A 
ATOM     15  C   UNL     1      -1.109  -3.366  -1.259  0.00  0.00    +0.002 A 
ATOM     16  C   UNL     1      -1.945  -3.017  -2.304  0.00  0.00    +0.002 A 
ATOM     17  C   UNL     1      -1.952  -1.721  -2.781  0.00  0.00    +0.025 A 
ATOM     18  C   UNL     1      -1.122  -0.767  -2.207  0.00  0.00    +0.052 A 
BRANCH  13  20
ATOM     19  C   UNL     1       1.941   0.539  -1.752  0.00  0.00    +0.200 C 
ATOM     20  S   UNL     1       0.781   0.083  -0.435  0.00  0.00    -0.004 S 
ATOM     21  O   UNL     1       1.464  -0.612   0.600  0.00  0.00    -0.170 OA
ATOM     22  O   UNL     1      -0.071   1.179  -0.131  0.00  0.00    -0.170 OA
ENDBRANCH  13  20
ENDBRANCH   1  18
TORSDOF 3
