REMARK  Name = ZINC52841642
REMARK  4 active torsions:
REMARK  status: ('A' for Active; 'I' for Inactive)
REMARK    1  A    between atoms: C_3  and  O_11
REMARK    2  A    between atoms: C_4  and  N_10
REMARK    3  A    between atoms: C_6  and  N_7
REMARK    4  A    between atoms: O_11  and  C_12
REMARK                            x       y       z     vdW  Elec       q    Type
REMARK                         _______ _______ _______ _____ _____    ______ ____
ROOT
ATOM      1  C   UNL     1      -0.009   1.340  -0.017  0.00  0.00    +0.036 A 
ATOM      2  C   UNL     1       1.170   2.064  -0.027  0.00  0.00    +0.050 A 
ATOM      3  C   UNL     1       2.388   1.405  -0.011  0.00  0.00    +0.149 A 
ATOM      4  C   UNL     1       2.422   0.012   0.016  0.00  0.00    +0.070 A 
ATOM      5  C   UNL     1       1.236  -0.707   0.026  0.00  0.00    +0.059 A 
ATOM      6  C   UNL     1       0.025  -0.041   0.009  0.00  0.00    +0.128 A 
ENDROOT
BRANCH   6   7
ATOM      7  N   UNL     1      -1.240  -0.810   0.021  0.00  0.00    +0.056 N 
ATOM      8  O   UNL     1      -2.301  -0.230   0.007  0.00  0.00    -0.126 OA
ATOM      9  O   UNL     1      -1.213  -2.019   0.043  0.00  0.00    -0.126 OA
ENDBRANCH   6   7
BRANCH   4  10
ATOM     10  N   UNL     1       3.650  -0.659   0.032  0.00  0.00    -0.355 N 
ATOM     11  H   UNL     1       4.479  -0.155   0.025  0.00  0.00    +0.142 HD
ATOM     12  H   UNL     1       3.672  -1.629   0.050  0.00  0.00    +0.142 HD
ENDBRANCH   4  10
BRANCH   3  13
ATOM     13  O   UNL     1       3.547   2.116  -0.021  0.00  0.00    -0.453 OA
BRANCH  13  14
ATOM     14  C   UNL     1       4.190   2.271  -1.208  0.00  0.00    +0.147 A 
ATOM     15  C   UNL     1       3.604   1.815  -2.380  0.00  0.00    +0.049 A 
ATOM     16  C   UNL     1       4.259   1.973  -3.586  0.00  0.00    +0.023 A 
ATOM     17  C   UNL     1       5.499   2.586  -3.626  0.00  0.00    +0.043 A 
ATOM     18  C   UNL     1       6.087   3.041  -2.459  0.00  0.00    +0.043 A 
ATOM     19  C   UNL     1       5.432   2.890  -1.251  0.00  0.00    +0.085 A 
ATOM     20 CL   UNL     1       6.165   3.469   0.213  0.00  0.00    -0.080 Cl
ATOM     21 CL   UNL     1       6.320   2.783  -5.143  0.00  0.00    -0.083 Cl
ENDBRANCH  13  14
ENDBRANCH   3  13
TORSDOF 4
