REMARK  Name = ZINC66327830
REMARK  7 active torsions:
REMARK  status: ('A' for Active; 'I' for Inactive)
REMARK    1  A    between atoms: C_1  and  C_2
REMARK    2  A    between atoms: C_2  and  C_3
REMARK    3  A    between atoms: C_3  and  C_5
REMARK    4  A    between atoms: C_3  and  O_6
REMARK    5  A    between atoms: O_6  and  C_7
REMARK    6  A    between atoms: C_11  and  N_13
REMARK    7  A    between atoms: N_16  and  C_17
REMARK                            x       y       z     vdW  Elec       q    Type
REMARK                         _______ _______ _______ _____ _____    ______ ____
ROOT
ATOM      1  N   UNL     1      -5.919   1.041   3.614  0.00  0.00    -0.269 N 
ATOM      2  C   UNL     1      -7.251   1.241   3.641  0.00  0.00    +0.304 C 
ATOM      3  O   UNL     1      -7.937   0.894   2.698  0.00  0.00    -0.252 OA
ATOM      4  N   UNL     1      -7.824   1.824   4.712  0.00  0.00    -0.288 N 
ATOM      5  H   UNL     1      -5.362   1.384   4.331  0.00  0.00    +0.156 HD
ATOM      6  H   UNL     1      -7.277   2.100   5.464  0.00  0.00    +0.151 HD
ENDROOT
BRANCH   4   7
ATOM      7  C   UNL     1      -9.273   2.041   4.741  0.00  0.00    +0.160 C 
ATOM      8  C   UNL     1      -9.619   3.053   5.836  0.00  0.00    +0.032 C 
ATOM      9  C   UNL     1      -8.691   2.896   7.027  0.00  0.00    +0.004 C 
ATOM     10  C   UNL     1      -8.867   1.585   7.772  0.00  0.00    +0.019 C 
ATOM     11  C   UNL     1      -8.430   0.403   6.905  0.00  0.00    +0.104 C 
ATOM     12  N   UNL     1      -9.569  -0.019   6.074  0.00  0.00    -0.314 N 
ATOM     13  C   UNL     1      -9.976   0.736   5.048  0.00  0.00    +0.233 C 
ATOM     14  O   UNL     1     -10.913   0.379   4.365  0.00  0.00    -0.274 OA
ATOM     15  H   UNL     1     -10.027  -0.851   6.270  0.00  0.00    +0.149 HD
ENDBRANCH   4   7
BRANCH   1  20
ATOM     16  C   UNL     1      -3.676  -1.185   1.727  0.00  0.00    +0.123 A 
ATOM     17  C   UNL     1      -4.191  -1.048   0.446  0.00  0.00    +0.046 A 
ATOM     18  C   UNL     1      -5.274  -0.220   0.219  0.00  0.00    +0.005 A 
ATOM     19  C   UNL     1      -5.848   0.473   1.268  0.00  0.00    +0.023 A 
ATOM     20  C   UNL     1      -5.337   0.339   2.552  0.00  0.00    +0.038 A 
ATOM     21  C   UNL     1      -4.253  -0.496   2.782  0.00  0.00    +0.069 A 
BRANCH  16  22
ATOM     22  O   UNL     1      -2.611  -2.000   1.948  0.00  0.00    -0.489 OA
BRANCH  22  23
ATOM     23  C   UNL     1      -2.009  -2.605   0.803  0.00  0.00    +0.170 C 
ATOM     24  C   UNL     1      -2.688  -3.946   0.518  0.00  0.00    +0.052 C 
BRANCH  23  26
ATOM     25  C   UNL     1       0.183  -1.486   1.233  0.00  0.00    +0.007 C 
ATOM     26  C   UNL     1      -0.520  -2.835   1.071  0.00  0.00    +0.041 C 
ENDBRANCH  23  26
ENDBRANCH  22  23
ENDBRANCH  16  22
ENDBRANCH   1  20
TORSDOF 5
