REMARK  Name = ZINC51170472
REMARK  8 active torsions:
REMARK  status: ('A' for Active; 'I' for Inactive)
REMARK    1  A    between atoms: C_1  and  C_2
REMARK    2  A    between atoms: C_2  and  C_3
REMARK    3  A    between atoms: C_2  and  O_4
REMARK    4  A    between atoms: O_4  and  C_5
REMARK    5  A    between atoms: C_8  and  C_11
REMARK    6  A    between atoms: C_14  and  C_19
REMARK    7  A    between atoms: C_15  and  N_17
REMARK    8  A    between atoms: N_17  and  N_18
REMARK                            x       y       z     vdW  Elec       q    Type
REMARK                         _______ _______ _______ _____ _____    ______ ____
ROOT
ATOM      1  C   UNL     1      -2.164  -5.619  -2.125  0.00  0.00    +0.073 A 
ATOM      2  C   UNL     1      -3.454  -6.149  -2.163  0.00  0.00    +0.030 A 
ATOM      3  C   UNL     1      -3.655  -7.408  -2.690  0.00  0.00    +0.024 A 
ATOM      4  C   UNL     1      -2.546  -8.115  -3.172  0.00  0.00    +0.093 A 
ATOM      5  C   UNL     1      -1.274  -7.519  -3.102  0.00  0.00    +0.150 A 
ATOM      6  N   UNL     1      -1.129  -6.307  -2.593  0.00  0.00    -0.230 NA
ENDROOT
BRANCH   1  10
ATOM      7  C   UNL     1      -1.538  -1.739  -0.505  0.00  0.00    +0.121 A 
ATOM      8  C   UNL     1      -0.462  -2.466  -0.996  0.00  0.00    +0.046 A 
ATOM      9  C   UNL     1      -0.661  -3.724  -1.522  0.00  0.00    +0.013 A 
ATOM     10  C   UNL     1      -1.946  -4.267  -1.560  0.00  0.00    +0.001 A 
ATOM     11  C   UNL     1      -3.025  -3.534  -1.066  0.00  0.00    +0.013 A 
ATOM     12  C   UNL     1      -2.818  -2.278  -0.536  0.00  0.00    +0.046 A 
BRANCH   7  13
ATOM     13  O   UNL     1      -1.339  -0.499   0.012  0.00  0.00    -0.489 OA
BRANCH  13  15
ATOM     14  C   UNL     1      -1.982   1.169   1.638  0.00  0.00    +0.051 C 
ATOM     15  C   UNL     1      -2.466   0.143   0.612  0.00  0.00    +0.167 C 
ATOM     16  C   UNL     1      -3.284   0.851  -0.470  0.00  0.00    +0.051 C 
ENDBRANCH  13  15
ENDBRANCH   7  13
ENDBRANCH   1  10
BRANCH   5  17
ATOM     17  N   UNL     1      -0.167  -8.203  -3.573  0.00  0.00    -0.266 N 
ATOM     18  H   UNL     1      -0.270  -9.091  -3.950  0.00  0.00    +0.167 HD
BRANCH  17  19
ATOM     19  N   UNL     1       1.070  -7.628  -3.507  0.00  0.00    -0.255 NA
ATOM     20  H   UNL     1       1.775  -8.242  -3.886  0.00  0.00    +0.140 HD
ATOM     21  H   UNL     1       1.079  -6.735  -3.976  0.00  0.00    +0.140 HD
ENDBRANCH  17  19
ENDBRANCH   5  17
BRANCH   4  22
ATOM     22  C   UNL     1      -2.704  -9.426  -3.728  0.00  0.00    +0.103 C 
ATOM     23  N   UNL     1      -2.830 -10.465  -4.169  0.00  0.00    -0.191 NA
ENDBRANCH   4  22
TORSDOF 6
