REMARK  Name = ZINC09646592
REMARK  4 active torsions:
REMARK  status: ('A' for Active; 'I' for Inactive)
REMARK    1  A    between atoms: C_7  and  S_18
REMARK    2  A    between atoms: C_9  and  C_11
REMARK    3  A    between atoms: S_18  and  C_19
REMARK    4  A    between atoms: C_19  and  C_20
REMARK                            x       y       z     vdW  Elec       q    Type
REMARK                         _______ _______ _______ _____ _____    ______ ____
ROOT
ATOM      1  C   UNL     1       2.370   1.439  -0.013  0.00  0.00    +0.001 A 
ATOM      2  C   UNL     1       2.391   0.047  -0.021  0.00  0.00    +0.002 A 
ATOM      3  C   UNL     1       1.234  -0.673  -0.013  0.00  0.00    +0.028 A 
ATOM      4  C   UNL     1       0.002  -0.004   0.002  0.00  0.00    +0.076 A 
ATOM      5  C   UNL     1      -0.017   1.413   0.010  0.00  0.00    +0.032 A 
ATOM      6  C   UNL     1       1.188   2.121   0.002  0.00  0.00    +0.012 A 
ATOM      7  C   UNL     1      -1.274   2.068   0.031  0.00  0.00    +0.109 A 
ATOM      8  N   UNL     1      -2.371   1.324   0.033  0.00  0.00    -0.220 NA
ATOM      9  C   UNL     1      -2.307  -0.006   0.025  0.00  0.00    +0.161 A 
ATOM     10  N   UNL     1      -1.163  -0.666   0.010  0.00  0.00    -0.227 NA
ENDROOT
BRANCH   9  11
ATOM     11  C   UNL     1      -3.572  -0.778   0.034  0.00  0.00    +0.019 A 
ATOM     12  C   UNL     1      -3.541  -2.172   0.021  0.00  0.00    +0.012 A 
ATOM     13  C   UNL     1      -4.722  -2.886   0.034  0.00  0.00    +0.016 A 
ATOM     14  C   UNL     1      -5.936  -2.221   0.050  0.00  0.00    +0.018 A 
ATOM     15  C   UNL     1      -5.972  -0.837   0.058  0.00  0.00    +0.016 A 
ATOM     16  C   UNL     1      -4.798  -0.114   0.050  0.00  0.00    +0.012 A 
ATOM     17 BR   UNL     1      -7.550  -3.206   0.061  0.00  0.00    -0.050 Br
ENDBRANCH   9  11
BRANCH   7  18
ATOM     18  S   UNL     1      -1.376   3.827   0.043  0.00  0.00    -0.097 S 
BRANCH  18  19
ATOM     19  C   UNL     1      -3.174   4.038   0.069  0.00  0.00    +0.152 C 
BRANCH  19  20
ATOM     20  C   UNL     1      -3.507   5.507   0.082  0.00  0.00    +0.146 A 
ATOM     21  N   UNL     1      -3.642   6.142   1.233  0.00  0.00    -0.199 NA
ATOM     22  C   UNL     1      -3.932   7.441   1.249  0.00  0.00    +0.217 A 
ATOM     23  N   UNL     1      -4.096   8.097   0.105  0.00  0.00    -0.181 NA
ATOM     24  C   UNL     1      -3.964   7.454  -1.050  0.00  0.00    +0.217 A 
ATOM     25  N   UNL     1      -3.669   6.156  -1.058  0.00  0.00    -0.199 NA
ATOM     26  N   UNL     1      -4.133   8.131  -2.241  0.00  0.00    -0.327 N 
ATOM     27  N   UNL     1      -4.068   8.105   2.451  0.00  0.00    -0.327 N 
ATOM     28  H   UNL     1      -4.038   7.661  -3.084  0.00  0.00    +0.145 HD
ATOM     29  H   UNL     1      -4.348   9.077  -2.235  0.00  0.00    +0.145 HD
ATOM     30  H   UNL     1      -4.283   9.050   2.462  0.00  0.00    +0.145 HD
ATOM     31  H   UNL     1      -3.948   7.625   3.286  0.00  0.00    +0.145 HD
ENDBRANCH  19  20
ENDBRANCH  18  19
ENDBRANCH   7  18
TORSDOF 4
