REMARK  Name = ZINC35353384
REMARK  13 active torsions:
REMARK  status: ('A' for Active; 'I' for Inactive)
REMARK    1  A    between atoms: C_1  and  C_2
REMARK    2  A    between atoms: C_2  and  N_3
REMARK    3  A    between atoms: N_3  and  C_4
REMARK    4  A    between atoms: N_3  and  C_6
REMARK    5  A    between atoms: C_4  and  C_5
REMARK    6  A    between atoms: C_6  and  C_7
REMARK    7  A    between atoms: C_7  and  C_8
REMARK    8  A    between atoms: C_8  and  C_9
REMARK    9  A    between atoms: C_9  and  C_11
REMARK   10  A    between atoms: C_9  and  N_12
REMARK   11  A    between atoms: N_12  and  C_13
REMARK   12  A    between atoms: C_18  and  S_19
REMARK   13  A    between atoms: S_19  and  N_22
REMARK                            x       y       z     vdW  Elec       q    Type
REMARK                         _______ _______ _______ _____ _____    ______ ____
ROOT
ATOM      1  N   UNL     1       4.484  -3.142  -1.461  0.00  0.00    -0.340 N 
ATOM      2  H   UNL     1       4.837  -2.959  -0.576  0.00  0.00    +0.146 HD
ENDROOT
BRANCH   1   3
ATOM      3  C   UNL     1       5.201  -2.750  -2.593  0.00  0.00    +0.054 A 
ATOM      4  C   UNL     1       4.695  -3.006  -3.861  0.00  0.00    +0.025 A 
ATOM      5  C   UNL     1       5.406  -2.617  -4.979  0.00  0.00    +0.002 A 
ATOM      6  C   UNL     1       6.622  -1.973  -4.837  0.00  0.00    +0.002 A 
ATOM      7  C   UNL     1       7.129  -1.717  -3.576  0.00  0.00    +0.030 A 
ATOM      8  C   UNL     1       6.420  -2.098  -2.454  0.00  0.00    +0.126 A 
BRANCH   8   9
ATOM      9  S   UNL     1       7.064  -1.765  -0.848  0.00  0.00    +0.058 S 
ATOM     10  O   UNL     1       6.978  -2.980  -0.116  0.00  0.00    -0.153 OA
ATOM     11  O   UNL     1       8.291  -1.075  -1.038  0.00  0.00    -0.153 OA
BRANCH   9  12
ATOM     12  N   UNL     1       6.029  -0.698  -0.118  0.00  0.00    -0.203 NA
ATOM     13  H   UNL     1       5.243  -0.384  -0.591  0.00  0.00    +0.144 HD
ATOM     14  H   UNL     1       6.210  -0.386   0.782  0.00  0.00    +0.144 HD
ENDBRANCH   9  12
ENDBRANCH   8   9
ENDBRANCH   1   3
BRANCH   1  15
ATOM     15  C   UNL     1       3.199  -3.829  -1.609  0.00  0.00    +0.067 C 
ATOM     16  C   UNL     1       3.441  -5.329  -1.795  0.00  0.00    +0.028 C 
BRANCH  15  17
ATOM     17  C   UNL     1       2.351  -3.601  -0.357  0.00  0.00    +0.020 C 
BRANCH  17  18
ATOM     18  C   UNL     1       2.004  -2.115  -0.240  0.00  0.00    -0.017 C 
BRANCH  18  19
ATOM     19  C   UNL     1       1.156  -1.887   1.013  0.00  0.00    -0.079 C 
BRANCH  19  20
ATOM     20  N   UNL     1       0.823  -0.461   1.126  0.00  0.00    +0.379 N 
ATOM     21  H   UNL     1       1.671   0.085   1.109  0.00  0.00    -0.082 HD
BRANCH  20  23
ATOM     22  C   UNL     1      -0.264   1.445   0.037  0.00  0.00    -0.017 C 
ATOM     23  C   UNL     1      -0.034  -0.067  -0.001  0.00  0.00    -0.082 C 
ENDBRANCH  20  23
BRANCH  20  24
ATOM     24  C   UNL     1       0.111  -0.222   2.389  0.00  0.00    -0.082 C 
ATOM     25  C   UNL     1       1.053  -0.495   3.563  0.00  0.00    -0.017 C 
ENDBRANCH  20  24
ENDBRANCH  19  20
ENDBRANCH  18  19
ENDBRANCH  17  18
ENDBRANCH  15  17
ENDBRANCH   1  15
TORSDOF 10
