REMARK  Name = ZINC28658635
REMARK  10 active torsions:
REMARK  status: ('A' for Active; 'I' for Inactive)
REMARK    1  A    between atoms: C_1  and  C_2
REMARK    2  A    between atoms: C_2  and  C_3
REMARK    3  A    between atoms: C_3  and  C_24
REMARK    4  A    between atoms: N_6  and  N_10
REMARK    5  A    between atoms: C_11  and  C_13
REMARK    6  A    between atoms: C_13  and  N_14
REMARK    7  A    between atoms: N_14  and  C_15
REMARK    8  A    between atoms: C_17  and  C_23
REMARK    9  A    between atoms: C_20  and  O_21
REMARK   10  A    between atoms: O_21  and  C_22
REMARK                            x       y       z     vdW  Elec       q    Type
REMARK                         _______ _______ _______ _____ _____    ______ ____
ROOT
ATOM      1  N   UNL     1      -3.211  -0.478   2.981  0.00  0.00    -0.222 N 
ATOM      2  C   UNL     1      -3.936  -0.011   4.016  0.00  0.00    +0.247 C 
ATOM      3  O   UNL     1      -3.638   1.042   4.539  0.00  0.00    -0.273 OA
ATOM      4  H   UNL     1      -3.481  -1.433   2.506  0.00  0.00    +0.174 HD
ENDROOT
BRANCH   1   8
ATOM      5  C   UNL     1      -0.729   1.579   1.267  0.00  0.00    +0.111 C 
ATOM      6  C   UNL     1      -2.112   0.968   1.368  0.00  0.00    +0.263 C 
ATOM      7  O   UNL     1      -3.029   1.097   0.585  0.00  0.00    -0.271 OA
ATOM      8  N   UNL     1      -2.112   0.252   2.509  0.00  0.00    -0.137 N 
ATOM      9  C   UNL     1      -0.933   0.325   3.137  0.00  0.00    +0.326 C 
ATOM     10  O   UNL     1      -0.690  -0.237   4.187  0.00  0.00    -0.251 OA
ATOM     11  N   UNL     1      -0.045   1.091   2.477  0.00  0.00    -0.284 N 
ATOM     12  C   UNL     1      -0.013   1.086   0.008  0.00  0.00    +0.041 C 
ATOM     13  H   UNL     1       0.997   1.380   2.675  0.00  0.00    +0.151 HD
BRANCH   5  15
ATOM     14  C   UNL     1       0.603   3.693   1.227  0.00  0.00    +0.006 C 
ATOM     15  C   UNL     1      -0.810   3.107   1.274  0.00  0.00    +0.032 C 
ENDBRANCH   5  15
ENDBRANCH   1   8
BRANCH   2  16
ATOM     16  C   UNL     1      -5.118  -0.796   4.523  0.00  0.00    +0.199 C 
BRANCH  16  17
ATOM     17  N   UNL     1      -5.735  -0.082   5.644  0.00  0.00    -0.333 N 
ATOM     18  H   UNL     1      -5.316   0.877   5.982  0.00  0.00    +0.147 HD
BRANCH  17  19
ATOM     19  C   UNL     1      -6.857  -0.620   6.284  0.00  0.00    +0.070 A 
ATOM     20  C   UNL     1      -7.391  -1.826   5.855  0.00  0.00    +0.030 A 
ATOM     21  C   UNL     1      -8.496  -2.358   6.492  0.00  0.00    -0.048 A 
ATOM     22  C   UNL     1      -9.079  -1.685   7.550  0.00  0.00    +0.007 A 
ATOM     23  C   UNL     1      -8.556  -0.479   7.979  0.00  0.00    +0.048 A 
ATOM     24  C   UNL     1      -7.445   0.058   7.350  0.00  0.00    +0.141 A 
ATOM     25  C   UNL     1      -9.072  -3.671   6.029  0.00  0.00    +0.044 C 
BRANCH  24  26
ATOM     26  O   UNL     1      -6.929   1.244   7.771  0.00  0.00    -0.493 OA
ATOM     27  C   UNL     1      -7.583   1.882   8.870  0.00  0.00    +0.277 C 
ENDBRANCH  24  26
ENDBRANCH  17  19
ENDBRANCH  16  17
ENDBRANCH   2  16
TORSDOF 6
