REMARK  Name = ZINC13401704
REMARK  7 active torsions:
REMARK  status: ('A' for Active; 'I' for Inactive)
REMARK    1  A    between atoms: C_1  and  C_2
REMARK    2  A    between atoms: C_2  and  N_3
REMARK    3  A    between atoms: C_17  and  S_18
REMARK    4  A    between atoms: S_18  and  C_19
REMARK    5  A    between atoms: C_19  and  C_20
REMARK    6  A    between atoms: C_28  and  C_34
REMARK    7  A    between atoms: C_29  and  C_31
REMARK                            x       y       z     vdW  Elec       q    Type
REMARK                         _______ _______ _______ _____ _____    ______ ____
ROOT
ATOM      1  N   UNL     1      -2.454   0.055  -0.307  0.00  0.00    -0.288 N 
ATOM      2  C   UNL     1      -3.081  -0.227   0.857  0.00  0.00    +0.262 A 
ATOM      3  O   UNL     1      -2.788   0.348   1.889  0.00  0.00    -0.267 OA
ATOM      4  C   UNL     1      -4.134  -1.258   0.829  0.00  0.00    +0.066 A 
ATOM      5  C   UNL     1      -4.830  -1.614   1.968  0.00  0.00    +0.024 A 
ATOM      6  C   UNL     1      -5.822  -2.600   1.887  0.00  0.00    -0.017 A 
ATOM      7  C   UNL     1      -6.555  -2.991   3.024  0.00  0.00    +0.008 A 
ATOM      8  C   UNL     1      -7.511  -3.951   2.907  0.00  0.00    +0.001 A 
ATOM      9  C   UNL     1      -7.787  -4.564   1.687  0.00  0.00    +0.001 A 
ATOM     10  C   UNL     1      -7.116  -4.231   0.553  0.00  0.00    +0.008 A 
ATOM     11  C   UNL     1      -6.112  -3.243   0.604  0.00  0.00    -0.016 A 
ATOM     12  C   UNL     1      -5.401  -2.875  -0.544  0.00  0.00    +0.037 A 
ATOM     13  C   UNL     1      -4.421  -1.899  -0.457  0.00  0.00    +0.080 A 
ATOM     14  N   UNL     1      -3.709  -1.513  -1.547  0.00  0.00    -0.223 NA
ATOM     15  C   UNL     1      -2.788  -0.587  -1.465  0.00  0.00    +0.172 A 
ENDROOT
BRANCH   1  17
ATOM     16  C   UNL     1      -2.020   2.442  -0.613  0.00  0.00    +0.027 C 
ATOM     17  C   UNL     1      -1.401   1.073  -0.328  0.00  0.00    +0.124 C 
ENDBRANCH   1  17
BRANCH  15  18
ATOM     18  S   UNL     1      -1.922  -0.148  -2.935  0.00  0.00    -0.083 S 
BRANCH  18  19
ATOM     19  C   UNL     1      -2.655  -1.210  -4.210  0.00  0.00    +0.113 C 
BRANCH  19  20
ATOM     20  C   UNL     1      -1.995  -0.931  -5.536  0.00  0.00    -0.022 A 
ATOM     21  C   UNL     1      -2.557  -0.056  -6.401  0.00  0.00    +0.075 A 
ATOM     22  C   UNL     1      -1.955   0.216  -7.643  0.00  0.00    +0.250 A 
ATOM     23  O   UNL     1      -2.473   1.007  -8.413  0.00  0.00    -0.268 OA
ATOM     24  N   UNL     1      -0.804  -0.399  -7.981  0.00  0.00    -0.317 N 
ATOM     25  H   UNL     1      -0.391  -0.209  -8.838  0.00  0.00    +0.169 HD
ATOM     26  C   UNL     1      -0.217  -1.282  -7.132  0.00  0.00    +0.089 A 
ATOM     27  C   UNL     1      -0.769  -1.589  -5.878  0.00  0.00    +0.014 A 
ATOM     28  C   UNL     1      -0.048  -2.515  -5.107  0.00  0.00    -0.020 A 
ATOM     29  C   UNL     1       1.103  -3.012  -5.647  0.00  0.00    +0.106 A 
ATOM     30  S   UNL     1       1.178  -2.201  -7.231  0.00  0.00    -0.064 S 
ATOM     31  C   UNL     1      -0.525  -2.942  -3.743  0.00  0.00    +0.046 C 
BRANCH  29  32
ATOM     32  C   UNL     1       2.010  -3.948  -5.089  0.00  0.00    +0.393 C 
ATOM     33  O   UNL     1       1.799  -4.418  -3.977  0.00  0.00    -0.240 OA
ATOM     34  O   UNL     1       3.005  -4.288  -5.718  0.00  0.00    -0.240 OA
ENDBRANCH  29  32
ENDBRANCH  19  20
ENDBRANCH  18  19
ENDBRANCH  15  18
TORSDOF 5
