REMARK  Name = ZINC12445752
REMARK  7 active torsions:
REMARK  status: ('A' for Active; 'I' for Inactive)
REMARK    1  A    between atoms: C_1  and  C_2
REMARK    2  A    between atoms: C_4  and  C_30
REMARK    3  A    between atoms: C_6  and  N_8
REMARK    4  A    between atoms: N_11  and  C_14
REMARK    5  A    between atoms: N_18  and  N_19
REMARK    6  A    between atoms: N_19  and  C_20
REMARK    7  A    between atoms: C_20  and  N_22
REMARK                            x       y       z     vdW  Elec       q    Type
REMARK                         _______ _______ _______ _____ _____    ______ ____
ROOT
ATOM      1  C   UNL     1      -1.127  -3.309   0.816  0.00  0.00    +0.148 C 
ATOM      2  C   UNL     1      -1.588  -4.141  -0.388  0.00  0.00    +0.087 C 
ATOM      3  C   UNL     1      -1.921  -5.536   0.105  0.00  0.00    +0.094 C 
ATOM      4  N   UNL     1      -2.982  -6.149  -0.268  0.00  0.00    -0.185 NA
ATOM      5  C   UNL     1      -0.924  -6.169   1.067  0.00  0.00    +0.298 C 
ATOM      6  O   UNL     1       0.366  -6.099   0.425  0.00  0.00    -0.343 OA
ATOM      7  C   UNL     1       0.890  -4.786   0.695  0.00  0.00    +0.197 C 
ATOM      8  C   UNL     1      -0.133  -4.130   1.646  0.00  0.00    +0.172 C 
ATOM      9  O   UNL     1      -0.837  -5.268   2.198  0.00  0.00    -0.338 OA
ENDROOT
BRANCH   1  13
ATOM     10  N   UNL     1       0.013  -0.008  -0.018  0.00  0.00    -0.188 N 
ATOM     11  C   UNL     1      -0.862  -0.819   0.617  0.00  0.00    +0.201 A 
ATOM     12  S   UNL     1      -2.196  -0.337   1.575  0.00  0.00    -0.009 S 
ATOM     13  N   UNL     1      -0.476  -2.084   0.344  0.00  0.00    -0.215 N 
ATOM     14  N   UNL     1       0.662  -2.011  -0.467  0.00  0.00    -0.044 NA
ATOM     15  N   UNL     1       0.942  -0.825  -0.674  0.00  0.00    -0.040 NA
BRANCH  10  21
ATOM     16  C   UNL     1      -2.539   4.195   0.011  0.00  0.00    +0.044 C 
ATOM     17  C   UNL     1      -1.227   3.455  -0.002  0.00  0.00    -0.048 A 
ATOM     18  C   UNL     1      -0.037   4.159  -0.011  0.00  0.00    +0.006 A 
ATOM     19  C   UNL     1       1.170   3.483  -0.022  0.00  0.00    -0.048 A 
ATOM     20  C   UNL     1       1.190   2.102  -0.025  0.00  0.00    +0.031 A 
ATOM     21  C   UNL     1      -0.004   1.392  -0.016  0.00  0.00    +0.070 A 
ATOM     22  C   UNL     1      -1.214   2.074  -0.011  0.00  0.00    +0.031 A 
ATOM     23  C   UNL     1       2.465   4.255  -0.032  0.00  0.00    +0.044 C 
ENDBRANCH  10  21
ENDBRANCH   1  13
BRANCH   4  24
ATOM     24  N   UNL     1      -3.197  -7.477   0.122  0.00  0.00    -0.218 N 
ATOM     25  H   UNL     1      -2.581  -7.909   0.734  0.00  0.00    +0.176 HD
BRANCH  24  26
ATOM     26  C   UNL     1      -4.261  -8.155  -0.353  0.00  0.00    +0.147 C 
ATOM     27  S   UNL     1      -4.524  -9.778   0.124  0.00  0.00    -0.017 S 
BRANCH  26  28
ATOM     28  N   UNL     1      -5.118  -7.555  -1.203  0.00  0.00    -0.339 N 
ATOM     29  H   UNL     1      -4.969  -6.635  -1.473  0.00  0.00    +0.144 HD
ATOM     30  H   UNL     1      -5.883  -8.043  -1.544  0.00  0.00    +0.144 HD
ENDBRANCH  26  28
ENDBRANCH  24  26
ENDBRANCH   4  24
TORSDOF 5
