REMARK  Name = ZINC40151648
REMARK  4 active torsions:
REMARK  status: ('A' for Active; 'I' for Inactive)
REMARK    1  A    between atoms: C_4  and  C_7
REMARK    2  A    between atoms: C_10  and  C_19
REMARK    3  A    between atoms: N_12  and  C_13
REMARK    4  A    between atoms: N_21  and  C_22
REMARK                            x       y       z     vdW  Elec       q    Type
REMARK                         _______ _______ _______ _____ _____    ______ ____
ROOT
ATOM      1  C   UNL     1       3.455  -0.716   0.054  0.00  0.00    +0.134 C 
ATOM      2  C   UNL     1       3.716  -1.277   1.465  0.00  0.00    +0.091 C 
ATOM      3  C   UNL     1       3.947  -2.753   1.235  0.00  0.00    +0.123 C 
ATOM      4  N   UNL     1       3.846  -3.013  -0.029  0.00  0.00    -0.178 NA
ATOM      5  N   UNL     1       3.562  -1.897  -0.818  0.00  0.00    -0.216 N 
ENDROOT
BRANCH   1   9
ATOM      6  C   UNL     1      -0.457   0.981  -0.190  0.00  0.00    +0.000 A 
ATOM      7  C   UNL     1       0.646   1.804  -0.058  0.00  0.00    +0.000 A 
ATOM      8  C   UNL     1       1.912   1.254   0.021  0.00  0.00    +0.005 A 
ATOM      9  C   UNL     1       2.075  -0.117  -0.032  0.00  0.00    -0.025 A 
ATOM     10  C   UNL     1       0.972  -0.940  -0.164  0.00  0.00    +0.005 A 
ATOM     11  C   UNL     1      -0.294  -0.390  -0.244  0.00  0.00    +0.000 A 
ENDBRANCH   1   9
BRANCH   5  12
ATOM     12  C   UNL     1       3.403  -1.898  -2.205  0.00  0.00    +0.052 A 
ATOM     13  C   UNL     1       3.124  -0.713  -2.876  0.00  0.00    +0.025 A 
ATOM     14  C   UNL     1       2.968  -0.718  -4.247  0.00  0.00    +0.002 A 
ATOM     15  C   UNL     1       3.088  -1.901  -4.954  0.00  0.00    +0.000 A 
ATOM     16  C   UNL     1       3.365  -3.082  -4.290  0.00  0.00    +0.002 A 
ATOM     17  C   UNL     1       3.528  -3.083  -2.919  0.00  0.00    +0.025 A 
ENDBRANCH   5  12
BRANCH   3  18
ATOM     18  C   UNL     1       4.239  -3.736   2.279  0.00  0.00    +0.264 C 
ATOM     19  O   UNL     1       4.312  -3.384   3.442  0.00  0.00    -0.268 OA
ATOM     20  N   UNL     1       4.426  -5.030   1.953  0.00  0.00    -0.276 N 
ATOM     21  H   UNL     1       4.297  -5.323   1.037  0.00  0.00    +0.155 HD
BRANCH  20  22
ATOM     22  C   UNL     1       4.809  -5.953   2.937  0.00  0.00    +0.097 A 
ATOM     23  C   UNL     1       4.041  -7.040   3.195  0.00  0.00    +0.110 A 
ATOM     24  N   UNL     1       4.409  -7.936   4.148  0.00  0.00    -0.365 N 
ATOM     25  C   UNL     1       5.545  -7.777   4.867  0.00  0.00    +0.086 A 
ATOM     26  C   UNL     1       6.354  -6.714   4.659  0.00  0.00    +0.070 A 
ATOM     27  C   UNL     1       6.009  -5.764   3.672  0.00  0.00    +0.203 A 
ATOM     28  O   UNL     1       6.725  -4.796   3.459  0.00  0.00    -0.286 OA
ATOM     29  H   UNL     1       3.845  -8.707   4.316  0.00  0.00    +0.165 HD
ENDBRANCH  20  22
ENDBRANCH   3  18
TORSDOF 4
