REMARK  Name = ZINC40455908
REMARK  4 active torsions:
REMARK  status: ('A' for Active; 'I' for Inactive)
REMARK    1  A    between atoms: C_4  and  C_7
REMARK    2  A    between atoms: C_12  and  O_13
REMARK    3  A    between atoms: O_13  and  C_14
REMARK    4  A    between atoms: C_17  and  N_20
REMARK                            x       y       z     vdW  Elec       q    Type
REMARK                         _______ _______ _______ _____ _____    ______ ____
ROOT
ATOM      1  C   UNL     1       3.690  -0.703  -0.051  0.00  0.00    +0.025 A 
ATOM      2  C   UNL     1       4.670  -0.357  -0.978  0.00  0.00    +0.012 A 
ATOM      3  C   UNL     1       5.883  -1.016  -0.977  0.00  0.00    +0.001 A 
ATOM      4  C   UNL     1       6.128  -2.021  -0.057  0.00  0.00    +0.004 A 
ATOM      5  C   UNL     1       5.162  -2.372   0.867  0.00  0.00    +0.047 A 
ATOM      6  C   UNL     1       3.943  -1.714   0.881  0.00  0.00    +0.140 A 
ENDROOT
BRANCH   1  10
ATOM      7  C   UNL     1      -0.050   1.320  -0.045  0.00  0.00    +0.000 A 
ATOM      8  C   UNL     1       1.127   2.048  -0.056  0.00  0.00    +0.001 A 
ATOM      9  C   UNL     1       2.343   1.396  -0.058  0.00  0.00    +0.008 A 
ATOM     10  C   UNL     1       2.385   0.003  -0.049  0.00  0.00    -0.014 A 
ATOM     11  C   UNL     1       1.196  -0.724  -0.037  0.00  0.00    +0.008 A 
ATOM     12  C   UNL     1      -0.015  -0.062  -0.035  0.00  0.00    +0.001 A 
ENDBRANCH   1  10
BRANCH   6  13
ATOM     13  O   UNL     1       2.995  -2.053   1.792  0.00  0.00    -0.423 OA
BRANCH  13  14
ATOM     14  C   UNL     1       2.943  -1.349   2.949  0.00  0.00    +0.323 A 
ATOM     15  N   UNL     1       3.738  -0.302   3.101  0.00  0.00    -0.201 NA
ATOM     16  C   UNL     1       3.715   0.410   4.216  0.00  0.00    +0.140 A 
ATOM     17  C   UNL     1       2.841   0.044   5.235  0.00  0.00    +0.062 A 
ATOM     18  C   UNL     1       2.021  -1.063   5.038  0.00  0.00    +0.140 A 
ATOM     19  N   UNL     1       2.096  -1.724   3.894  0.00  0.00    -0.201 NA
BRANCH  17  20
ATOM     20  N   UNL     1       2.787   0.771   6.430  0.00  0.00    -0.356 N 
ATOM     21  H   UNL     1       3.364   1.541   6.556  0.00  0.00    +0.142 HD
ATOM     22  H   UNL     1       2.174   0.506   7.133  0.00  0.00    +0.142 HD
ENDBRANCH  17  20
ENDBRANCH  13  14
ENDBRANCH   6  13
TORSDOF 4
