REMARK  Name = ZINC59588629
REMARK  6 active torsions:
REMARK  status: ('A' for Active; 'I' for Inactive)
REMARK    1  A    between atoms: C_1  and  C_2
REMARK    2  A    between atoms: C_5  and  S_26
REMARK    3  A    between atoms: C_7  and  C_8
REMARK    4  A    between atoms: N_10  and  C_11
REMARK    5  A    between atoms: C_15  and  C_17
REMARK    6  A    between atoms: S_26  and  N_29
REMARK                            x       y       z     vdW  Elec       q    Type
REMARK                         _______ _______ _______ _____ _____    ______ ____
ROOT
ATOM      1  C   UNL     1       0.423   0.039   2.470  0.00  0.00    +0.249 C 
ATOM      2  O   UNL     1       0.483   1.253   2.490  0.00  0.00    -0.270 OA
ATOM      3  N   UNL     1       0.465  -0.656   3.624  0.00  0.00    -0.281 N 
ATOM      4  H   UNL     1       0.493  -1.626   3.606  0.00  0.00    +0.155 HD
ENDROOT
BRANCH   1  11
ATOM      5  C   UNL     1       0.045   1.546   0.030  0.00  0.00    +0.044 C 
ATOM      6  C   UNL     1       0.121   0.041  -0.002  0.00  0.00    -0.038 A 
ATOM      7  C   UNL     1       0.016  -0.631  -1.202  0.00  0.00    +0.006 A 
ATOM      8  C   UNL     1       0.085  -2.012  -1.234  0.00  0.00    +0.029 A 
ATOM      9  C   UNL     1       0.260  -2.729  -0.063  0.00  0.00    +0.106 A 
ATOM     10  C   UNL     1       0.367  -2.069   1.144  0.00  0.00    +0.041 A 
ATOM     11  C   UNL     1       0.303  -0.675   1.182  0.00  0.00    +0.042 A 
BRANCH   9  12
ATOM     12  S   UNL     1       0.346  -4.488  -0.114  0.00  0.00    +0.061 S 
ATOM     13  O   UNL     1      -0.033  -4.951   1.175  0.00  0.00    -0.153 OA
ATOM     14  O   UNL     1      -0.327  -4.894  -1.298  0.00  0.00    -0.153 OA
BRANCH  12  15
ATOM     15  N   UNL     1       1.939  -4.895  -0.312  0.00  0.00    -0.177 NA
ATOM     16  C   UNL     1       2.512  -5.044  -1.657  0.00  0.00    +0.109 C 
ATOM     17  C   UNL     1       3.756  -4.156  -1.765  0.00  0.00    +0.017 C 
ATOM     18  C   UNL     1       4.722  -4.500  -0.629  0.00  0.00    +0.003 C 
ATOM     19  C   UNL     1       4.048  -4.226   0.717  0.00  0.00    +0.017 C 
ATOM     20  C   UNL     1       2.808  -5.108   0.853  0.00  0.00    +0.109 C 
ENDBRANCH  12  15
ENDBRANCH   9  12
ENDBRANCH   1  11
BRANCH   3  21
ATOM     21  C   UNL     1       0.469   0.020   4.849  0.00  0.00    +0.034 A 
ATOM     22  C   UNL     1      -0.240   1.207   4.989  0.00  0.00    +0.023 A 
ATOM     23  C   UNL     1      -0.239   1.878   6.197  0.00  0.00    +0.002 A 
ATOM     24  C   UNL     1       0.466   1.373   7.271  0.00  0.00    +0.010 A 
ATOM     25  C   UNL     1       1.180   0.183   7.140  0.00  0.00    +0.001 A 
ATOM     26  C   UNL     1       1.175  -0.497   5.924  0.00  0.00    +0.033 A 
BRANCH  25  27
ATOM     27  C   UNL     1       1.938  -0.361   8.293  0.00  0.00    +0.064 A 
ATOM     28  C   UNL     1       2.677  -1.503   8.300  0.00  0.00    +0.113 A 
ATOM     29  N   UNL     1       3.197  -1.622   9.553  0.00  0.00    -0.335 N 
ATOM     30  C   UNL     1       2.767  -0.560  10.278  0.00  0.00    +0.087 A 
ATOM     31  N   UNL     1       2.022   0.191   9.522  0.00  0.00    -0.343 N 
ATOM     32  C   UNL     1       3.126  -0.327  11.727  0.00  0.00    +0.072 C 
ATOM     33  C   UNL     1       3.677  -1.638  12.301  0.00  0.00    +0.009 C 
ATOM     34  C   UNL     1       4.739  -2.198  11.351  0.00  0.00    +0.022 C 
ATOM     35  C   UNL     1       4.066  -2.686  10.063  0.00  0.00    +0.123 C 
ATOM     36  H   UNL     1       1.593   1.016   9.798  0.00  0.00    +0.167 HD
ENDBRANCH  25  27
ENDBRANCH   3  21
TORSDOF 5
