REMARK  Name = ZINC43596493
REMARK  4 active torsions:
REMARK  status: ('A' for Active; 'I' for Inactive)
REMARK    1  A    between atoms: C_1  and  C_2
REMARK    2  A    between atoms: C_6  and  N_8
REMARK    3  A    between atoms: N_11  and  C_14
REMARK    4  A    between atoms: C_17  and  N_21
REMARK                            x       y       z     vdW  Elec       q    Type
REMARK                         _______ _______ _______ _____ _____    ______ ____
ROOT
ATOM      1  N   UNL     1       0.051  -2.796   2.390  0.00  0.00    -0.327 N 
ATOM      2  C   UNL     1       0.152  -2.087   3.673  0.00  0.00    +0.124 C 
ATOM      3  C   UNL     1      -1.028  -2.505   4.559  0.00  0.00    +0.124 C 
ATOM      4  N   UNL     1      -1.113  -3.972   4.566  0.00  0.00    -0.326 N 
ATOM      5  C   UNL     1      -1.214  -4.682   3.283  0.00  0.00    +0.124 C 
ATOM      6  C   UNL     1      -0.040  -4.263   2.397  0.00  0.00    +0.124 C 
ENDROOT
BRANCH   1  12
ATOM      7  C   UNL     1      -0.053   1.502   0.010  0.00  0.00    +0.044 C 
ATOM      8  C   UNL     1      -0.015  -0.004   0.002  0.00  0.00    -0.049 A 
ATOM      9  C   UNL     1       0.006  -0.688  -1.200  0.00  0.00    +0.003 A 
ATOM     10  C   UNL     1       0.041  -2.070  -1.212  0.00  0.00    +0.002 A 
ATOM     11  C   UNL     1       0.056  -2.773  -0.023  0.00  0.00    +0.023 A 
ATOM     12  C   UNL     1       0.036  -2.089   1.186  0.00  0.00    +0.030 A 
ATOM     13  C   UNL     1       0.006  -0.700   1.194  0.00  0.00    +0.026 A 
ENDBRANCH   1  12
BRANCH   4  14
ATOM     14  C   UNL     1      -1.098  -4.681   5.773  0.00  0.00    +0.044 A 
ATOM     15  C   UNL     1      -2.290  -4.968   6.425  0.00  0.00    +0.026 A 
ATOM     16  C   UNL     1      -2.275  -5.667   7.616  0.00  0.00    +0.024 A 
ATOM     17  C   UNL     1      -1.068  -6.083   8.162  0.00  0.00    +0.026 A 
ATOM     18  C   UNL     1       0.124  -5.797   7.511  0.00  0.00    +0.039 A 
ATOM     19  C   UNL     1       0.109  -5.103   6.316  0.00  0.00    +0.041 A 
ATOM     20 BR   UNL     1       1.732  -4.720   5.424  0.00  0.00    -0.048 Br
BRANCH  17  21
ATOM     21  N   UNL     1      -1.053  -6.792   9.370  0.00  0.00    -0.358 N 
ATOM     22  H   UNL     1      -1.886  -6.992   9.825  0.00  0.00    +0.142 HD
ATOM     23  H   UNL     1      -0.210  -7.083   9.751  0.00  0.00    +0.142 HD
ENDBRANCH  17  21
ENDBRANCH   4  14
TORSDOF 3
