REMARK  Name = ZINC01559620
REMARK  7 active torsions:
REMARK  status: ('A' for Active; 'I' for Inactive)
REMARK    1  A    between atoms: C_3  and  O_12
REMARK    2  A    between atoms: O_12  and  C_13
REMARK    3  A    between atoms: C_15  and  O_28
REMARK    4  A    between atoms: C_17  and  O_27
REMARK    5  A    between atoms: C_19  and  O_26
REMARK    6  A    between atoms: C_21  and  C_24
REMARK    7  A    between atoms: C_24  and  O_25
REMARK                            x       y       z     vdW  Elec       q    Type
REMARK                         _______ _______ _______ _____ _____    ______ ____
ROOT
ATOM      1  C   UNL     1       0.788   3.904   1.249  0.00  0.00    +0.339 C 
ATOM      2  C   UNL     1      -0.673   3.450   1.310  0.00  0.00    +0.214 C 
ATOM      3  C   UNL     1      -0.727   1.920   1.274  0.00  0.00    +0.180 C 
ATOM      4  C   UNL     1      -0.017   1.425   0.010  0.00  0.00    +0.177 C 
ATOM      5  C   UNL     1       1.419   1.956  -0.001  0.00  0.00    +0.179 C 
ATOM      6  O   UNL     1       1.397   3.383   0.065  0.00  0.00    -0.331 OA
ENDROOT
BRANCH   4   7
ATOM      7  O   UNL     1       0.002  -0.004   0.002  0.00  0.00    -0.386 OA
ATOM      8  H   UNL     1      -0.876  -0.409   0.008  0.00  0.00    +0.210 HD
ENDBRANCH   4   7
BRANCH   3   9
ATOM      9  O   UNL     1      -2.090   1.490   1.256  0.00  0.00    -0.386 OA
ATOM     10  H   UNL     1      -2.600   1.769   2.029  0.00  0.00    +0.210 HD
ENDBRANCH   3   9
BRANCH   2  11
ATOM     11  O   UNL     1      -1.269   3.921   2.520  0.00  0.00    -0.383 OA
ATOM     12  H   UNL     1      -1.265   4.884   2.612  0.00  0.00    +0.210 HD
ENDBRANCH   2  11
BRANCH   1  13
ATOM     13  O   UNL     1       0.844   5.331   1.225  0.00  0.00    -0.461 OA
BRANCH  13  16
ATOM     14  C   UNL     1       4.453   5.649   1.397  0.00  0.00    +0.015 A 
ATOM     15  C   UNL     1       3.208   5.092   1.352  0.00  0.00    +0.046 A 
ATOM     16  C   UNL     1       2.075   5.901   1.276  0.00  0.00    +0.128 A 
ATOM     17  C   UNL     1       2.195   7.281   1.256  0.00  0.00    +0.092 A 
ATOM     18  C   UNL     1       3.452   7.864   1.307  0.00  0.00    +0.143 A 
ATOM     19  C   UNL     1       4.593   7.042   1.379  0.00  0.00    +0.018 A 
ATOM     20  C   UNL     1       5.916   7.667   1.432  0.00  0.00    +0.018 A 
ATOM     21  C   UNL     1       5.986   9.024   1.410  0.00  0.00    +0.092 A 
ATOM     22  C   UNL     1       4.801   9.786   1.338  0.00  0.00    +0.337 A 
ATOM     23  O   UNL     1       4.878  11.001   1.319  0.00  0.00    -0.245 OA
ATOM     24  O   UNL     1       3.592   9.207   1.289  0.00  0.00    -0.422 OA
ENDBRANCH  13  16
ENDBRANCH   1  13
BRANCH   5  25
ATOM     25  C   UNL     1       2.116   1.515  -1.290  0.00  0.00    +0.190 C 
BRANCH  25  26
ATOM     26  O   UNL     1       3.488   1.911  -1.248  0.00  0.00    -0.392 OA
ATOM     27  H   UNL     1       3.993   1.663  -2.034  0.00  0.00    +0.210 HD
ENDBRANCH  25  26
ENDBRANCH   5  25
TORSDOF 7
