REMARK  Name = ZINC01453788
REMARK  5 active torsions:
REMARK  status: ('A' for Active; 'I' for Inactive)
REMARK    1  A    between atoms: C_4  and  C_7
REMARK    2  A    between atoms: C_7  and  N_8
REMARK    3  A    between atoms: N_8  and  C_9
REMARK    4  A    between atoms: C_9  and  C_10
REMARK    5  A    between atoms: N_19  and  C_20
REMARK                            x       y       z     vdW  Elec       q    Type
REMARK                         _______ _______ _______ _____ _____    ______ ____
ROOT
ATOM      1  N   UNL     1       2.995  -1.920  -2.477  0.00  0.00    -0.285 N 
ATOM      2  C   UNL     1       4.081  -2.484  -1.911  0.00  0.00    +0.304 C 
ATOM      3  O   UNL     1       4.956  -1.782  -1.442  0.00  0.00    -0.253 OA
ATOM      4  N   UNL     1       4.196  -3.826  -1.865  0.00  0.00    -0.274 N 
ATOM      5  H   UNL     1       3.498  -4.386  -2.240  0.00  0.00    +0.153 HD
ENDROOT
BRANCH   4   6
ATOM      6  C   UNL     1       5.376  -4.439  -1.251  0.00  0.00    +0.207 C 
ATOM      7  C   UNL     1       4.975  -5.750  -0.540  0.00  0.00    +0.054 C 
ATOM      8  C   UNL     1       5.355  -6.826  -1.593  0.00  0.00    +0.032 C 
ATOM      9  C   UNL     1       6.610  -6.181  -2.233  0.00  0.00    +0.162 C 
ATOM     10  O   UNL     1       6.335  -4.770  -2.262  0.00  0.00    -0.359 OA
ENDBRANCH   4   6
BRANCH   1  11
ATOM     11  C   UNL     1       2.870  -0.461  -2.526  0.00  0.00    +0.112 C 
BRANCH  11  15
ATOM     12  C   UNL     1      -0.019   1.526   0.010  0.00  0.00    +0.000 C 
ATOM     13  C   UNL     1       1.417   2.055  -0.000  0.00  0.00    +0.000 C 
ATOM     14  C   UNL     1       2.133   1.562  -1.259  0.00  0.00    +0.005 C 
ATOM     15  C   UNL     1       2.154   0.032  -1.268  0.00  0.00    +0.006 C 
ATOM     16  C   UNL     1       0.718  -0.497  -1.257  0.00  0.00    +0.005 C 
ATOM     17  C   UNL     1       0.002  -0.004   0.002  0.00  0.00    +0.000 C 
ENDBRANCH  11  15
ENDBRANCH   1  11
BRANCH   1  18
ATOM     18  C   UNL     1       1.941  -2.766  -3.042  0.00  0.00    +0.113 C 
BRANCH  18  19
ATOM     19  C   UNL     1       2.246  -3.046  -4.515  0.00  0.00    +0.010 C 
ATOM     20  C   UNL     1       1.089  -3.834  -5.141  0.00  0.00    +0.009 C 
ATOM     21  C   UNL     1       1.337  -3.944  -6.647  0.00  0.00    +0.027 C 
ATOM     22  C   UNL     1       2.736  -4.419  -6.907  0.00  0.00    -0.031 C 
ATOM     23  C   UNL     1       3.687  -4.390  -6.029  0.00  0.00    -0.031 C 
ATOM     24  C   UNL     1       3.523  -3.882  -4.625  0.00  0.00    +0.032 C 
ENDBRANCH  18  19
ENDBRANCH   1  18
TORSDOF 5
