REMARK  Name = ZINC13586103
REMARK  10 active torsions:
REMARK  status: ('A' for Active; 'I' for Inactive)
REMARK    1  A    between atoms: C_1  and  C_2
REMARK    2  A    between atoms: C_3  and  O_29
REMARK    3  A    between atoms: C_4  and  C_27
REMARK    4  A    between atoms: C_5  and  C_8
REMARK    5  A    between atoms: C_8  and  S_9
REMARK    6  A    between atoms: S_9  and  C_10
REMARK    7  A    between atoms: C_15  and  N_16
REMARK    8  A    between atoms: C_17  and  C_18
REMARK    9  A    between atoms: C_23  and  O_24
REMARK   10  A    between atoms: C_27  and  O_28
REMARK                            x       y       z     vdW  Elec       q    Type
REMARK                         _______ _______ _______ _____ _____    ______ ____
ROOT
ATOM      1  C   UNL     1      -3.751   5.248  -6.109  0.00  0.00    +0.034 A 
ATOM      2  C   UNL     1      -4.203   4.255  -6.966  0.00  0.00    +0.017 A 
ATOM      3  C   UNL     1      -4.577   4.574  -8.257  0.00  0.00    +0.001 A 
ATOM      4  C   UNL     1      -4.506   5.882  -8.706  0.00  0.00    +0.002 A 
ATOM      5  C   UNL     1      -4.059   6.882  -7.867  0.00  0.00    +0.029 A 
ATOM      6  C   UNL     1      -3.682   6.576  -6.558  0.00  0.00    +0.077 A 
ENDROOT
BRANCH   6   7
ATOM      7  N   UNL     1      -3.244   7.564  -5.720  0.00  0.00    -0.254 NA
ATOM      8  C   UNL     1      -3.916   8.676  -5.615  0.00  0.00    +0.123 C 
BRANCH   8   9
ATOM      9  C   UNL     1      -3.384   9.784  -4.808  0.00  0.00    +0.037 A 
ATOM     10  C   UNL     1      -4.104  10.977  -4.688  0.00  0.00    +0.033 A 
ATOM     11  C   UNL     1      -3.599  12.012  -3.929  0.00  0.00    +0.043 A 
ATOM     12  C   UNL     1      -2.380  11.875  -3.285  0.00  0.00    +0.043 A 
ATOM     13  C   UNL     1      -1.657  10.702  -3.395  0.00  0.00    +0.084 A 
ATOM     14  C   UNL     1      -2.153   9.649  -4.149  0.00  0.00    +0.144 A 
ATOM     15 CL   UNL     1      -0.131  10.544  -2.583  0.00  0.00    -0.080 Cl
ATOM     16 CL   UNL     1      -4.494  13.492  -3.781  0.00  0.00    -0.083 Cl
BRANCH  14  17
ATOM     17  O   UNL     1      -1.447   8.494  -4.254  0.00  0.00    -0.505 OA
ATOM     18  H   UNL     1      -0.826   8.478  -4.996  0.00  0.00    +0.292 HD
ENDBRANCH  14  17
ENDBRANCH   8   9
ENDBRANCH   6   7
BRANCH   1  19
ATOM     19  S   UNL     1      -3.271   4.845  -4.462  0.00  0.00    -0.118 S 
BRANCH  19  20
ATOM     20  C   UNL     1      -3.529   3.052  -4.356  0.00  0.00    +0.111 C 
BRANCH  20  25
ATOM     21  C   UNL     1      -1.945   1.195   0.835  0.00  0.00    +0.067 C 
ATOM     22  C   UNL     1      -2.386   1.687  -0.519  0.00  0.00    +0.055 A 
ATOM     23  C   UNL     1      -3.703   2.078  -0.712  0.00  0.00    +0.141 A 
ATOM     24  C   UNL     1      -4.097   2.530  -1.967  0.00  0.00    +0.026 A 
ATOM     25  C   UNL     1      -3.152   2.571  -2.979  0.00  0.00    -0.012 A 
ATOM     26  C   UNL     1      -1.858   2.164  -2.710  0.00  0.00    +0.087 A 
ATOM     27  N   UNL     1      -1.516   1.746  -1.508  0.00  0.00    -0.361 N 
ATOM     28  H   UNL     1      -0.600   1.470  -1.347  0.00  0.00    +0.165 HD
BRANCH  23  29
ATOM     29  O   UNL     1      -4.596   2.020   0.311  0.00  0.00    -0.505 OA
ATOM     30  H   UNL     1      -4.643   2.829   0.839  0.00  0.00    +0.292 HD
ENDBRANCH  23  29
BRANCH  24  31
ATOM     31  C   UNL     1      -5.518   2.964  -2.221  0.00  0.00    +0.195 C 
BRANCH  31  32
ATOM     32  O   UNL     1      -5.645   4.361  -1.948  0.00  0.00    -0.390 OA
ATOM     33  H   UNL     1      -6.535   4.710  -2.090  0.00  0.00    +0.210 HD
ENDBRANCH  31  32
ENDBRANCH  24  31
ENDBRANCH  20  25
ENDBRANCH  19  20
ENDBRANCH   1  19
TORSDOF 9
