REMARK  Name = ZINC62364230
REMARK  4 active torsions:
REMARK  status: ('A' for Active; 'I' for Inactive)
REMARK    1  A    between atoms: C_1  and  C_2
REMARK    2  A    between atoms: C_2  and  N_3
REMARK    3  A    between atoms: N_3  and  C_4
REMARK    4  A    between atoms: C_12  and  N_18
REMARK                            x       y       z     vdW  Elec       q    Type
REMARK                         _______ _______ _______ _____ _____    ______ ____
ROOT
ATOM      1  N   UNL     1      -1.382  -0.499   0.014  0.00  0.00    -0.284 N 
ATOM      2  C   UNL     1      -2.007  -0.738   1.231  0.00  0.00    +0.151 A 
ATOM      3  C   UNL     1      -1.837  -1.962   1.891  0.00  0.00    +0.103 A 
ATOM      4  C   UNL     1      -2.485  -2.148   3.105  0.00  0.00    +0.155 A 
ATOM      5  N   UNL     1      -3.234  -1.169   3.593  0.00  0.00    -0.222 NA
ATOM      6  C   UNL     1      -3.370  -0.030   2.945  0.00  0.00    +0.225 A 
ATOM      7  N   UNL     1      -2.771   0.193   1.792  0.00  0.00    -0.218 NA
ATOM      8 CL   UNL     1      -2.316  -3.643   3.972  0.00  0.00    -0.060 Cl
ENDROOT
BRANCH   1   9
ATOM      9  C   UNL     1      -2.069  -0.728  -1.182  0.00  0.00    +0.035 A 
ATOM     10  C   UNL     1      -1.486  -0.389  -2.396  0.00  0.00    +0.026 A 
ATOM     11  C   UNL     1      -2.166  -0.616  -3.576  0.00  0.00    +0.040 A 
ATOM     12  C   UNL     1      -3.430  -1.181  -3.550  0.00  0.00    +0.124 A 
ATOM     13  C   UNL     1      -4.015  -1.519  -2.341  0.00  0.00    +0.040 A 
ATOM     14  C   UNL     1      -3.335  -1.300  -1.159  0.00  0.00    +0.026 A 
ATOM     15  F   UNL     1      -4.095  -1.401  -4.705  0.00  0.00    -0.205 F 
ENDBRANCH   1   9
BRANCH   3  16
ATOM     16  N   UNL     1      -1.037  -2.971   1.340  0.00  0.00    -0.353 N 
ATOM     17  H   UNL     1      -0.533  -2.802   0.528  0.00  0.00    +0.143 HD
ATOM     18  H   UNL     1      -0.987  -3.840   1.770  0.00  0.00    +0.143 HD
ENDBRANCH   3  16
BRANCH   1  20
ATOM     19  C   UNL     1      -0.006   1.523  -0.009  0.00  0.00    +0.025 C 
ATOM     20  C   UNL     1      -0.002  -0.007  -0.017  0.00  0.00    +0.109 C 
ENDBRANCH   1  20
TORSDOF 3
