REMARK  Name = ZINC04525415
REMARK  6 active torsions:
REMARK  status: ('A' for Active; 'I' for Inactive)
REMARK    1  A    between atoms: C_1  and  C_2
REMARK    2  A    between atoms: C_3  and  C_27
REMARK    3  A    between atoms: C_10  and  C_13
REMARK    4  A    between atoms: C_17  and  O_19
REMARK    5  A    between atoms: O_19  and  C_20
REMARK    6  A    between atoms: C_20  and  C_22
REMARK                            x       y       z     vdW  Elec       q    Type
REMARK                         _______ _______ _______ _____ _____    ______ ____
ROOT
ATOM      1  C   UNL     1       1.175   6.443   4.843  0.00  0.00    +0.045 C 
ATOM      2  C   UNL     1      -0.063   6.247   4.006  0.00  0.00    -0.027 A 
ATOM      3  C   UNL     1      -1.283   6.171   4.572  0.00  0.00    -0.008 A 
ATOM      4  S   UNL     1      -2.372   5.941   3.178  0.00  0.00    -0.078 S 
ATOM      5  C   UNL     1      -1.215   5.947   1.917  0.00  0.00    +0.080 A 
ATOM      6  C   UNL     1       0.017   6.133   2.569  0.00  0.00    +0.068 A 
ATOM      7  C   UNL     1       1.232   6.192   1.725  0.00  0.00    +0.248 C 
ATOM      8  O   UNL     1       2.310   6.519   2.188  0.00  0.00    -0.270 OA
ATOM      9  N   UNL     1       1.097   5.869   0.422  0.00  0.00    -0.289 N 
ATOM     10  C   UNL     1      -0.126   5.319  -0.152  0.00  0.00    +0.190 C 
ATOM     11  N   UNL     1      -1.320   5.812   0.559  0.00  0.00    -0.316 N 
ATOM     12  C   UNL     1      -1.641   6.260   6.033  0.00  0.00    +0.052 C 
ATOM     13  H   UNL     1       1.855   6.011  -0.166  0.00  0.00    +0.151 HD
ATOM     14  H   UNL     1      -2.140   6.029   0.089  0.00  0.00    +0.149 HD
ENDROOT
BRANCH  10  15
ATOM     15  C   UNL     1      -0.082   3.816  -0.058  0.00  0.00    -0.006 A 
ATOM     16  C   UNL     1      -1.258   3.095   0.050  0.00  0.00    +0.007 A 
ATOM     17  C   UNL     1      -1.221   1.716   0.131  0.00  0.00    +0.004 A 
ATOM     18  C   UNL     1      -0.009   1.054   0.116  0.00  0.00    +0.046 A 
ATOM     19  C   UNL     1       1.172   1.774   0.007  0.00  0.00    +0.132 A 
ATOM     20  C   UNL     1       1.132   3.158  -0.080  0.00  0.00    +0.053 A 
BRANCH  19  21
ATOM     21  O   UNL     1       2.366   1.125  -0.015  0.00  0.00    -0.422 OA
BRANCH  21  22
ATOM     22  C   UNL     1       2.664   0.382  -1.101  0.00  0.00    +0.351 C 
ATOM     23  O   UNL     1       1.923   0.392  -2.066  0.00  0.00    -0.244 OA
BRANCH  22  24
ATOM     24  C   UNL     1       3.878  -0.435  -1.119  0.00  0.00    +0.097 A 
ATOM     25  C   UNL     1       4.359  -1.265  -2.121  0.00  0.00    +0.022 A 
ATOM     26  C   UNL     1       5.539  -1.921  -1.875  0.00  0.00    +0.008 A 
ATOM     27  C   UNL     1       6.163  -1.740  -0.682  0.00  0.00    +0.046 A 
ATOM     28  S   UNL     1       5.121  -0.630   0.146  0.00  0.00    -0.090 S 
ENDBRANCH  22  24
ENDBRANCH  21  22
ENDBRANCH  19  21
ENDBRANCH  10  15
TORSDOF 4
