REMARK  Name = ZINC45804979
REMARK  9 active torsions:
REMARK  status: ('A' for Active; 'I' for Inactive)
REMARK    1  A    between atoms: C_1  and  C_2
REMARK    2  A    between atoms: C_2  and  C_3
REMARK    3  A    between atoms: C_3  and  C_4
REMARK    4  A    between atoms: C_4  and  N_5
REMARK    5  A    between atoms: N_5  and  C_6
REMARK    6  A    between atoms: N_5  and  C_10
REMARK    7  A    between atoms: C_6  and  C_7
REMARK    8  A    between atoms: C_10  and  C_11
REMARK    9  A    between atoms: N_13  and  C_14
REMARK                            x       y       z     vdW  Elec       q    Type
REMARK                         _______ _______ _______ _____ _____    ______ ____
ROOT
ATOM      1  N   UNL     1       1.580  -2.486  -2.235  0.00  0.00    +0.391 N 
ATOM      2  H   UNL     1       2.504  -2.086  -2.165  0.00  0.00    -0.080 HD
ENDROOT
BRANCH   1   3
ATOM      3  C   UNL     1       0.869  -2.302  -0.964  0.00  0.00    -0.078 C 
BRANCH   3   4
ATOM      4  C   UNL     1       1.713  -2.870   0.180  0.00  0.00    -0.019 C 
BRANCH   4   6
ATOM      5  C   UNL     1       1.877  -3.131   2.659  0.00  0.00    +0.004 C 
ATOM      6  C   UNL     1       1.033  -2.563   1.516  0.00  0.00    -0.005 C 
ENDBRANCH   4   6
ENDBRANCH   3   4
ENDBRANCH   1   3
BRANCH   1   7
ATOM      7  C   UNL     1       0.838  -1.820  -3.313  0.00  0.00    +0.019 C 
BRANCH   7   8
ATOM      8  C   UNL     1       0.879  -0.328  -3.103  0.00  0.00    +0.194 C 
ATOM      9  O   UNL     1       1.407   0.131  -2.113  0.00  0.00    -0.278 OA
ATOM     10  N   UNL     1       0.328   0.497  -4.016  0.00  0.00    -0.331 N 
ATOM     11  H   UNL     1      -0.095   0.130  -4.808  0.00  0.00    +0.145 HD
ATOM     12  H   UNL     1       0.354   1.457  -3.881  0.00  0.00    +0.145 HD
ENDBRANCH   7   8
ENDBRANCH   1   7
BRANCH   1  13
ATOM     13  C   UNL     1       1.691  -3.921  -2.532  0.00  0.00    +0.020 C 
BRANCH  13  14
ATOM     14  C   UNL     1       2.526  -4.115  -3.771  0.00  0.00    +0.201 C 
ATOM     15  O   UNL     1       2.984  -3.153  -4.350  0.00  0.00    -0.278 OA
ATOM     16  N   UNL     1       2.764  -5.358  -4.236  0.00  0.00    -0.287 N 
ATOM     17  H   UNL     1       2.340  -6.122  -3.814  0.00  0.00    +0.155 HD
BRANCH  16  18
ATOM     18  C   UNL     1       3.621  -5.545  -5.325  0.00  0.00    +0.034 A 
ATOM     19  C   UNL     1       4.726  -4.720  -5.492  0.00  0.00    +0.023 A 
ATOM     20  C   UNL     1       5.570  -4.907  -6.568  0.00  0.00    +0.003 A 
ATOM     21  C   UNL     1       5.318  -5.916  -7.480  0.00  0.00    +0.014 A 
ATOM     22  C   UNL     1       4.218  -6.739  -7.317  0.00  0.00    +0.015 A 
ATOM     23  C   UNL     1       3.373  -6.561  -6.239  0.00  0.00    +0.037 A 
ATOM     24  I   UNL     1       3.840  -8.265  -8.702  0.00  0.00    -0.044 I 
ENDBRANCH  16  18
ENDBRANCH  13  14
ENDBRANCH   1  13
TORSDOF 8
