REMARK  Name = ZINC13189398
REMARK  10 active torsions:
REMARK  status: ('A' for Active; 'I' for Inactive)
REMARK    1  A    between atoms: C_1  and  C_2
REMARK    2  A    between atoms: C_5  and  N_8
REMARK    3  A    between atoms: C_9  and  C_11
REMARK    4  A    between atoms: C_11  and  S_12
REMARK    5  A    between atoms: S_12  and  C_13
REMARK    6  A    between atoms: C_14  and  C_34
REMARK    7  A    between atoms: C_15  and  C_25
REMARK    8  A    between atoms: C_28  and  O_33
REMARK    9  A    between atoms: C_29  and  O_31
REMARK   10  A    between atoms: O_31  and  C_32
REMARK                            x       y       z     vdW  Elec       q    Type
REMARK                         _______ _______ _______ _____ _____    ______ ____
ROOT
ATOM      1  C   UNL     1       0.593  -8.709   2.636  0.00  0.00    +0.112 C 
ATOM      2  C   UNL     1       0.713  -9.494   3.770  0.00  0.00    +0.073 C 
ATOM      3  C   UNL     1       0.836 -10.994   3.567  0.00  0.00    +0.097 C 
ATOM      4  C   UNL     1       0.814 -11.470   2.127  0.00  0.00    +0.029 C 
ATOM      5  C   UNL     1       0.915 -12.781   1.853  0.00  0.00    +0.162 C 
ATOM      6  C   UNL     1       0.897 -13.287   0.435  0.00  0.00    +0.080 C 
ATOM      7  C   UNL     1       0.066 -12.336  -0.431  0.00  0.00    +0.014 C 
ATOM      8  C   UNL     1       0.661 -10.929  -0.333  0.00  0.00    +0.056 C 
ATOM      9  C   UNL     1       0.685 -10.501   1.116  0.00  0.00    +0.050 C 
ATOM     10  N   UNL     1       0.580  -9.228   1.407  0.00  0.00    -0.244 NA
ATOM     11  O   UNL     1       1.034 -13.661   2.867  0.00  0.00    -0.292 OA
ENDROOT
BRANCH   3  12
ATOM     12  C   UNL     1       2.132 -11.447   4.189  0.00  0.00    -0.031 A 
ATOM     13  C   UNL     1       3.332 -10.925   3.743  0.00  0.00    +0.008 A 
ATOM     14  C   UNL     1       4.522 -11.338   4.311  0.00  0.00    +0.049 A 
ATOM     15  C   UNL     1       4.515 -12.277   5.330  0.00  0.00    +0.158 A 
ATOM     16  C   UNL     1       3.308 -12.803   5.779  0.00  0.00    +0.162 A 
ATOM     17  C   UNL     1       2.117 -12.381   5.209  0.00  0.00    +0.054 A 
BRANCH  16  18
ATOM     18  O   UNL     1       3.295 -13.725   6.779  0.00  0.00    -0.491 OA
ATOM     19  C   UNL     1       2.019 -14.220   7.189  0.00  0.00    +0.277 C 
ENDBRANCH  16  18
BRANCH  15  20
ATOM     20  O   UNL     1       5.686 -12.685   5.889  0.00  0.00    -0.503 OA
ATOM     21  H   UNL     1       5.965 -12.155   6.648  0.00  0.00    +0.292 HD
ENDBRANCH  15  20
ENDBRANCH   3  12
BRANCH   2  22
ATOM     22  C   UNL     1       0.719  -8.916   5.080  0.00  0.00    +0.098 C 
ATOM     23  N   UNL     1       0.725  -8.457   6.119  0.00  0.00    -0.191 NA
ENDBRANCH   2  22
BRANCH   1  24
ATOM     24  S   UNL     1       0.446  -6.963   2.823  0.00  0.00    -0.096 S 
BRANCH  24  25
ATOM     25  C   UNL     1       0.309  -6.349   1.121  0.00  0.00    +0.172 C 
BRANCH  25  27
ATOM     26  N   UNL     1       0.059  -4.170  -0.021  0.00  0.00    -0.285 N 
ATOM     27  C   UNL     1       0.175  -4.848   1.138  0.00  0.00    +0.227 C 
ATOM     28  O   UNL     1       0.173  -4.251   2.193  0.00  0.00    -0.275 OA
ATOM     29  H   UNL     1      -0.017  -4.651  -0.860  0.00  0.00    +0.155 HD
BRANCH  26  34
ATOM     30  C   UNL     1       0.008   1.503   0.007  0.00  0.00    +0.044 C 
ATOM     31  C   UNL     1       0.022  -0.004  -0.001  0.00  0.00    -0.050 A 
ATOM     32  C   UNL     1       0.777  -0.692   0.931  0.00  0.00    +0.005 A 
ATOM     33  C   UNL     1       0.791  -2.073   0.927  0.00  0.00    +0.023 A 
ATOM     34  C   UNL     1       0.046  -2.771  -0.014  0.00  0.00    +0.033 A 
ATOM     35  C   UNL     1      -0.712  -2.077  -0.948  0.00  0.00    +0.023 A 
ATOM     36  C   UNL     1      -0.726  -0.696  -0.936  0.00  0.00    +0.005 A 
ENDBRANCH  26  34
ENDBRANCH  25  27
ENDBRANCH  24  25
ENDBRANCH   1  24
TORSDOF 8
