REMARK  Name = ZINC59806714
REMARK  15 active torsions:
REMARK  status: ('A' for Active; 'I' for Inactive)
REMARK    1  A    between atoms: C_1  and  C_2
REMARK    2  A    between atoms: C_2  and  O_3
REMARK    3  A    between atoms: O_3  and  C_4
REMARK    4  A    between atoms: C_4  and  C_6
REMARK    5  A    between atoms: C_7  and  C_31
REMARK    6  A    between atoms: C_8  and  C_30
REMARK    7  A    between atoms: C_10  and  N_11
REMARK    8  A    between atoms: C_12  and  C_14
REMARK    9  A    between atoms: C_14  and  N_15
REMARK   10  A    between atoms: N_15  and  C_16
REMARK   11  A    between atoms: C_19  and  C_23
REMARK   12  A    between atoms: N_25  and  C_26
REMARK   13  A    between atoms: C_26  and  C_27
REMARK   14  A    between atoms: C_27  and  C_28
REMARK   15  A    between atoms: C_27  and  C_29
REMARK                            x       y       z     vdW  Elec       q    Type
REMARK                         _______ _______ _______ _____ _____    ______ ____
ROOT
ATOM      1  C   UNL     1      -2.576  -2.610  -5.413  0.00  0.00    +0.198 C 
ENDROOT
BRANCH   1   3
ATOM      2  N   UNL     1      -0.597  -2.461  -3.936  0.00  0.00    -0.278 N 
ATOM      3  C   UNL     1      -1.105  -2.790  -5.140  0.00  0.00    +0.235 C 
ATOM      4  O   UNL     1      -0.378  -3.232  -6.005  0.00  0.00    -0.274 OA
ATOM      5  H   UNL     1      -1.178  -2.108  -3.245  0.00  0.00    +0.155 HD
BRANCH   2  10
ATOM      6  C   UNL     1       1.449  -2.344  -2.516  0.00  0.00    +0.091 A 
ATOM      7  C   UNL     1       2.868  -2.621  -2.523  0.00  0.00    -0.025 A 
ATOM      8  C   UNL     1       3.363  -3.119  -3.671  0.00  0.00    -0.008 A 
ATOM      9  S   UNL     1       1.934  -3.213  -4.727  0.00  0.00    -0.078 S 
ATOM     10  C   UNL     1       0.756  -2.627  -3.686  0.00  0.00    +0.086 A 
ATOM     11  C   UNL     1       4.785  -3.503  -3.986  0.00  0.00    +0.052 C 
ATOM     12  C   UNL     1       3.739  -2.366  -1.320  0.00  0.00    +0.045 C 
BRANCH   6  13
ATOM     13  C   UNL     1       0.776  -1.800  -1.335  0.00  0.00    +0.342 C 
ATOM     14  O   UNL     1       0.312  -2.552  -0.499  0.00  0.00    -0.245 OA
BRANCH  13  15
ATOM     15  O   UNL     1       0.671  -0.465  -1.174  0.00  0.00    -0.461 OA
BRANCH  15  17
ATOM     16  C   UNL     1      -0.019   1.526   0.010  0.00  0.00    +0.048 C 
ATOM     17  C   UNL     1       0.002  -0.004   0.002  0.00  0.00    +0.229 C 
ENDBRANCH  15  17
ENDBRANCH  13  15
ENDBRANCH   6  13
ENDBRANCH   2  10
ENDBRANCH   1   3
BRANCH   1  18
ATOM     18  N   UNL     1      -2.875  -3.037  -6.782  0.00  0.00    -0.335 N 
ATOM     19  H   UNL     1      -2.165  -3.371  -7.352  0.00  0.00    +0.147 HD
BRANCH  18  20
ATOM     20  C   UNL     1      -4.177  -2.962  -7.264  0.00  0.00    +0.029 A 
ATOM     21  C   UNL     1      -5.194  -2.477  -6.447  0.00  0.00    +0.024 A 
ATOM     22  C   UNL     1      -6.475  -2.401  -6.914  0.00  0.00    +0.016 A 
ATOM     23  C   UNL     1      -6.771  -2.811  -8.218  0.00  0.00    +0.055 A 
ATOM     24  C   UNL     1      -5.751  -3.299  -9.042  0.00  0.00    +0.055 A 
ATOM     25  C   UNL     1      -4.459  -3.368  -8.565  0.00  0.00    +0.043 A 
ATOM     26 CL   UNL     1      -6.109  -3.811 -10.662  0.00  0.00    -0.083 Cl
BRANCH  23  27
ATOM     27  C   UNL     1      -8.154  -2.730  -8.722  0.00  0.00    +0.245 C 
ATOM     28  O   UNL     1      -8.409  -3.087  -9.856  0.00  0.00    -0.270 OA
ATOM     29  N   UNL     1      -9.135  -2.260  -7.927  0.00  0.00    -0.311 N 
ATOM     30  H   UNL     1      -8.931  -1.975  -7.022  0.00  0.00    +0.149 HD
BRANCH  29  31
ATOM     31  C   UNL     1     -10.509  -2.179  -8.428  0.00  0.00    +0.107 C 
BRANCH  31  32
ATOM     32  C   UNL     1     -11.419  -1.616  -7.335  0.00  0.00    -0.000 C 
ATOM     33  C   UNL     1     -12.827  -1.414  -7.897  0.00  0.00    +0.009 C 
ATOM     34  C   UNL     1     -11.473  -2.596  -6.162  0.00  0.00    +0.009 C 
ENDBRANCH  31  32
ENDBRANCH  29  31
ENDBRANCH  23  27
ENDBRANCH  18  20
ENDBRANCH   1  18
TORSDOF 10
