REMARK  Name = ZINC37551663
REMARK  9 active torsions:
REMARK  status: ('A' for Active; 'I' for Inactive)
REMARK    1  A    between atoms: C_1  and  C_2
REMARK    2  A    between atoms: C_5  and  N_12
REMARK    3  A    between atoms: C_6  and  C_8
REMARK    4  A    between atoms: C_9  and  C_10
REMARK    5  A    between atoms: C_10  and  O_11
REMARK    6  A    between atoms: N_15  and  C_16
REMARK    7  A    between atoms: C_16  and  C_17
REMARK    8  A    between atoms: C_16  and  C_18
REMARK    9  A    between atoms: C_16  and  C_19
REMARK                            x       y       z     vdW  Elec       q    Type
REMARK                         _______ _______ _______ _____ _____    ______ ____
ROOT
ATOM      1  C   UNL     1      -0.067   1.502  -0.012  0.00  0.00    +0.044 C 
ATOM      2  C   UNL     1      -0.034  -0.004  -0.014  0.00  0.00    -0.049 A 
ATOM      3  C   UNL     1      -0.027  -0.692  -1.216  0.00  0.00    +0.005 A 
ATOM      4  C   UNL     1       0.003  -2.073  -1.231  0.00  0.00    +0.025 A 
ATOM      5  C   UNL     1       0.027  -2.780  -0.038  0.00  0.00    +0.050 A 
ATOM      6  C   UNL     1       0.021  -2.087   1.181  0.00  0.00    +0.046 A 
ATOM      7  C   UNL     1      -0.005  -0.693   1.181  0.00  0.00    +0.022 A 
ENDROOT
BRANCH   5   8
ATOM      8  N   UNL     1       0.057  -4.177  -0.050  0.00  0.00    -0.268 N 
ATOM      9  C   UNL     1       0.553  -4.830  -1.119  0.00  0.00    +0.304 C 
ATOM     10  O   UNL     1       1.068  -4.207  -2.028  0.00  0.00    -0.252 OA
ATOM     11  N   UNL     1       0.479  -6.175  -1.181  0.00  0.00    -0.294 N 
ATOM     12  H   UNL     1      -0.279  -4.676   0.710  0.00  0.00    +0.156 HD
ATOM     13  H   UNL     1       0.069  -6.672  -0.457  0.00  0.00    +0.151 HD
BRANCH  11  14
ATOM     14  C   UNL     1       1.019  -6.885  -2.344  0.00  0.00    +0.028 C 
ATOM     15  C   UNL     1       2.515  -6.591  -2.472  0.00  0.00    +0.031 C 
ATOM     16  C   UNL     1       0.808  -8.390  -2.164  0.00  0.00    +0.031 C 
ATOM     17  C   UNL     1       0.297  -6.416  -3.608  0.00  0.00    +0.031 C 
ENDBRANCH  11  14
ENDBRANCH   5   8
BRANCH   6  18
ATOM     18  C   UNL     1       0.044  -2.807   2.418  0.00  0.00    -0.062 C 
ATOM     19  C   UNL     1       0.064  -3.398   3.433  0.00  0.00    -0.069 C 
BRANCH  19  20
ATOM     20  C   UNL     1       0.089  -4.138   4.705  0.00  0.00    +0.244 C 
BRANCH  20  21
ATOM     21  O   UNL     1       0.076  -3.213   5.794  0.00  0.00    -0.383 OA
ATOM     22  H   UNL     1       0.091  -3.631   6.666  0.00  0.00    +0.211 HD
ENDBRANCH  20  21
ENDBRANCH  19  20
ENDBRANCH   6  18
TORSDOF 5
