REMARK  Name = ZINC37487648
REMARK  8 active torsions:
REMARK  status: ('A' for Active; 'I' for Inactive)
REMARK    1  A    between atoms: C_1  and  C_2
REMARK    2  A    between atoms: C_2  and  C_4
REMARK    3  A    between atoms: C_2  and  N_7
REMARK    4  A    between atoms: C_4  and  C_5
REMARK    5  A    between atoms: C_4  and  C_6
REMARK    6  A    between atoms: N_7  and  C_8
REMARK    7  A    between atoms: C_9  and  N_18
REMARK    8  A    between atoms: N_10  and  C_17
REMARK                            x       y       z     vdW  Elec       q    Type
REMARK                         _______ _______ _______ _____ _____    ______ ____
ROOT
ATOM      1  C   UNL     1      -2.121  -0.550  -1.187  0.00  0.00    +0.131 A 
ATOM      2  C   UNL     1      -3.437  -0.925  -1.172  0.00  0.00    +0.127 A 
ATOM      3  N   UNL     1      -4.143  -0.955  -2.353  0.00  0.00    -0.284 N 
ATOM      4  C   UNL     1      -3.547  -0.618  -3.512  0.00  0.00    +0.331 A 
ATOM      5  O   UNL     1      -4.186  -0.649  -4.545  0.00  0.00    -0.246 OA
ATOM      6  N   UNL     1      -2.254  -0.247  -3.544  0.00  0.00    -0.273 N 
ATOM      7  H   UNL     1      -1.844  -0.008  -4.390  0.00  0.00    +0.173 HD
ATOM      8  C   UNL     1      -1.525  -0.198  -2.412  0.00  0.00    +0.277 A 
ATOM      9  O   UNL     1      -0.355   0.145  -2.449  0.00  0.00    -0.266 OA
ATOM     10  C   UNL     1      -5.552  -1.355  -2.349  0.00  0.00    +0.155 C 
ENDROOT
BRANCH   2  11
ATOM     11  N   UNL     1      -4.048  -1.270   0.011  0.00  0.00    -0.343 N 
ATOM     12  H   UNL     1      -3.546  -1.248   0.841  0.00  0.00    +0.144 HD
ATOM     13  H   UNL     1      -4.981  -1.535   0.016  0.00  0.00    +0.144 HD
ENDBRANCH   2  11
BRANCH   1  14
ATOM     14  N   UNL     1      -1.372  -0.511   0.012  0.00  0.00    -0.334 N 
ATOM     15  H   UNL     1      -1.811  -0.670   0.863  0.00  0.00    +0.147 HD
BRANCH  14  17
ATOM     16  C   UNL     1       0.287   1.281  -0.108  0.00  0.00    +0.028 C 
ATOM     17  C   UNL     1       0.065  -0.231  -0.030  0.00  0.00    +0.070 C 
BRANCH  17  18
ATOM     18  C   UNL     1       0.729  -0.779   1.234  0.00  0.00    +0.003 C 
ATOM     19  C   UNL     1       0.507  -2.291   1.312  0.00  0.00    +0.009 C 
ATOM     20  C   UNL     1       2.230  -0.486   1.190  0.00  0.00    +0.009 C 
ENDBRANCH  17  18
ENDBRANCH  14  17
ENDBRANCH   1  14
TORSDOF 4
