REMARK  Name = ZINC38654716
REMARK  9 active torsions:
REMARK  status: ('A' for Active; 'I' for Inactive)
REMARK    1  A    between atoms: C_5  and  O_7
REMARK    2  A    between atoms: O_7  and  C_8
REMARK    3  A    between atoms: C_8  and  C_9
REMARK    4  A    between atoms: C_9  and  O_11
REMARK    5  A    between atoms: O_11  and  C_12
REMARK    6  A    between atoms: C_19  and  N_34
REMARK    7  A    between atoms: C_20  and  C_32
REMARK    8  A    between atoms: C_21  and  C_23
REMARK    9  A    between atoms: C_26  and  N_29
REMARK                            x       y       z     vdW  Elec       q    Type
REMARK                         _______ _______ _______ _____ _____    ______ ____
ROOT
ATOM      1  C   UNL     1      -0.714  -6.383  -0.060  0.00  0.00    +0.135 A 
ATOM      2  C   UNL     1       0.555  -6.945  -0.033  0.00  0.00    +0.047 A 
ATOM      3  C   UNL     1       0.703  -8.318  -0.076  0.00  0.00    +0.012 A 
ATOM      4  C   UNL     1      -0.410  -9.137  -0.147  0.00  0.00    +0.008 A 
ATOM      5  C   UNL     1      -1.679  -8.581  -0.174  0.00  0.00    +0.138 A 
ATOM      6  C   UNL     1      -1.830  -7.201  -0.125  0.00  0.00    +0.093 A 
ATOM      7  O   UNL     1      -2.782  -9.367  -0.244  0.00  0.00    -0.441 OA
ATOM      8  C   UNL     1      -2.674 -10.637  -0.668  0.00  0.00    +0.199 C 
ATOM      9  C   UNL     1      -1.490 -11.293  -0.670  0.00  0.00    +0.098 C 
ATOM     10  C   UNL     1      -0.228 -10.631  -0.194  0.00  0.00    +0.098 C 
ENDROOT
BRANCH  10  11
ATOM     11  C   UNL     1       0.111 -11.136   1.185  0.00  0.00    -0.035 A 
ATOM     12  C   UNL     1      -0.774 -10.942   2.229  0.00  0.00    +0.007 A 
ATOM     13  C   UNL     1      -0.463 -11.405   3.494  0.00  0.00    +0.033 A 
ATOM     14  C   UNL     1       0.733 -12.062   3.714  0.00  0.00    +0.126 A 
ATOM     15  C   UNL     1       1.618 -12.256   2.670  0.00  0.00    +0.033 A 
ATOM     16  C   UNL     1       1.305 -11.797   1.405  0.00  0.00    +0.007 A 
BRANCH  14  17
ATOM     17  N   UNL     1       1.067 -12.557   5.069  0.00  0.00    +0.056 N 
ATOM     18  O   UNL     1       0.293 -12.387   5.982  0.00  0.00    -0.126 OA
ATOM     19  O   UNL     1       2.113 -13.131   5.262  0.00  0.00    -0.126 OA
ENDBRANCH  14  17
ENDBRANCH  10  11
BRANCH   8  20
ATOM     20  N   UNL     1      -3.797 -11.289  -1.113  0.00  0.00    -0.328 N 
ATOM     21  H   UNL     1      -4.653 -10.832  -1.117  0.00  0.00    +0.145 HD
ATOM     22  H   UNL     1      -3.735 -12.206  -1.423  0.00  0.00    +0.145 HD
ENDBRANCH   8  20
BRANCH   9  23
ATOM     23  C   UNL     1      -1.438 -12.647  -1.136  0.00  0.00    +0.101 C 
ATOM     24  N   UNL     1      -1.398 -13.721  -1.504  0.00  0.00    -0.191 NA
ENDBRANCH   9  23
BRANCH   1  25
ATOM     25  O   UNL     1      -0.861  -5.033  -0.017  0.00  0.00    -0.423 OA
BRANCH  25  26
ATOM     26  C   UNL     1      -0.625  -4.337  -1.141  0.00  0.00    +0.350 C 
ATOM     27  O   UNL     1      -0.208  -4.901  -2.124  0.00  0.00    -0.247 OA
BRANCH  26  28
ATOM     28  C   UNL     1      -0.882  -2.852  -1.175  0.00  0.00    +0.349 C 
BRANCH  28  29
ATOM     29  O   UNL     1      -0.557  -2.343  -2.471  0.00  0.00    -0.479 OA
BRANCH  29  34
ATOM     30  C   UNL     1      -1.387   1.145  -1.851  0.00  0.00    +0.004 A 
ATOM     31  C   UNL     1      -1.091   1.703  -3.081  0.00  0.00    +0.002 A 
ATOM     32  C   UNL     1      -0.618   0.907  -4.108  0.00  0.00    +0.023 A 
ATOM     33  C   UNL     1      -0.438  -0.448  -3.906  0.00  0.00    +0.083 A 
ATOM     34  C   UNL     1      -0.733  -1.010  -2.672  0.00  0.00    +0.140 A 
ATOM     35  C   UNL     1      -1.208  -0.209  -1.644  0.00  0.00    +0.047 A 
ATOM     36 CL   UNL     1       0.156  -1.447  -5.196  0.00  0.00    -0.080 Cl
ENDBRANCH  29  34
ENDBRANCH  28  29
ENDBRANCH  26  28
ENDBRANCH  25  26
ENDBRANCH   1  25
TORSDOF 9
