REMARK  Name = ZINC44551332
REMARK  5 active torsions:
REMARK  status: ('A' for Active; 'I' for Inactive)
REMARK    1  A    between atoms: C_1  and  C_2
REMARK    2  A    between atoms: C_7  and  C_9
REMARK    3  A    between atoms: C_7  and  C_10
REMARK    4  A    between atoms: C_17  and  C_19
REMARK    5  A    between atoms: C_19  and  N_21
REMARK                            x       y       z     vdW  Elec       q    Type
REMARK                         _______ _______ _______ _____ _____    ______ ____
ROOT
ATOM      1  C   UNL     1      -0.337   1.499  -0.149  0.00  0.00    +0.013 C 
ATOM      2  C   UNL     1      -0.126  -0.014  -0.063  0.00  0.00    -0.016 C 
ATOM      3  C   UNL     1      -1.475  -0.713   0.127  0.00  0.00    +0.010 C 
ATOM      4  C   UNL     1      -1.274  -2.227   0.209  0.00  0.00    +0.023 C 
ATOM      5  C   UNL     1       0.218  -2.555   0.066  0.00  0.00    +0.081 C 
ATOM      6  C   UNL     1       0.977  -1.883   1.216  0.00  0.00    -0.016 C 
ATOM      7  C   UNL     1       0.782  -0.341   1.125  0.00  0.00    +0.016 C 
ATOM      8  C   UNL     1       2.466  -2.217   1.108  0.00  0.00    +0.013 C 
ATOM      9  C   UNL     1       0.435  -2.396   2.552  0.00  0.00    +0.013 C 
ATOM     10  N   UNL     1       0.689  -1.980  -1.209  0.00  0.00    -0.310 N 
ATOM     11  C   UNL     1       0.539  -0.518  -1.353  0.00  0.00    +0.113 C 
ATOM     12  C   UNL     1       1.256  -2.764  -2.207  0.00  0.00    +0.141 A 
ATOM     13  C   UNL     1       1.211  -4.156  -2.111  0.00  0.00    +0.154 A 
ATOM     14  N   UNL     1       1.748  -4.903  -3.057  0.00  0.00    -0.258 NA
ATOM     15  C   UNL     1       2.331  -4.336  -4.099  0.00  0.00    +0.141 A 
ATOM     16  C   UNL     1       2.381  -2.947  -4.202  0.00  0.00    +0.112 A 
ATOM     17  N   UNL     1       1.834  -2.192  -3.251  0.00  0.00    -0.227 NA
ENDROOT
BRANCH  16  18
ATOM     18  C   UNL     1       3.033  -2.314  -5.367  0.00  0.00    +0.097 C 
ATOM     19  S   UNL     1       3.094  -0.608  -5.492  0.00  0.00    -0.034 S 
BRANCH  18  20
ATOM     20  N   UNL     1       3.581  -3.080  -6.331  0.00  0.00    -0.351 N 
ATOM     21  H   UNL     1       3.547  -4.046  -6.261  0.00  0.00    +0.143 HD
ATOM     22  H   UNL     1       4.010  -2.664  -7.096  0.00  0.00    +0.143 HD
ENDBRANCH  18  20
ENDBRANCH  16  18
TORSDOF 2
