REMARK  Name = ZINC03291706
REMARK  4 active torsions:
REMARK  status: ('A' for Active; 'I' for Inactive)
REMARK    1  A    between atoms: C_3  and  C_17
REMARK    2  A    between atoms: C_5  and  C_11
REMARK    3  A    between atoms: N_19  and  C_20
REMARK    4  A    between atoms: C_25  and  C_26
REMARK                            x       y       z     vdW  Elec       q    Type
REMARK                         _______ _______ _______ _____ _____    ______ ____
ROOT
ATOM      1  C   UNL     1       5.263   3.275  -1.935  0.00  0.00    +0.029 C 
ATOM      2  C   UNL     1       6.241   3.090  -1.069  0.00  0.00    +0.016 C 
ATOM      3  C   UNL     1       6.047   2.240   0.172  0.00  0.00    +0.143 C 
ATOM      4  C   UNL     1       7.231   1.269   0.257  0.00  0.00    +0.120 C 
ATOM      5  N   UNL     1       8.482   2.010   0.096  0.00  0.00    -0.318 N 
ATOM      6  C   UNL     1       8.571   3.116  -0.655  0.00  0.00    +0.135 C 
ATOM      7  S   UNL     1      10.102   3.853  -0.859  0.00  0.00    -0.019 S 
ATOM      8  N   UNL     1       7.500   3.668  -1.255  0.00  0.00    -0.300 N 
ATOM      9  H   UNL     1       9.277   1.689   0.550  0.00  0.00    +0.148 HD
ATOM     10  H   UNL     1       7.601   4.457  -1.811  0.00  0.00    +0.154 HD
ENDROOT
BRANCH   4  11
ATOM     11  C   UNL     1       7.115   0.237  -0.835  0.00  0.00    -0.026 A 
ATOM     12  C   UNL     1       7.501   0.550  -2.125  0.00  0.00    +0.005 A 
ATOM     13  C   UNL     1       7.398  -0.398  -3.126  0.00  0.00    +0.000 A 
ATOM     14  C   UNL     1       6.900  -1.655  -2.839  0.00  0.00    +0.000 A 
ATOM     15  C   UNL     1       6.508  -1.966  -1.551  0.00  0.00    +0.000 A 
ATOM     16  C   UNL     1       6.615  -1.019  -0.549  0.00  0.00    +0.005 A 
ENDBRANCH   4  11
BRANCH   3  17
ATOM     17  C   UNL     1       4.758   1.467   0.066  0.00  0.00    +0.228 C 
ATOM     18  O   UNL     1       4.777   0.255   0.059  0.00  0.00    -0.275 OA
ATOM     19  N   UNL     1       3.584   2.123  -0.020  0.00  0.00    -0.284 N 
ATOM     20  H   UNL     1       3.573   3.092  -0.079  0.00  0.00    +0.155 HD
BRANCH  19  21
ATOM     21  C   UNL     1       2.381   1.408  -0.025  0.00  0.00    +0.045 A 
ATOM     22  C   UNL     1       2.314   0.164  -0.640  0.00  0.00    +0.024 A 
ATOM     23  C   UNL     1       1.125  -0.539  -0.643  0.00  0.00    +0.002 A 
ATOM     24  C   UNL     1       0.003  -0.006  -0.035  0.00  0.00    +0.001 A 
ATOM     25  C   UNL     1       0.067   1.232   0.577  0.00  0.00    +0.014 A 
ATOM     26  C   UNL     1       1.253   1.940   0.584  0.00  0.00    +0.076 A 
BRANCH  26  27
ATOM     27  C   UNL     1       1.321   3.290   1.251  0.00  0.00    +0.419 C 
ATOM     28  F   UNL     1       0.069   3.609   1.788  0.00  0.00    -0.166 F 
ATOM     29  F   UNL     1       2.273   3.256   2.276  0.00  0.00    -0.166 F 
ATOM     30  F   UNL     1       1.685   4.258   0.309  0.00  0.00    -0.166 F 
ENDBRANCH  26  27
ENDBRANCH  19  21
ENDBRANCH   3  17
TORSDOF 4
