REMARK  Name = ZINC36685786
REMARK  4 active torsions:
REMARK  status: ('A' for Active; 'I' for Inactive)
REMARK    1  A    between atoms: C_1  and  N_2
REMARK    2  A    between atoms: C_3  and  C_5
REMARK    3  A    between atoms: C_15  and  C_17
REMARK    4  A    between atoms: C_18  and  C_19
REMARK                            x       y       z     vdW  Elec       q    Type
REMARK                         _______ _______ _______ _____ _____    ______ ____
ROOT
ATOM      1  C   UNL     1      -0.073  -3.072   0.959  0.00  0.00    +0.172 C 
ATOM      2  C   UNL     1       0.740  -3.987   0.029  0.00  0.00    +0.069 C 
ATOM      3  C   UNL     1       1.360  -5.013   0.952  0.00  0.00    -0.024 A 
ATOM      4  C   UNL     1       2.190  -6.085   0.687  0.00  0.00    +0.005 A 
ATOM      5  C   UNL     1       2.633  -6.892   1.718  0.00  0.00    +0.000 A 
ATOM      6  C   UNL     1       2.242  -6.623   3.018  0.00  0.00    +0.002 A 
ATOM      7  C   UNL     1       1.415  -5.554   3.287  0.00  0.00    +0.024 A 
ATOM      8  C   UNL     1       0.963  -4.735   2.250  0.00  0.00    +0.041 A 
ATOM      9  N   UNL     1       0.127  -3.614   2.306  0.00  0.00    -0.255 N 
ATOM     10  C   UNL     1      -0.415  -3.107   3.431  0.00  0.00    +0.244 C 
ATOM     11  O   UNL     1      -0.257  -3.680   4.494  0.00  0.00    -0.270 OA
ENDROOT
BRANCH   1  14
ATOM     12  C   UNL     1       0.562   0.520  -0.202  0.00  0.00    +0.128 C 
ATOM     13  N   UNL     1       0.060  -0.854  -0.128  0.00  0.00    -0.317 N 
ATOM     14  C   UNL     1       0.443  -1.658   0.883  0.00  0.00    +0.234 C 
ATOM     15  O   UNL     1       1.204  -1.244   1.732  0.00  0.00    -0.274 OA
ATOM     16  H   UNL     1      -0.548  -1.186  -0.807  0.00  0.00    +0.148 HD
ENDBRANCH   1  14
BRANCH  10  17
ATOM     17  C   UNL     1      -1.193  -1.869   3.375  0.00  0.00    +0.068 C 
ATOM     18  C   UNL     1      -1.622  -1.290   4.515  0.00  0.00    +0.013 C 
BRANCH  18  19
ATOM     19  C   UNL     1      -1.127  -1.770   5.815  0.00  0.00    -0.025 A 
ATOM     20  C   UNL     1       0.232  -2.051   5.990  0.00  0.00    +0.008 A 
ATOM     21  C   UNL     1       0.688  -2.500   7.211  0.00  0.00    +0.001 A 
ATOM     22  C   UNL     1      -0.195  -2.672   8.263  0.00  0.00    +0.000 A 
ATOM     23  C   UNL     1      -1.541  -2.396   8.098  0.00  0.00    +0.001 A 
ATOM     24  C   UNL     1      -2.012  -1.941   6.884  0.00  0.00    +0.008 A 
ENDBRANCH  18  19
ENDBRANCH  10  17
TORSDOF 3
