REMARK  Name = ZINC05920972
REMARK  9 active torsions:
REMARK  status: ('A' for Active; 'I' for Inactive)
REMARK    1  A    between atoms: C_1  and  C_2
REMARK    2  A    between atoms: C_2  and  O_3
REMARK    3  A    between atoms: O_3  and  C_4
REMARK    4  A    between atoms: C_6  and  C_11
REMARK    5  A    between atoms: C_9  and  O_10
REMARK    6  A    between atoms: C_13  and  C_19
REMARK    7  A    between atoms: C_14  and  O_18
REMARK    8  A    between atoms: C_19  and  C_21
REMARK    9  A    between atoms: C_24  and  C_27
REMARK                            x       y       z     vdW  Elec       q    Type
REMARK                         _______ _______ _______ _____ _____    ______ ____
ROOT
ATOM      1  C   UNL     1       3.862   3.856   0.014  0.00  0.00    +0.142 C 
ATOM      2  C   UNL     1       4.128   2.371  -0.061  0.00  0.00    +0.071 C 
ATOM      3  C   UNL     1       5.473   2.216  -0.096  0.00  0.00    +0.188 C 
ATOM      4  C   UNL     1       6.116   3.546  -0.041  0.00  0.00    +0.280 C 
ATOM      5  O   UNL     1       7.315   3.741  -0.055  0.00  0.00    -0.267 OA
ATOM      6  N   UNL     1       5.178   4.507   0.027  0.00  0.00    -0.298 N 
ATOM      7  H   UNL     1       5.341   5.462   0.073  0.00  0.00    +0.150 HD
ENDROOT
BRANCH   1  10
ATOM      8  C   UNL     1       0.992   4.979  -2.171  0.00  0.00    +0.162 A 
ATOM      9  C   UNL     1       1.720   4.563  -1.067  0.00  0.00    +0.055 A 
ATOM     10  C   UNL     1       3.072   4.303  -1.189  0.00  0.00    -0.019 A 
ATOM     11  C   UNL     1       3.699   4.445  -2.413  0.00  0.00    +0.009 A 
ATOM     12  C   UNL     1       2.978   4.853  -3.519  0.00  0.00    +0.049 A 
ATOM     13  C   UNL     1       1.623   5.121  -3.403  0.00  0.00    +0.158 A 
BRANCH  13  14
ATOM     14  O   UNL     1       0.912   5.523  -4.490  0.00  0.00    -0.503 OA
ATOM     15  H   UNL     1       0.523   4.796  -4.996  0.00  0.00    +0.292 HD
ENDBRANCH  13  14
BRANCH   8  16
ATOM     16  O   UNL     1      -0.337   5.241  -2.052  0.00  0.00    -0.489 OA
BRANCH  16  18
ATOM     17  C   UNL     1      -2.387   5.515  -0.801  0.00  0.00    +0.048 C 
ATOM     18  C   UNL     1      -0.894   5.183  -0.737  0.00  0.00    +0.226 C 
ENDBRANCH  16  18
ENDBRANCH   8  16
ENDBRANCH   1  10
BRANCH   3  19
ATOM     19  O   UNL     1       6.124   1.032  -0.170  0.00  0.00    -0.502 OA
ATOM     20  H   UNL     1       7.110   1.195  -0.182  0.00  0.00    +0.292 HD
ENDBRANCH   3  19
BRANCH   2  21
ATOM     21  C   UNL     1       3.124   1.303  -0.096  0.00  0.00    +0.195 C 
ATOM     22  O   UNL     1       3.015   0.603  -1.085  0.00  0.00    -0.287 OA
BRANCH  21  23
ATOM     23  C   UNL     1       2.244   1.078   1.071  0.00  0.00    +0.022 A 
ATOM     24  C   UNL     1       1.233   0.116   1.011  0.00  0.00    +0.012 A 
ATOM     25  C   UNL     1       0.413  -0.086   2.102  0.00  0.00    +0.004 A 
ATOM     26  C   UNL     1       0.596   0.656   3.256  0.00  0.00    -0.050 A 
ATOM     27  C   UNL     1       1.595   1.611   3.321  0.00  0.00    +0.004 A 
ATOM     28  C   UNL     1       2.420   1.826   2.237  0.00  0.00    +0.012 A 
ATOM     29  C   UNL     1      -0.301   0.426   4.445  0.00  0.00    +0.044 C 
ENDBRANCH  21  23
ENDBRANCH   2  21
TORSDOF 7
