REMARK  Name = ZINC66856564
REMARK  5 active torsions:
REMARK  status: ('A' for Active; 'I' for Inactive)
REMARK    1  A    between atoms: C_3  and  N_16
REMARK    2  A    between atoms: C_6  and  C_7
REMARK    3  A    between atoms: C_17  and  C_19
REMARK    4  A    between atoms: C_19  and  C_23
REMARK    5  A    between atoms: N_25  and  C_26
REMARK                            x       y       z     vdW  Elec       q    Type
REMARK                         _______ _______ _______ _____ _____    ______ ____
ROOT
ATOM      1  C   UNL     1       0.830  -0.303   1.650  0.00  0.00    +0.013 A 
ATOM      2  C   UNL     1       1.728   0.716   1.416  0.00  0.00    +0.024 A 
ATOM      3  C   UNL     1       2.917   0.456   0.745  0.00  0.00    +0.033 A 
ATOM      4  C   UNL     1       3.205  -0.832   0.307  0.00  0.00    +0.024 A 
ATOM      5  C   UNL     1       2.311  -1.855   0.538  0.00  0.00    +0.013 A 
ATOM      6  C   UNL     1       1.116  -1.597   1.212  0.00  0.00    +0.019 A 
ENDROOT
BRANCH   6   7
ATOM      7  C   UNL     1       0.155  -2.693   1.462  0.00  0.00    +0.164 A 
ATOM      8  N   UNL     1       0.399  -3.986   1.387  0.00  0.00    -0.129 NA
ATOM      9  N   UNL     1      -0.669  -4.649   1.669  0.00  0.00    -0.134 NA
ATOM     10  C   UNL     1      -1.641  -3.829   1.937  0.00  0.00    +0.134 A 
ATOM     11  N   UNL     1      -1.151  -2.562   1.818  0.00  0.00    -0.311 N 
ATOM     12  C   UNL     1      -1.927  -1.342   2.039  0.00  0.00    +0.125 C 
ATOM     13  C   UNL     1      -3.419  -1.696   2.001  0.00  0.00    +0.022 C 
ATOM     14  C   UNL     1      -3.689  -2.885   2.927  0.00  0.00    +0.009 C 
ATOM     15  C   UNL     1      -3.064  -4.150   2.320  0.00  0.00    +0.076 C 
ENDBRANCH   6   7
BRANCH   3  16
ATOM     16  N   UNL     1       3.825   1.491   0.508  0.00  0.00    -0.285 N 
ATOM     17  C   UNL     1       5.141   1.222   0.398  0.00  0.00    +0.232 C 
ATOM     18  O   UNL     1       5.535   0.077   0.480  0.00  0.00    -0.274 OA
ATOM     19  H   UNL     1       3.509   2.404   0.424  0.00  0.00    +0.155 HD
BRANCH  17  20
ATOM     20  C   UNL     1       6.124   2.342   0.172  0.00  0.00    +0.123 C 
ATOM     21  C   UNL     1       6.253   2.761  -1.302  0.00  0.00    +0.025 C 
ATOM     22  C   UNL     1       7.764   2.893  -1.050  0.00  0.00    +0.003 C 
ATOM     23  C   UNL     1       7.585   1.871   0.085  0.00  0.00    +0.025 C 
BRANCH  20  24
ATOM     24  C   UNL     1       5.918   3.499   1.115  0.00  0.00    +0.228 C 
ATOM     25  O   UNL     1       6.748   3.745   1.964  0.00  0.00    -0.275 OA
ATOM     26  N   UNL     1       4.811   4.262   1.014  0.00  0.00    -0.312 N 
ATOM     27  H   UNL     1       4.093   3.998   0.417  0.00  0.00    +0.149 HD
BRANCH  26  28
ATOM     28  C   UNL     1       4.691   5.488   1.807  0.00  0.00    +0.073 C 
ATOM     29  C   UNL     1       3.350   5.759   2.491  0.00  0.00    +0.024 C 
ATOM     30  C   UNL     1       3.769   6.586   1.275  0.00  0.00    +0.024 C 
ENDBRANCH  26  28
ENDBRANCH  20  24
ENDBRANCH  17  20
ENDBRANCH   3  16
TORSDOF 5
