REMARK  Name = ZINC36232586
REMARK  4 active torsions:
REMARK  status: ('A' for Active; 'I' for Inactive)
REMARK    1  A    between atoms: C_1  and  C_2
REMARK    2  A    between atoms: C_2  and  C_18
REMARK    3  A    between atoms: C_11  and  C_14
REMARK    4  A    between atoms: N_15  and  O_16
REMARK                            x       y       z     vdW  Elec       q    Type
REMARK                         _______ _______ _______ _____ _____    ______ ____
ROOT
ATOM      1  C   UNL     1       0.089   1.681   0.480  0.00  0.00    +0.043 C 
ATOM      2  C   UNL     1       0.106   0.173   0.224  0.00  0.00    +0.080 C 
ATOM      3  C   UNL     1      -1.330  -0.330   0.036  0.00  0.00    +0.141 C 
ATOM      4  N   UNL     1      -2.037  -0.205   1.321  0.00  0.00    -0.310 N 
ATOM      5  C   UNL     1      -1.395  -0.763   2.521  0.00  0.00    +0.134 C 
ATOM      6  C   UNL     1       0.044  -0.239   2.587  0.00  0.00    +0.179 C 
ATOM      7  O   UNL     1       0.696  -0.495   1.341  0.00  0.00    -0.371 OA
ATOM      8  C   UNL     1      -3.273   0.421   1.398  0.00  0.00    +0.121 A 
ATOM      9  C   UNL     1      -3.955   0.743   0.227  0.00  0.00    +0.044 A 
ATOM     10  C   UNL     1      -5.183   1.365   0.311  0.00  0.00    +0.016 A 
ATOM     11  C   UNL     1      -5.699   1.652   1.583  0.00  0.00    +0.036 A 
ATOM     12  C   UNL     1      -4.957   1.300   2.709  0.00  0.00    +0.124 A 
ATOM     13  N   UNL     1      -3.791   0.702   2.585  0.00  0.00    -0.240 NA
ATOM     14  C   UNL     1       0.920  -0.122  -1.037  0.00  0.00    +0.043 C 
ENDROOT
BRANCH  11  15
ATOM     15  C   UNL     1      -7.011   2.319   1.727  0.00  0.00    +0.164 C 
ATOM     16  N   UNL     1      -7.695   2.644   0.668  0.00  0.00    -0.071 NA
ATOM     17  N   UNL     1      -7.511   2.598   2.987  0.00  0.00    -0.340 N 
ATOM     18  H   UNL     1      -7.001   2.356   3.776  0.00  0.00    +0.144 HD
ATOM     19  H   UNL     1      -8.372   3.035   3.082  0.00  0.00    +0.144 HD
BRANCH  16  20
ATOM     20  O   UNL     1      -8.952   3.283   0.806  0.00  0.00    -0.408 OA
ATOM     21  H   UNL     1      -9.384   3.485  -0.034  0.00  0.00    +0.328 HD
ENDBRANCH  16  20
ENDBRANCH  11  15
TORSDOF 2
