REMARK  Name = ZINC47007221
REMARK  10 active torsions:
REMARK  status: ('A' for Active; 'I' for Inactive)
REMARK    1  A    between atoms: C_1  and  C_2
REMARK    2  A    between atoms: C_3  and  C_8
REMARK    3  A    between atoms: N_6  and  C_7
REMARK    4  A    between atoms: C_8  and  C_10
REMARK    5  A    between atoms: C_8  and  N_11
REMARK    6  A    between atoms: N_14  and  N_15
REMARK    7  A    between atoms: C_16  and  C_18
REMARK    8  A    between atoms: C_18  and  C_20
REMARK    9  A    between atoms: C_18  and  O_21
REMARK   10  A    between atoms: O_21  and  C_22
REMARK                            x       y       z     vdW  Elec       q    Type
REMARK                         _______ _______ _______ _____ _____    ______ ____
ROOT
ATOM      1  N   UNL     1      -0.933  -1.315  -3.260  0.00  0.00    -0.292 N 
ATOM      2  C   UNL     1      -1.675  -1.004  -4.340  0.00  0.00    +0.316 C 
ATOM      3  O   UNL     1      -1.906   0.160  -4.606  0.00  0.00    -0.251 OA
ATOM      4  N   UNL     1      -2.162  -1.984  -5.128  0.00  0.00    -0.218 N 
ATOM      5  H   UNL     1      -0.749  -2.243  -3.048  0.00  0.00    +0.151 HD
ATOM      6  H   UNL     1      -2.697  -1.760  -5.906  0.00  0.00    +0.174 HD
ENDROOT
BRANCH   4   7
ATOM      7  N   UNL     1      -1.897  -3.325  -4.822  0.00  0.00    -0.230 N 
ATOM      8  C   UNL     1      -2.384  -4.304  -5.609  0.00  0.00    +0.270 C 
ATOM      9  O   UNL     1      -3.052  -4.025  -6.582  0.00  0.00    -0.270 OA
ATOM     10  H   UNL     1      -1.362  -3.548  -4.044  0.00  0.00    +0.173 HD
BRANCH   8  11
ATOM     11  C   UNL     1      -2.098  -5.747  -5.281  0.00  0.00    +0.257 C 
ATOM     12  C   UNL     1      -2.763  -6.109  -3.951  0.00  0.00    +0.062 C 
BRANCH  11  13
ATOM     13  O   UNL     1      -2.617  -6.583  -6.317  0.00  0.00    -0.480 OA
BRANCH  13  14
ATOM     14  C   UNL     1      -2.036  -7.802  -6.475  0.00  0.00    +0.122 A 
ATOM     15  C   UNL     1      -2.410  -8.617  -7.534  0.00  0.00    +0.048 A 
ATOM     16  C   UNL     1      -1.819  -9.855  -7.694  0.00  0.00    +0.042 A 
ATOM     17  C   UNL     1      -0.854 -10.284  -6.798  0.00  0.00    +0.124 A 
ATOM     18  C   UNL     1      -0.480  -9.472  -5.741  0.00  0.00    +0.042 A 
ATOM     19  C   UNL     1      -1.065  -8.230  -5.582  0.00  0.00    +0.048 A 
ATOM     20  F   UNL     1      -0.277 -11.495  -6.955  0.00  0.00    -0.205 F 
ENDBRANCH  13  14
ENDBRANCH  11  13
ENDBRANCH   8  11
ENDBRANCH   4   7
BRANCH   1  21
ATOM     21  C   UNL     1      -0.403  -0.250  -2.404  0.00  0.00    +0.105 C 
ATOM     22  C   UNL     1       0.918   0.260  -2.983  0.00  0.00    +0.033 C 
BRANCH  21  25
ATOM     23  C   UNL     1      -0.359   1.422   0.240  0.00  0.00    +0.065 C 
ATOM     24  C   UNL     1      -0.150  -0.067   0.127  0.00  0.00    +0.041 A 
ATOM     25  C   UNL     1      -0.169  -0.790  -1.017  0.00  0.00    +0.013 A 
ATOM     26  C   UNL     1       0.068  -2.128  -0.683  0.00  0.00    +0.140 A 
ATOM     27  N   UNL     1       0.223  -2.205   0.613  0.00  0.00    -0.179 NA
ATOM     28  N   UNL     1       0.095  -0.915   1.147  0.00  0.00    -0.271 N 
ATOM     29  C   UNL     1       0.205  -0.553   2.562  0.00  0.00    +0.172 C 
ENDBRANCH  21  25
ENDBRANCH   1  21
TORSDOF 6
