REMARK  Name = ZINC02692948
REMARK  8 active torsions:
REMARK  status: ('A' for Active; 'I' for Inactive)
REMARK    1  A    between atoms: C_1  and  C_2
REMARK    2  A    between atoms: C_4  and  C_23
REMARK    3  A    between atoms: C_5  and  C_9
REMARK    4  A    between atoms: C_6  and  C_8
REMARK    5  A    between atoms: C_9  and  C_11
REMARK    6  A    between atoms: C_12  and  N_22
REMARK    7  A    between atoms: C_14  and  C_21
REMARK    8  A    between atoms: C_16  and  C_20
REMARK                            x       y       z     vdW  Elec       q    Type
REMARK                         _______ _______ _______ _____ _____    ______ ____
ROOT
ATOM      1  C   UNL     1      -1.373   3.792   5.804  0.00  0.00    +0.083 A 
ATOM      2  C   UNL     1      -2.295   3.469   4.828  0.00  0.00    +0.052 A 
ATOM      3  C   UNL     1      -1.821   2.790   3.632  0.00  0.00    +0.032 A 
ATOM      4  C   UNL     1      -2.567   2.361   2.505  0.00  0.00    -0.037 A 
ATOM      5  C   UNL     1      -1.910   1.736   1.471  0.00  0.00    +0.027 A 
ATOM      6  C   UNL     1      -0.541   1.521   1.536  0.00  0.00    +0.040 A 
ATOM      7  N   UNL     1       0.148   1.922   2.586  0.00  0.00    -0.245 NA
ATOM      8  C   UNL     1      -0.433   2.529   3.599  0.00  0.00    +0.111 A 
ATOM      9  S   UNL     1       0.165   3.188   5.136  0.00  0.00    -0.064 S 
ATOM     10  C   UNL     1       0.163   0.830   0.397  0.00  0.00    +0.065 C 
ATOM     11  C   UNL     1      -4.054   2.590   2.439  0.00  0.00    +0.044 C 
ENDROOT
BRANCH   2  12
ATOM     12  N   UNL     1      -3.635   3.783   4.984  0.00  0.00    -0.356 N 
ATOM     13  H   UNL     1      -4.029   3.804   5.870  0.00  0.00    +0.142 HD
ATOM     14  H   UNL     1      -4.180   3.982   4.206  0.00  0.00    +0.142 HD
ENDBRANCH   2  12
BRANCH   1  15
ATOM     15  C   UNL     1      -1.595   4.446   7.038  0.00  0.00    +0.202 C 
ATOM     16  O   UNL     1      -2.730   4.726   7.384  0.00  0.00    -0.286 OA
BRANCH  15  21
ATOM     17  C   UNL     1       2.858   5.788  10.429  0.00  0.00    +0.044 C 
ATOM     18  C   UNL     1       1.692   5.437   9.541  0.00  0.00    -0.050 A 
ATOM     19  C   UNL     1       1.212   6.365   8.635  0.00  0.00    +0.007 A 
ATOM     20  C   UNL     1       0.145   6.050   7.819  0.00  0.00    -0.039 A 
ATOM     21  C   UNL     1      -0.450   4.791   7.910  0.00  0.00    +0.029 A 
ATOM     22  C   UNL     1       0.035   3.861   8.830  0.00  0.00    -0.039 A 
ATOM     23  C   UNL     1       1.107   4.187   9.636  0.00  0.00    +0.007 A 
ATOM     24  C   UNL     1      -0.606   2.501   8.939  0.00  0.00    +0.044 C 
ATOM     25  C   UNL     1      -0.377   7.063   6.833  0.00  0.00    +0.044 C 
ENDBRANCH  15  21
ENDBRANCH   1  15
TORSDOF 3
