REMARK  Name = ZINC40373079
REMARK  7 active torsions:
REMARK  status: ('A' for Active; 'I' for Inactive)
REMARK    1  A    between atoms: C_1  and  C_2
REMARK    2  A    between atoms: C_2  and  C_3
REMARK    3  A    between atoms: C_3  and  C_4
REMARK    4  A    between atoms: C_3  and  C_5
REMARK    5  A    between atoms: C_3  and  N_9
REMARK    6  A    between atoms: N_6  and  O_7
REMARK    7  A    between atoms: C_10  and  C_12
REMARK                            x       y       z     vdW  Elec       q    Type
REMARK                         _______ _______ _______ _____ _____    ______ ____
ROOT
ATOM      1  C   UNL     1       0.667  -0.613   1.242  0.00  0.00    +0.090 C 
ATOM      2  C   UNL     1       0.696  -2.111   0.930  0.00  0.00    +0.040 C 
ENDROOT
BRANCH   1   3
ATOM      3  C   UNL     1       2.078  -0.096   1.355  0.00  0.00    +0.155 C 
ATOM      4  N   UNL     1       3.075  -0.888   1.138  0.00  0.00    -0.075 NA
ATOM      5  N   UNL     1       2.305   1.221   1.688  0.00  0.00    -0.342 N 
ATOM      6  H   UNL     1       1.559   1.834   1.778  0.00  0.00    +0.144 HD
ATOM      7  H   UNL     1       3.211   1.535   1.834  0.00  0.00    +0.144 HD
BRANCH   4   8
ATOM      8  O   UNL     1       4.402  -0.403   1.244  0.00  0.00    -0.408 OA
ATOM      9  H   UNL     1       5.080  -1.069   1.064  0.00  0.00    +0.328 HD
ENDBRANCH   4   8
ENDBRANCH   1   3
BRANCH   1  10
ATOM     10  N   UNL     1      -0.037  -0.391   2.508  0.00  0.00    -0.299 N 
ATOM     11  C   UNL     1      -1.321  -0.776   2.641  0.00  0.00    +0.245 C 
ATOM     12  O   UNL     1      -1.897  -1.307   1.710  0.00  0.00    -0.270 OA
ATOM     13  H   UNL     1       0.422   0.033   3.250  0.00  0.00    +0.150 HD
BRANCH  11  14
ATOM     14  C   UNL     1      -2.028  -0.552   3.912  0.00  0.00    +0.044 A 
ATOM     15  C   UNL     1      -3.402  -0.956   4.094  0.00  0.00    +0.020 A 
ATOM     16  C   UNL     1      -3.934  -0.696   5.305  0.00  0.00    +0.046 A 
ATOM     17  S   UNL     1      -2.591   0.082   6.176  0.00  0.00    -0.104 S 
ATOM     18  C   UNL     1      -1.409   0.046   4.986  0.00  0.00    +0.058 A 
ENDBRANCH  11  14
ENDBRANCH   1  10
BRANCH   1  20
ATOM     19  C   UNL     1       0.745   0.004  -1.178  0.00  0.00    +0.006 C 
ATOM     20  C   UNL     1      -0.059   0.128   0.118  0.00  0.00    +0.030 C 
ENDBRANCH   1  20
TORSDOF 5
