REMARK  Name = ZINC46478925
REMARK  6 active torsions:
REMARK  status: ('A' for Active; 'I' for Inactive)
REMARK    1  A    between atoms: C_1  and  C_2
REMARK    2  A    between atoms: C_4  and  N_9
REMARK    3  A    between atoms: N_9  and  C_10
REMARK    4  A    between atoms: C_10  and  C_11
REMARK    5  A    between atoms: C_11  and  C_13
REMARK    6  A    between atoms: C_11  and  N_20
REMARK                            x       y       z     vdW  Elec       q    Type
REMARK                         _______ _______ _______ _____ _____    ______ ____
ROOT
ATOM      1  C   UNL     1       0.034  -2.161  -3.602  0.00  0.00    +0.126 C 
ENDROOT
BRANCH   1   2
ATOM      2  N   UNL     1      -1.237  -1.432  -3.590  0.00  0.00    -0.327 N 
ATOM      3  H   UNL     1      -1.922  -1.642  -4.244  0.00  0.00    +0.148 HD
BRANCH   2   7
ATOM      4  C   UNL     1       0.281   1.228   0.262  0.00  0.00    +0.063 C 
ATOM      5  C   UNL     1      -0.746   0.860  -0.778  0.00  0.00    +0.019 A 
ATOM      6  C   UNL     1      -0.480  -0.134  -1.700  0.00  0.00    +0.064 A 
ATOM      7  C   UNL     1      -1.460  -0.444  -2.646  0.00  0.00    +0.124 A 
ATOM      8  N   UNL     1      -2.609   0.224  -2.627  0.00  0.00    -0.201 NA
ATOM      9  C   UNL     1      -2.824   1.170  -1.725  0.00  0.00    +0.192 A 
ATOM     10  N   UNL     1      -1.915   1.482  -0.813  0.00  0.00    -0.332 N 
ATOM     11  N   UNL     1      -4.032   1.847  -1.733  0.00  0.00    -0.329 N 
ATOM     12  H   UNL     1      -4.707   1.626  -2.393  0.00  0.00    +0.145 HD
ATOM     13  H   UNL     1      -4.202   2.542  -1.078  0.00  0.00    +0.145 HD
ATOM     14  H   UNL     1      -2.107   2.177  -0.165  0.00  0.00    +0.168 HD
ENDBRANCH   2   7
ENDBRANCH   1   2
BRANCH   1  15
ATOM     15  C   UNL     1      -0.018  -3.259  -4.667  0.00  0.00    +0.105 C 
BRANCH  15  16
ATOM     16  C   UNL     1      -0.108  -2.629  -6.033  0.00  0.00    -0.010 A 
ATOM     17  C   UNL     1      -1.341  -2.444  -6.629  0.00  0.00    +0.006 A 
ATOM     18  C   UNL     1      -1.424  -1.866  -7.882  0.00  0.00    +0.000 A 
ATOM     19  C   UNL     1      -0.273  -1.474  -8.540  0.00  0.00    +0.001 A 
ATOM     20  C   UNL     1       0.961  -1.658  -7.945  0.00  0.00    +0.020 A 
ATOM     21  C   UNL     1       1.044  -2.231  -6.689  0.00  0.00    +0.046 A 
ATOM     22 CL   UNL     1       2.592  -2.457  -5.938  0.00  0.00    -0.083 Cl
ENDBRANCH  15  16
BRANCH  15  23
ATOM     23  N   UNL     1      -1.196  -4.107  -4.440  0.00  0.00    -0.290 NA
ATOM     24  C   UNL     1      -1.267  -4.545  -3.038  0.00  0.00    +0.113 C 
ATOM     25  C   UNL     1      -2.537  -5.375  -2.833  0.00  0.00    +0.175 C 
ATOM     26  O   UNL     1      -2.535  -6.476  -3.746  0.00  0.00    -0.377 OA
ATOM     27  C   UNL     1      -2.467  -6.084  -5.120  0.00  0.00    +0.175 C 
ATOM     28  C   UNL     1      -1.196  -5.262  -5.348  0.00  0.00    +0.113 C 
ENDBRANCH  15  23
ENDBRANCH   1  15
TORSDOF 5
