REMARK  Name = ZINC65074730
REMARK  5 active torsions:
REMARK  status: ('A' for Active; 'I' for Inactive)
REMARK    1  A    between atoms: C_1  and  C_2
REMARK    2  A    between atoms: C_7  and  S_8
REMARK    3  A    between atoms: S_8  and  N_11
REMARK    4  A    between atoms: N_22  and  C_23
REMARK    5  A    between atoms: C_23  and  C_24
REMARK                            x       y       z     vdW  Elec       q    Type
REMARK                         _______ _______ _______ _____ _____    ______ ____
ROOT
ATOM      1  N   UNL     1       1.449   1.014   2.806  0.00  0.00    -0.176 NA
ATOM      2  C   UNL     1       2.647   0.405   3.400  0.00  0.00    +0.111 C 
ATOM      3  C   UNL     1       3.188   1.338   4.487  0.00  0.00    +0.047 C 
ATOM      4  C   UNL     1       3.421   2.729   3.891  0.00  0.00    +0.075 C 
ATOM      5  C   UNL     1       2.091   3.296   3.386  0.00  0.00    +0.047 C 
ATOM      6  C   UNL     1       1.540   2.383   2.281  0.00  0.00    +0.111 C 
ATOM      7  C   UNL     1       3.987   3.638   4.945  0.00  0.00    +0.089 C 
ATOM      8  N   UNL     1       5.221   3.974   5.001  0.00  0.00    -0.374 N 
ATOM      9  C   UNL     1       6.228   3.526   4.045  0.00  0.00    +0.129 C 
ATOM     10  C   UNL     1       5.711   2.314   3.267  0.00  0.00    +0.102 C 
ATOM     11  N   UNL     1       4.361   2.621   2.765  0.00  0.00    -0.303 NA
ATOM     12  N   UNL     1       3.137   4.135   5.897  0.00  0.00    -0.329 N 
ATOM     13  H   UNL     1       4.054   1.925   2.103  0.00  0.00    +0.123 HD
ATOM     14  H   UNL     1       2.197   3.897   5.879  0.00  0.00    +0.147 HD
ATOM     15  H   UNL     1       5.502   4.561   5.720  0.00  0.00    +0.161 HD
ENDROOT
BRANCH   1  16
ATOM     16  S   UNL     1       0.026   0.171   2.726  0.00  0.00    +0.061 S 
ATOM     17  O   UNL     1      -1.014   1.137   2.645  0.00  0.00    -0.153 OA
ATOM     18  O   UNL     1       0.076  -0.810   3.753  0.00  0.00    -0.153 OA
BRANCH  16  25
ATOM     19  C   UNL     1      -0.018   1.503   0.010  0.00  0.00    +0.046 C 
ATOM     20  C   UNL     1       0.002  -0.004   0.002  0.00  0.00    -0.024 A 
ATOM     21  C   UNL     1       0.006  -0.689  -1.199  0.00  0.00    +0.005 A 
ATOM     22  C   UNL     1       0.025  -2.071  -1.207  0.00  0.00    +0.000 A 
ATOM     23  C   UNL     1       0.040  -2.768  -0.013  0.00  0.00    +0.002 A 
ATOM     24  C   UNL     1       0.037  -2.084   1.188  0.00  0.00    +0.029 A 
ATOM     25  C   UNL     1       0.023  -0.702   1.195  0.00  0.00    +0.108 A 
ENDBRANCH  16  25
ENDBRANCH   1  16
BRANCH  12  26
ATOM     26  C   UNL     1       3.647   5.025   6.943  0.00  0.00    +0.138 C 
BRANCH  26  27
ATOM     27  C   UNL     1       2.518   5.426   7.856  0.00  0.00    -0.029 A 
ATOM     28  C   UNL     1       1.770   6.554   7.575  0.00  0.00    +0.008 A 
ATOM     29  C   UNL     1       0.734   6.924   8.412  0.00  0.00    +0.040 A 
ATOM     30  C   UNL     1       0.444   6.163   9.532  0.00  0.00    +0.142 A 
ATOM     31  C   UNL     1       1.193   5.032   9.813  0.00  0.00    +0.076 A 
ATOM     32  C   UNL     1       2.227   4.662   8.971  0.00  0.00    +0.028 A 
ATOM     33 CL   UNL     1       0.832   4.077  11.216  0.00  0.00    -0.081 Cl
ATOM     34  F   UNL     1      -0.569   6.524  10.350  0.00  0.00    -0.204 F 
ENDBRANCH  26  27
ENDBRANCH  12  26
TORSDOF 4
