REMARK  Name = ZINC03254229
REMARK  10 active torsions:
REMARK  status: ('A' for Active; 'I' for Inactive)
REMARK    1  A    between atoms: C_1  and  C_2
REMARK    2  A    between atoms: C_3  and  C_9
REMARK    3  A    between atoms: C_4  and  O_8
REMARK    4  A    between atoms: C_9  and  C_10
REMARK    5  A    between atoms: C_9  and  C_18
REMARK    6  A    between atoms: C_11  and  C_17
REMARK    7  A    between atoms: C_15  and  O_16
REMARK    8  A    between atoms: C_24  and  O_26
REMARK    9  A    between atoms: O_26  and  C_27
REMARK   10  A    between atoms: C_27  and  C_28
REMARK                            x       y       z     vdW  Elec       q    Type
REMARK                         _______ _______ _______ _____ _____    ______ ____
ROOT
ATOM      1  C   UNL     1      -0.029  -0.328  -2.520  0.00  0.00    +0.072 C 
ENDROOT
BRANCH   1   4
ATOM      2  C   UNL     1       1.285   0.974   0.001  0.00  0.00    +0.065 C 
ATOM      3  C   UNL     1       0.444  -0.276  -0.015  0.00  0.00    +0.040 A 
ATOM      4  C   UNL     1      -0.124  -0.840  -1.106  0.00  0.00    +0.044 A 
ATOM      5  C   UNL     1      -0.818  -1.985  -0.687  0.00  0.00    +0.235 A 
ATOM      6  N   UNL     1      -0.668  -2.100   0.611  0.00  0.00    -0.136 NA
ATOM      7  N   UNL     1       0.128  -1.036   1.054  0.00  0.00    -0.278 N 
ATOM      8  H   UNL     1       0.402  -0.873   1.970  0.00  0.00    +0.189 HD
BRANCH   5   9
ATOM      9  O   UNL     1      -1.523  -2.829  -1.487  0.00  0.00    -0.491 OA
ATOM     10  H   UNL     1      -1.024  -3.604  -1.778  0.00  0.00    +0.294 HD
ENDBRANCH   5   9
ENDBRANCH   1   4
BRANCH   1  11
ATOM     11  C   UNL     1       1.273  -0.778  -3.131  0.00  0.00    +0.044 A 
ATOM     12  C   UNL     1       2.253   0.028  -3.600  0.00  0.00    +0.040 A 
ATOM     13  N   UNL     1       3.248  -0.758  -4.062  0.00  0.00    -0.278 N 
ATOM     14  H   UNL     1       4.080  -0.451  -4.457  0.00  0.00    +0.189 HD
ATOM     15  N   UNL     1       2.870  -2.093  -3.871  0.00  0.00    -0.136 NA
ATOM     16  C   UNL     1       1.687  -2.107  -3.307  0.00  0.00    +0.235 A 
ATOM     17  C   UNL     1       2.235   1.535  -3.607  0.00  0.00    +0.065 C 
BRANCH  16  18
ATOM     18  O   UNL     1       0.982  -3.216  -2.957  0.00  0.00    -0.491 OA
ATOM     19  H   UNL     1       0.400  -3.549  -3.655  0.00  0.00    +0.294 HD
ENDBRANCH  16  18
ENDBRANCH   1  11
BRANCH   1  20
ATOM     20  C   UNL     1      -1.196  -0.881  -3.342  0.00  0.00    +0.057 C 
ATOM     21  C   UNL     1      -2.489  -0.606  -2.622  0.00  0.00    -0.020 C 
ATOM     22  C   UNL     1      -3.106   0.560  -2.779  0.00  0.00    -0.004 C 
ATOM     23  C   UNL     1      -2.522   1.583  -3.662  0.00  0.00    -0.002 C 
ATOM     24  C   UNL     1      -1.627   1.230  -4.577  0.00  0.00    +0.005 C 
ATOM     25  C   UNL     1      -1.213  -0.209  -4.714  0.00  0.00    +0.149 C 
BRANCH  25  26
ATOM     26  O   UNL     1       0.093  -0.272  -5.290  0.00  0.00    -0.368 OA
BRANCH  26  27
ATOM     27  C   UNL     1       0.097  -0.324  -6.718  0.00  0.00    +0.187 C 
BRANCH  27  28
ATOM     28  C   UNL     1       1.519  -0.388  -7.215  0.00  0.00    -0.007 C 
ATOM     29  C   UNL     1       1.845  -1.236  -8.158  0.00  0.00    +0.006 C 
ENDBRANCH  27  28
ENDBRANCH  26  27
ENDBRANCH  25  26
ENDBRANCH   1  20
TORSDOF 8
