REMARK  Name = ZINC63899814
REMARK  10 active torsions:
REMARK  status: ('A' for Active; 'I' for Inactive)
REMARK    1  A    between atoms: C_1  and  C_2
REMARK    2  A    between atoms: C_7  and  C_15
REMARK    3  A    between atoms: C_13  and  C_14
REMARK    4  A    between atoms: C_15  and  N_16
REMARK    5  A    between atoms: N_16  and  S_17
REMARK    6  A    between atoms: S_17  and  C_20
REMARK    7  A    between atoms: C_23  and  O_28
REMARK    8  A    between atoms: C_25  and  O_26
REMARK    9  A    between atoms: O_26  and  C_27
REMARK   10  A    between atoms: O_28  and  C_29
REMARK                            x       y       z     vdW  Elec       q    Type
REMARK                         _______ _______ _______ _____ _____    ______ ____
ROOT
ATOM      1  C   UNL     1      -1.146  -5.794   1.313  0.00  0.00    +0.122 C 
ENDROOT
BRANCH   1   8
ATOM      2  C   UNL     1      -0.018   1.503   0.010  0.00  0.00    +0.044 C 
ATOM      3  C   UNL     1       0.002  -0.004   0.002  0.00  0.00    -0.046 A 
ATOM      4  C   UNL     1       0.005  -0.667  -1.226  0.00  0.00    +0.004 A 
ATOM      5  C   UNL     1       0.023  -2.023  -1.297  0.00  0.00    +0.010 A 
ATOM      6  C   UNL     1       0.040  -2.795  -0.054  0.00  0.00    -0.007 A 
ATOM      7  C   UNL     1       0.059  -4.158  -0.077  0.00  0.00    -0.003 C 
ATOM      8  C   UNL     1       0.076  -4.876   1.258  0.00  0.00    +0.114 C 
ATOM      9  C   UNL     1       0.071  -4.022   2.506  0.00  0.00    +0.225 C 
ATOM     10  O   UNL     1       0.085  -4.546   3.604  0.00  0.00    -0.275 OA
ATOM     11  N   UNL     1       0.052  -2.704   2.399  0.00  0.00    -0.284 N 
ATOM     12  C   UNL     1       0.037  -2.069   1.228  0.00  0.00    +0.043 A 
ATOM     13  C   UNL     1       0.022  -0.662   1.190  0.00  0.00    -0.026 A 
ATOM     14  C   UNL     1       0.023   0.120   2.478  0.00  0.00    +0.046 C 
ATOM     15  H   UNL     1       0.049  -2.175   3.212  0.00  0.00    +0.155 HD
ENDBRANCH   1   8
BRANCH   1  16
ATOM     16  N   UNL     1      -1.101  -6.594   2.539  0.00  0.00    -0.189 NA
ATOM     17  H   UNL     1      -0.278  -6.654   3.049  0.00  0.00    +0.148 HD
BRANCH  16  18
ATOM     18  S   UNL     1      -2.454  -7.397   3.054  0.00  0.00    +0.062 S 
ATOM     19  O   UNL     1      -2.088  -8.093   4.238  0.00  0.00    -0.153 OA
ATOM     20  O   UNL     1      -3.521  -6.458   3.022  0.00  0.00    -0.153 OA
BRANCH  18  21
ATOM     21  C   UNL     1      -2.826  -8.622   1.844  0.00  0.00    +0.147 A 
ATOM     22  C   UNL     1      -2.753  -9.963   2.173  0.00  0.00    +0.036 A 
ATOM     23  C   UNL     1      -3.043 -10.925   1.226  0.00  0.00    +0.048 A 
ATOM     24  C   UNL     1      -3.410 -10.549  -0.059  0.00  0.00    +0.124 A 
ATOM     25  C   UNL     1      -3.484  -9.205  -0.391  0.00  0.00    +0.093 A 
ATOM     26  C   UNL     1      -3.197  -8.241   0.562  0.00  0.00    +0.150 A 
BRANCH  26  27
ATOM     27  O   UNL     1      -3.275  -6.922   0.241  0.00  0.00    -0.493 OA
ATOM     28  C   UNL     1      -3.663  -6.602  -1.096  0.00  0.00    +0.277 C 
ENDBRANCH  26  27
BRANCH  24  29
ATOM     29  O   UNL     1      -3.695 -11.496  -0.990  0.00  0.00    -0.495 OA
ATOM     30  C   UNL     1      -3.598 -12.861  -0.578  0.00  0.00    +0.277 C 
ENDBRANCH  24  29
ENDBRANCH  18  21
ENDBRANCH  16  18
ENDBRANCH   1  16
TORSDOF 6
