REMARK  Name = ZINC42661567
REMARK  7 active torsions:
REMARK  status: ('A' for Active; 'I' for Inactive)
REMARK    1  A    between atoms: C_1  and  S_2
REMARK    2  A    between atoms: S_2  and  C_3
REMARK    3  A    between atoms: C_6  and  N_25
REMARK    4  A    between atoms: C_7  and  C_9
REMARK    5  A    between atoms: N_11  and  C_12
REMARK    6  A    between atoms: C_15  and  N_18
REMARK    7  A    between atoms: N_21  and  C_22
REMARK                            x       y       z     vdW  Elec       q    Type
REMARK                         _______ _______ _______ _____ _____    ______ ____
ROOT
ATOM      1  C   UNL     1      -1.278  -3.828   0.510  0.00  0.00    +0.250 C 
ATOM      2  O   UNL     1      -0.761  -4.729   1.142  0.00  0.00    -0.270 OA
ATOM      3  N   UNL     1      -2.287  -4.097  -0.343  0.00  0.00    -0.281 N 
ATOM      4  H   UNL     1      -2.657  -3.390  -0.894  0.00  0.00    +0.155 HD
ENDROOT
BRANCH   1   9
ATOM      5  C   UNL     1       0.065  -0.403  -0.272  0.00  0.00    +0.008 A 
ATOM      6  C   UNL     1       0.096   0.167   0.997  0.00  0.00    +0.017 A 
ATOM      7  C   UNL     1      -0.318  -0.560   2.096  0.00  0.00    +0.034 A 
ATOM      8  C   UNL     1      -0.765  -1.857   1.944  0.00  0.00    +0.138 A 
ATOM      9  C   UNL     1      -0.800  -2.439   0.675  0.00  0.00    +0.068 A 
ATOM     10  C   UNL     1      -0.387  -1.704  -0.436  0.00  0.00    +0.030 A 
BRANCH   8  11
ATOM     11  N   UNL     1      -1.207  -2.631   3.125  0.00  0.00    +0.057 N 
ATOM     12  O   UNL     1      -1.073  -2.170   4.235  0.00  0.00    -0.126 OA
ATOM     13  O   UNL     1      -1.702  -3.725   2.981  0.00  0.00    -0.126 OA
ENDBRANCH   8  11
BRANCH   5  15
ATOM     14  C   UNL     1       1.085   2.129  -0.971  0.00  0.00    +0.090 C 
ATOM     15  S   UNL     1       0.595   0.529  -1.670  0.00  0.00    -0.129 S 
ENDBRANCH   5  15
ENDBRANCH   1   9
BRANCH   3  16
ATOM     16  C   UNL     1      -2.802  -5.396  -0.431  0.00  0.00    +0.034 A 
ATOM     17  C   UNL     1      -4.157  -5.591  -0.666  0.00  0.00    +0.025 A 
ATOM     18  C   UNL     1      -4.664  -6.872  -0.754  0.00  0.00    +0.025 A 
ATOM     19  C   UNL     1      -3.820  -7.965  -0.607  0.00  0.00    +0.035 A 
ATOM     20  C   UNL     1      -2.465  -7.769  -0.373  0.00  0.00    +0.025 A 
ATOM     21  C   UNL     1      -1.956  -6.489  -0.291  0.00  0.00    +0.025 A 
BRANCH  19  22
ATOM     22  N   UNL     1      -4.335  -9.265  -0.696  0.00  0.00    -0.269 N 
ATOM     23  C   UNL     1      -3.817 -10.248   0.067  0.00  0.00    +0.304 C 
ATOM     24  O   UNL     1      -2.974  -9.989   0.904  0.00  0.00    -0.253 OA
ATOM     25  N   UNL     1      -4.234 -11.519  -0.098  0.00  0.00    -0.296 N 
ATOM     26  H   UNL     1      -5.064  -9.457  -1.306  0.00  0.00    +0.156 HD
ATOM     27  H   UNL     1      -4.907 -11.726  -0.765  0.00  0.00    +0.151 HD
BRANCH  25  28
ATOM     28  C   UNL     1      -3.672 -12.588   0.732  0.00  0.00    +0.075 C 
ATOM     29  C   UNL     1      -3.296 -13.898   0.037  0.00  0.00    +0.024 C 
ATOM     30  C   UNL     1      -4.526 -13.840   0.946  0.00  0.00    +0.024 C 
ENDBRANCH  25  28
ENDBRANCH  19  22
ENDBRANCH   3  16
TORSDOF 6
