REMARK  Name = ZINC06321905
REMARK  14 active torsions:
REMARK  status: ('A' for Active; 'I' for Inactive)
REMARK    1  A    between atoms: C_1  and  C_2
REMARK    2  A    between atoms: C_5  and  C_34
REMARK    3  A    between atoms: C_9  and  C_14
REMARK    4  A    between atoms: C_14  and  N_15
REMARK    5  A    between atoms: N_15  and  C_16
REMARK    6  A    between atoms: N_15  and  C_26
REMARK    7  A    between atoms: C_16  and  C_17
REMARK    8  A    between atoms: C_26  and  N_28
REMARK    9  A    between atoms: N_28  and  C_29
REMARK   10  A    between atoms: C_29  and  C_30
REMARK   11  A    between atoms: C_30  and  C_31
REMARK   12  A    between atoms: C_31  and  N_66
REMARK   13  A    between atoms: C_32  and  N_66
REMARK   14  A    between atoms: C_33  and  N_66
REMARK                            x       y       z     vdW  Elec       q    Type
REMARK                         _______ _______ _______ _____ _____    ______ ____
ROOT
ATOM      1  N   UNL     1      -2.834   0.555   1.299  0.00  0.00    -0.304 N 
ENDROOT
BRANCH   1   2
ATOM      2  C   UNL     1      -3.571   1.524   1.879  0.00  0.00    +0.133 C 
ATOM      3  S   UNL     1      -3.856   1.488   3.566  0.00  0.00    -0.019 S 
BRANCH   2   4
ATOM      4  N   UNL     1      -4.082   2.521   1.129  0.00  0.00    -0.326 N 
ATOM      5  H   UNL     1      -3.920   2.541   0.173  0.00  0.00    +0.148 HD
BRANCH   4   6
ATOM      6  C   UNL     1      -4.882   3.574   1.759  0.00  0.00    +0.101 C 
BRANCH   6   7
ATOM      7  C   UNL     1      -5.337   4.574   0.695  0.00  0.00    +0.000 C 
BRANCH   7   8
ATOM      8  C   UNL     1      -6.173   5.674   1.352  0.00  0.00    -0.078 C 
BRANCH   8  11
ATOM      9  C   UNL     1      -7.542   6.007  -0.617  0.00  0.00    -0.097 C 
ATOM     10  C   UNL     1      -7.210   7.824   0.948  0.00  0.00    -0.097 C 
ATOM     11  N   UNL     1      -6.587   6.642   0.315  0.00  0.00    +0.376 N 
ATOM     12  H   UNL     1      -5.758   6.944  -0.210  0.00  0.00    -0.083 HD
ENDBRANCH   8  11
ENDBRANCH   7   8
ENDBRANCH   6   7
ENDBRANCH   4   6
ENDBRANCH   2   4
ENDBRANCH   1   2
BRANCH   1  13
ATOM     13  C   UNL     1      -2.345  -0.571   2.099  0.00  0.00    +0.147 C 
BRANCH  13  22
ATOM     14  C   UNL     1      -2.582  -4.832  -0.884  0.00  0.00    +0.044 C 
ATOM     15  C   UNL     1      -3.785  -4.854   0.024  0.00  0.00    -0.041 A 
ATOM     16  C   UNL     1      -4.683  -5.881  -0.051  0.00  0.00    +0.004 A 
ATOM     17  C   UNL     1      -5.794  -5.910   0.780  0.00  0.00    +0.005 A 
ATOM     18  C   UNL     1      -6.014  -4.904   1.696  0.00  0.00    -0.026 A 
ATOM     19  C   UNL     1      -5.114  -3.847   1.790  0.00  0.00    +0.052 A 
ATOM     20  C   UNL     1      -3.988  -3.822   0.945  0.00  0.00    +0.002 A 
ATOM     21  C   UNL     1      -3.046  -2.705   1.052  0.00  0.00    +0.020 A 
ATOM     22  C   UNL     1      -3.295  -1.733   1.964  0.00  0.00    +0.035 A 
ATOM     23  C   UNL     1      -4.436  -1.809   2.791  0.00  0.00    +0.254 A 
ATOM     24  O   UNL     1      -4.638  -0.927   3.607  0.00  0.00    -0.268 OA
ATOM     25  N   UNL     1      -5.309  -2.828   2.697  0.00  0.00    -0.322 N 
ATOM     26  H   UNL     1      -6.085  -2.847   3.278  0.00  0.00    +0.169 HD
ATOM     27  C   UNL     1      -7.225  -4.947   2.591  0.00  0.00    +0.046 C 
ENDBRANCH  13  22
ENDBRANCH   1  13
BRANCH   1  28
ATOM     28  C   UNL     1      -2.523   0.627  -0.130  0.00  0.00    +0.142 C 
BRANCH  28  29
ATOM     29  C   UNL     1      -1.258   1.422  -0.330  0.00  0.00    -0.026 A 
ATOM     30  C   UNL     1      -0.029   0.796  -0.242  0.00  0.00    +0.009 A 
ATOM     31  C   UNL     1       1.134   1.520  -0.429  0.00  0.00    +0.050 A 
ATOM     32  C   UNL     1       1.069   2.877  -0.701  0.00  0.00    +0.166 A 
ATOM     33  C   UNL     1      -0.169   3.509  -0.784  0.00  0.00    +0.167 A 
ATOM     34  C   UNL     1      -1.330   2.777  -0.594  0.00  0.00    +0.054 A 
ATOM     35  O   UNL     1       0.033   4.831  -1.058  0.00  0.00    -0.453 OA
ATOM     36  C   UNL     1       1.385   4.920  -1.545  0.00  0.00    +0.466 C 
ATOM     37  O   UNL     1       2.047   3.803  -0.923  0.00  0.00    -0.453 OA
ENDBRANCH  28  29
ENDBRANCH   1  28
TORSDOF 10
