REMARK  Name = ZINC63374648
REMARK  11 active torsions:
REMARK  status: ('A' for Active; 'I' for Inactive)
REMARK    1  A    between atoms: C_1  and  C_2
REMARK    2  A    between atoms: C_2  and  C_3
REMARK    3  A    between atoms: C_2  and  C_4
REMARK    4  A    between atoms: C_4  and  C_5
REMARK    5  A    between atoms: C_5  and  N_6
REMARK    6  A    between atoms: C_7  and  C_9
REMARK    7  A    between atoms: C_9  and  C_11
REMARK    8  A    between atoms: C_9  and  N_14
REMARK    9  A    between atoms: C_11  and  C_12
REMARK   10  A    between atoms: C_11  and  C_13
REMARK   11  A    between atoms: C_17  and  C_33
REMARK                            x       y       z     vdW  Elec       q    Type
REMARK                         _______ _______ _______ _____ _____    ______ ____
ROOT
ATOM      1  N   UNL     1       0.083  -0.715   7.318  0.00  0.00    -0.212 N 
ATOM      2  C   UNL     1       0.543  -0.037   8.390  0.00  0.00    +0.249 C 
ATOM      3  O   UNL     1       1.655   0.419   8.544  0.00  0.00    -0.273 OA
ATOM      4  C   UNL     1      -0.617   0.036   9.358  0.00  0.00    +0.136 C 
ATOM      5  C   UNL     1      -0.260  -0.684  10.664  0.00  0.00    +0.139 C 
ATOM      6  C   UNL     1      -1.581  -1.046  11.332  0.00  0.00    -0.034 C 
ATOM      7  C   UNL     1      -1.557  -0.484  12.537  0.00  0.00    -0.001 A 
ATOM      8  C   UNL     1      -2.513  -0.528  13.654  0.00  0.00    +0.010 A 
ATOM      9  C   UNL     1      -2.174   0.184  14.761  0.00  0.00    +0.001 A 
ATOM     10  C   UNL     1      -0.993   0.927  14.866  0.00  0.00    +0.002 A 
ATOM     11  C   UNL     1      -0.056   1.019  13.890  0.00  0.00    +0.026 A 
ATOM     12  C   UNL     1      -0.299   0.309  12.677  0.00  0.00    +0.043 A 
ATOM     13  N   UNL     1       0.435   0.209  11.594  0.00  0.00    -0.375 N 
ATOM     14  C   UNL     1      -2.668  -1.836  10.644  0.00  0.00    +0.052 C 
ATOM     15  C   UNL     1      -2.948  -1.144   9.295  0.00  0.00    +0.115 C 
ATOM     16  N   UNL     1      -1.664  -0.773   8.694  0.00  0.00    -0.269 N 
ATOM     17  C   UNL     1      -1.188  -1.104   7.487  0.00  0.00    +0.313 C 
ATOM     18  O   UNL     1      -1.834  -1.692   6.641  0.00  0.00    -0.252 OA
ATOM     19  C   UNL     1      -1.072   1.478   9.597  0.00  0.00    +0.044 C 
ATOM     20  H   UNL     1       1.284   0.648  11.430  0.00  0.00    +0.160 HD
ENDROOT
BRANCH   1  21
ATOM     21  C   UNL     1       0.874  -0.987   6.115  0.00  0.00    +0.174 C 
BRANCH  21  23
ATOM     22  N   UNL     1       0.913  -0.106   3.804  0.00  0.00    -0.314 N 
ATOM     23  C   UNL     1       0.202  -0.362   4.920  0.00  0.00    +0.234 C 
ATOM     24  O   UNL     1      -0.980  -0.090   4.962  0.00  0.00    -0.274 OA
ATOM     25  H   UNL     1       1.871  -0.257   3.795  0.00  0.00    +0.149 HD
BRANCH  22  26
ATOM     26  C   UNL     1       0.239   0.402   2.606  0.00  0.00    +0.104 C 
BRANCH  26  27
ATOM     27  C   UNL     1       1.267   0.607   1.492  0.00  0.00    +0.022 C 
BRANCH  27  29
ATOM     28  C   UNL     1      -0.007   2.527   0.527  0.00  0.00    +0.007 C 
ATOM     29  C   UNL     1       0.564   1.137   0.241  0.00  0.00    -0.016 C 
ATOM     30  C   UNL     1       1.567   1.224  -0.911  0.00  0.00    +0.007 C 
ENDBRANCH  27  29
ENDBRANCH  26  27
ENDBRANCH  22  26
ENDBRANCH  21  23
BRANCH  21  31
ATOM     31  C   UNL     1       0.982  -2.499   5.907  0.00  0.00    +0.013 C 
ATOM     32  C   UNL     1       1.895  -2.786   4.713  0.00  0.00    +0.009 C 
ATOM     33  C   UNL     1       1.567  -3.147   7.164  0.00  0.00    +0.009 C 
ENDBRANCH  21  31
ENDBRANCH   1  21
TORSDOF 6
