REMARK  Name = ZINC11459307
REMARK  13 active torsions:
REMARK  status: ('A' for Active; 'I' for Inactive)
REMARK    1  A    between atoms: C_1  and  C_2
REMARK    2  A    between atoms: C_2  and  C_3
REMARK    3  A    between atoms: C_2  and  C_4
REMARK    4  A    between atoms: C_4  and  N_5
REMARK    5  A    between atoms: C_6  and  C_8
REMARK    6  A    between atoms: C_13  and  N_14
REMARK    7  A    between atoms: C_15  and  C_17
REMARK    8  A    between atoms: C_17  and  O_18
REMARK    9  A    between atoms: O_18  and  C_19
REMARK   10  A    between atoms: C_19  and  C_21
REMARK   11  A    between atoms: C_24  and  N_29
REMARK   12  A    between atoms: C_26  and  O_27
REMARK   13  A    between atoms: O_27  and  C_28
REMARK                            x       y       z     vdW  Elec       q    Type
REMARK                         _______ _______ _______ _____ _____    ______ ____
ROOT
ATOM      1  N   UNL     1      -3.809   2.931   0.221  0.00  0.00    -0.282 N 
ATOM      2  C   UNL     1      -5.002   3.526   0.425  0.00  0.00    +0.255 C 
ATOM      3  O   UNL     1      -5.992   2.851   0.611  0.00  0.00    -0.272 OA
ATOM      4  H   UNL     1      -3.005   3.468   0.149  0.00  0.00    +0.155 HD
ENDROOT
BRANCH   1  10
ATOM      5  C   UNL     1      -2.616   0.860   0.618  0.00  0.00    +0.058 A 
ATOM      6  C   UNL     1      -2.548  -0.530   0.500  0.00  0.00    +0.015 A 
ATOM      7  C   UNL     1      -3.579  -1.220  -0.099  0.00  0.00    +0.001 A 
ATOM      8  C   UNL     1      -4.681  -0.541  -0.594  0.00  0.00    +0.002 A 
ATOM      9  C   UNL     1      -4.760   0.833  -0.489  0.00  0.00    +0.024 A 
ATOM     10  C   UNL     1      -3.732   1.544   0.115  0.00  0.00    +0.046 A 
BRANCH   5  12
ATOM     11  N   UNL     1      -0.494   0.937   1.832  0.00  0.00    -0.311 N 
ATOM     12  C   UNL     1      -1.517   1.604   1.262  0.00  0.00    +0.246 C 
ATOM     13  O   UNL     1      -1.534   2.820   1.278  0.00  0.00    -0.270 OA
ATOM     14  H   UNL     1      -0.480  -0.033   1.818  0.00  0.00    +0.149 HD
BRANCH  11  15
ATOM     15  C   UNL     1       0.600   1.677   2.466  0.00  0.00    +0.107 C 
BRANCH  15  17
ATOM     16  C   UNL     1       2.828   1.460   3.575  0.00  0.00    +0.009 C 
ATOM     17  C   UNL     1       1.626   0.689   3.024  0.00  0.00    -0.000 C 
ATOM     18  C   UNL     1       0.987  -0.130   4.147  0.00  0.00    +0.009 C 
ENDBRANCH  15  17
ENDBRANCH  11  15
ENDBRANCH   5  12
ENDBRANCH   1  10
BRANCH   2  19
ATOM     19  C   UNL     1      -5.104   5.029   0.421  0.00  0.00    +0.328 C 
BRANCH  19  20
ATOM     20  O   UNL     1      -6.481   5.422   0.661  0.00  0.00    -0.452 OA
BRANCH  20  21
ATOM     21  C   UNL     1      -6.745   6.743   0.689  0.00  0.00    +0.343 C 
ATOM     22  O   UNL     1      -5.848   7.546   0.517  0.00  0.00    -0.245 OA
BRANCH  21  23
ATOM     23  C   UNL     1      -8.118   7.214   0.927  0.00  0.00    +0.102 A 
ATOM     24  C   UNL     1      -9.152   6.292   1.124  0.00  0.00    +0.040 A 
ATOM     25  C   UNL     1     -10.426   6.729   1.345  0.00  0.00    +0.063 A 
ATOM     26  C   UNL     1     -10.707   8.095   1.376  0.00  0.00    +0.047 A 
ATOM     27  C   UNL     1      -9.691   9.023   1.181  0.00  0.00    +0.070 A 
ATOM     28  C   UNL     1      -8.395   8.590   0.962  0.00  0.00    +0.136 A 
ATOM     29 CL   UNL     1     -11.704   5.580   1.589  0.00  0.00    -0.082 Cl
BRANCH  26  30
ATOM     30  N   UNL     1     -12.008   8.531   1.601  0.00  0.00    -0.357 N 
ATOM     31  H   UNL     1     -12.719   7.885   1.737  0.00  0.00    +0.142 HD
ATOM     32  H   UNL     1     -12.205   9.480   1.623  0.00  0.00    +0.142 HD
ENDBRANCH  26  30
BRANCH  28  33
ATOM     33  O   UNL     1      -7.397   9.491   0.777  0.00  0.00    -0.494 OA
ATOM     34  C   UNL     1      -7.755  10.874   0.826  0.00  0.00    +0.277 C 
ENDBRANCH  28  33
ENDBRANCH  21  23
ENDBRANCH  20  21
ENDBRANCH  19  20
ENDBRANCH   2  19
TORSDOF 10
