REMARK  Name = ZINC23353857
REMARK  6 active torsions:
REMARK  status: ('A' for Active; 'I' for Inactive)
REMARK    1  A    between atoms: C_1  and  N_2
REMARK    2  A    between atoms: C_5  and  C_7
REMARK    3  A    between atoms: C_16  and  N_20
REMARK    4  A    between atoms: N_20  and  C_21
REMARK    5  A    between atoms: C_21  and  C_22
REMARK    6  A    between atoms: C_22  and  N_28
REMARK                            x       y       z     vdW  Elec       q    Type
REMARK                         _______ _______ _______ _____ _____    ______ ____
ROOT
ATOM      1  C   UNL     1      -0.503   1.345   0.057  0.00  0.00    +0.172 C 
ATOM      2  N   UNL     1      -0.334  -0.110   0.058  0.00  0.00    -0.270 N 
ATOM      3  C   UNL     1      -0.250  -0.876  -1.042  0.00  0.00    +0.043 A 
ATOM      4  C   UNL     1      -0.096  -2.158  -0.628  0.00  0.00    +0.004 A 
ATOM      5  C   UNL     1      -0.096  -2.112   0.776  0.00  0.00    +0.151 A 
ATOM      6  N   UNL     1      -0.238  -0.842   1.114  0.00  0.00    -0.166 NA
ATOM      7  C   UNL     1       0.043  -3.341  -1.545  0.00  0.00    +0.023 C 
ATOM      8  C   UNL     1       0.388  -2.825  -2.949  0.00  0.00    -0.067 C 
ATOM      9  C   UNL     1      -0.588  -1.711  -3.337  0.00  0.00    -0.009 C 
ATOM     10  C   UNL     1      -0.309  -0.463  -2.490  0.00  0.00    +0.054 C 
ENDROOT
BRANCH   5  11
ATOM     11  C   UNL     1       0.042  -3.260   1.696  0.00  0.00    +0.267 C 
ATOM     12  O   UNL     1       0.061  -4.393   1.256  0.00  0.00    -0.268 OA
ATOM     13  N   UNL     1       0.145  -3.050   3.024  0.00  0.00    -0.295 N 
ATOM     14  C   UNL     1      -0.007  -1.696   3.556  0.00  0.00    +0.119 C 
ATOM     15  C   UNL     1      -1.270  -1.627   4.423  0.00  0.00    +0.088 C 
ATOM     16  S   UNL     1      -1.140  -2.873   5.740  0.00  0.00    -0.158 S 
ATOM     17  C   UNL     1      -0.804  -4.408   4.825  0.00  0.00    +0.088 C 
ATOM     18  C   UNL     1       0.404  -4.182   3.916  0.00  0.00    +0.119 C 
ENDBRANCH   5  11
BRANCH   8  19
ATOM     19  N   UNL     1       0.282  -3.926  -3.915  0.00  0.00    +0.382 N 
ATOM     20  H   UNL     1       0.864  -4.694  -3.614  0.00  0.00    -0.085 HD
ATOM     21  H   UNL     1      -0.677  -4.234  -3.971  0.00  0.00    -0.085 HD
BRANCH  19  22
ATOM     22  C   UNL     1       0.727  -3.463  -5.236  0.00  0.00    -0.060 C 
BRANCH  22  23
ATOM     23  C   UNL     1       0.514  -4.575  -6.265  0.00  0.00    +0.007 C 
ATOM     24  C   UNL     1       0.994  -4.099  -7.637  0.00  0.00    +0.020 C 
ATOM     25  C   UNL     1       0.199  -2.860  -8.054  0.00  0.00    +0.002 C 
ATOM     26  C   UNL     1      -1.289  -3.209  -8.127  0.00  0.00    +0.000 C 
ATOM     27  C   UNL     1      -1.769  -3.685  -6.755  0.00  0.00    +0.002 C 
ATOM     28  C   UNL     1      -0.974  -4.924  -6.338  0.00  0.00    +0.020 C 
BRANCH  23  29
ATOM     29  N   UNL     1       1.276  -5.765  -5.865  0.00  0.00    -0.294 NA
ATOM     30  C   UNL     1       2.682  -5.425  -5.599  0.00  0.00    +0.113 C 
ATOM     31  C   UNL     1       3.424  -6.679  -5.129  0.00  0.00    +0.175 C 
ATOM     32  O   UNL     1       3.293  -7.703  -6.118  0.00  0.00    -0.377 OA
ATOM     33  C   UNL     1       1.937  -8.060  -6.401  0.00  0.00    +0.175 C 
ATOM     34  C   UNL     1       1.180  -6.820  -6.884  0.00  0.00    +0.113 C 
ENDBRANCH  23  29
ENDBRANCH  22  23
ENDBRANCH  19  22
ENDBRANCH   8  19
TORSDOF 5
