REMARK  Name = ZINC61595040
REMARK  9 active torsions:
REMARK  status: ('A' for Active; 'I' for Inactive)
REMARK    1  A    between atoms: C_1  and  C_2
REMARK    2  A    between atoms: C_2  and  C_3
REMARK    3  A    between atoms: C_2  and  N_4
REMARK    4  A    between atoms: C_10  and  S_11
REMARK    5  A    between atoms: S_11  and  C_12
REMARK    6  A    between atoms: C_12  and  C_13
REMARK    7  A    between atoms: C_13  and  C_15
REMARK    8  A    between atoms: C_13  and  O_22
REMARK    9  A    between atoms: C_18  and  N_21
REMARK                            x       y       z     vdW  Elec       q    Type
REMARK                         _______ _______ _______ _____ _____    ______ ____
ROOT
ATOM      1  C   UNL     1      -2.420  -2.873  -3.248  0.00  0.00    +0.113 C 
ENDROOT
BRANCH   1   2
ATOM      2  S   UNL     1      -1.145  -1.891  -2.411  0.00  0.00    -0.083 S 
BRANCH   2   9
ATOM      3  N   UNL     1      -1.372  -0.511   0.012  0.00  0.00    -0.268 N 
ATOM      4  C   UNL     1      -2.294  -0.272   0.966  0.00  0.00    +0.345 A 
ATOM      5  O   UNL     1      -2.135   0.402   1.969  0.00  0.00    -0.245 OA
ATOM      6  N   UNL     1      -3.426  -0.913   0.609  0.00  0.00    -0.226 N 
ATOM      7  H   UNL     1      -4.261  -0.923   1.102  0.00  0.00    +0.194 HD
ATOM      8  N   UNL     1      -3.173  -1.563  -0.607  0.00  0.00    -0.145 NA
ATOM      9  C   UNL     1      -1.944  -1.308  -0.953  0.00  0.00    +0.192 A 
BRANCH   3  11
ATOM     10  C   UNL     1      -0.019   1.526   0.010  0.00  0.00    +0.031 C 
ATOM     11  C   UNL     1       0.002  -0.004   0.002  0.00  0.00    +0.088 C 
ATOM     12  C   UNL     1       0.742  -0.511   1.242  0.00  0.00    +0.031 C 
ENDBRANCH   3  11
ENDBRANCH   2   9
ENDBRANCH   1   2
BRANCH   1  13
ATOM     13  C   UNL     1      -1.851  -3.446  -4.548  0.00  0.00    +0.155 C 
BRANCH  13  14
ATOM     14  C   UNL     1      -2.943  -4.159  -5.303  0.00  0.00    -0.018 A 
ATOM     15  C   UNL     1      -3.314  -5.439  -4.935  0.00  0.00    +0.008 A 
ATOM     16  C   UNL     1      -4.314  -6.095  -5.625  0.00  0.00    +0.023 A 
ATOM     17  C   UNL     1      -4.948  -5.467  -6.690  0.00  0.00    +0.025 A 
ATOM     18  C   UNL     1      -4.573  -4.181  -7.057  0.00  0.00    +0.023 A 
ATOM     19  C   UNL     1      -3.576  -3.529  -6.359  0.00  0.00    +0.008 A 
BRANCH  17  20
ATOM     20  N   UNL     1      -5.960  -6.128  -7.390  0.00  0.00    -0.358 N 
ATOM     21  H   UNL     1      -6.221  -7.026  -7.133  0.00  0.00    +0.142 HD
ATOM     22  H   UNL     1      -6.402  -5.689  -8.133  0.00  0.00    +0.142 HD
ENDBRANCH  17  20
ENDBRANCH  13  14
BRANCH  13  23
ATOM     23  O   UNL     1      -0.802  -4.368  -4.243  0.00  0.00    -0.386 OA
ATOM     24  H   UNL     1      -1.083  -5.117  -3.700  0.00  0.00    +0.210 HD
ENDBRANCH  13  23
ENDBRANCH   1  13
TORSDOF 7
