REMARK  Name = ZINC09706085
REMARK  11 active torsions:
REMARK  status: ('A' for Active; 'I' for Inactive)
REMARK    1  A    between atoms: C_1  and  C_2
REMARK    2  A    between atoms: C_2  and  CA_3
REMARK    3  A    between atoms: CA_3  and  C_5
REMARK    4  A    between atoms: CA_3  and  N_7
REMARK    5  A    between atoms: C_5  and  O_6
REMARK    6  A    between atoms: C_8  and  C_10
REMARK    7  A    between atoms: N_12  and  C_13
REMARK    8  A    between atoms: C_21  and  C_22
REMARK    9  A    between atoms: N_24  and  C_25
REMARK   10  A    between atoms: C_30  and  O_31
REMARK   11  A    between atoms: O_31  and  C_32
REMARK                            x       y       z     vdW  Elec       q    Type
REMARK                         _______ _______ _______ _____ _____    ______ ____
ROOT
ATOM      1  C   UNL     1      -6.075  -0.602  -0.198  0.00  0.00    +0.093 A 
ATOM      2  C   UNL     1      -7.005   0.518  -0.009  0.00  0.00    +0.042 A 
ATOM      3  C   UNL     1      -8.360   0.612   0.308  0.00  0.00    +0.013 A 
ATOM      4  C   UNL     1      -8.950   1.841   0.409  0.00  0.00    +0.001 A 
ATOM      5  C   UNL     1      -8.208   2.995   0.197  0.00  0.00    +0.004 A 
ATOM      6  C   UNL     1      -6.868   2.923  -0.118  0.00  0.00    +0.047 A 
ATOM      7  C   UNL     1      -6.248   1.683  -0.225  0.00  0.00    +0.138 A 
ATOM      8  O   UNL     1      -4.986   1.308  -0.512  0.00  0.00    -0.448 OA
ATOM      9  C   UNL     1      -4.865  -0.038  -0.497  0.00  0.00    +0.212 A 
ENDROOT
BRANCH   1  12
ATOM     10  C   UNL     1      -7.619  -2.396  -0.315  0.00  0.00    +0.303 C 
ATOM     11  O   UNL     1      -8.481  -1.619  -0.671  0.00  0.00    -0.265 OA
ATOM     12  N   UNL     1      -6.364  -1.956  -0.093  0.00  0.00    -0.274 N 
ATOM     13  H   UNL     1      -5.663  -2.585   0.139  0.00  0.00    +0.155 HD
BRANCH  10  15
ATOM     14  N   UNL     1      -9.203  -4.280  -0.343  0.00  0.00    -0.303 N 
ATOM     15  C   UNL     1      -7.948  -3.840  -0.122  0.00  0.00    +0.300 C 
ATOM     16  O   UNL     1      -7.087  -4.617   0.234  0.00  0.00    -0.265 OA
ATOM     17  H   UNL     1      -9.892  -3.659  -0.628  0.00  0.00    +0.150 HD
BRANCH  14  18
ATOM     18  CA  UNL     1      -9.526  -5.697  -0.154  0.00  0.00    +0.098 C 
BRANCH  18  20
ATOM     19  C   UNL     1      -7.675  -6.430  -1.663  0.00  0.00    +0.006 C 
ATOM     20  C   UNL     1      -9.186  -6.472  -1.428  0.00  0.00    +0.021 C 
ENDBRANCH  18  20
BRANCH  18  21
ATOM     21  C   UNL     1     -11.019  -5.843   0.149  0.00  0.00    +0.178 C 
BRANCH  21  22
ATOM     22  O   UNL     1     -11.778  -5.430  -0.989  0.00  0.00    -0.393 OA
ATOM     23  H   UNL     1     -12.736  -5.497  -0.867  0.00  0.00    +0.209 HD
ENDBRANCH  21  22
ENDBRANCH  18  21
ENDBRANCH  14  18
ENDBRANCH  10  15
ENDBRANCH   1  12
BRANCH   9  24
ATOM     24  C   UNL     1      -3.633  -0.777  -0.766  0.00  0.00    +0.286 C 
ATOM     25  O   UNL     1      -3.652  -1.994  -0.819  0.00  0.00    -0.266 OA
ATOM     26  N   UNL     1      -2.475  -0.113  -0.954  0.00  0.00    -0.276 N 
ATOM     27  H   UNL     1      -2.444   0.850  -0.837  0.00  0.00    +0.155 HD
BRANCH  26  28
ATOM     28  C   UNL     1      -1.318  -0.811  -1.321  0.00  0.00    +0.076 A 
ATOM     29  C   UNL     1      -1.420  -2.034  -1.968  0.00  0.00    +0.027 A 
ATOM     30  C   UNL     1      -0.277  -2.721  -2.329  0.00  0.00    +0.002 A 
ATOM     31  C   UNL     1       0.970  -2.194  -2.046  0.00  0.00    +0.004 A 
ATOM     32  C   UNL     1       1.079  -0.974  -1.405  0.00  0.00    +0.047 A 
ATOM     33  C   UNL     1      -0.062  -0.281  -1.036  0.00  0.00    +0.141 A 
BRANCH  33  34
ATOM     34  O   UNL     1       0.043   0.918  -0.401  0.00  0.00    -0.493 OA
ATOM     35  C   UNL     1       1.363   1.400  -0.142  0.00  0.00    +0.277 C 
ENDBRANCH  33  34
ENDBRANCH  26  28
ENDBRANCH   9  24
TORSDOF 9
