REMARK  Name = ZINC51999001
REMARK  9 active torsions:
REMARK  status: ('A' for Active; 'I' for Inactive)
REMARK    1  A    between atoms: C_1  and  C_2
REMARK    2  A    between atoms: C_2  and  C_3
REMARK    3  A    between atoms: C_2  and  C_4
REMARK    4  A    between atoms: C_2  and  O_5
REMARK    5  A    between atoms: O_5  and  C_6
REMARK    6  A    between atoms: C_7  and  N_22
REMARK    7  A    between atoms: C_10  and  N_12
REMARK    8  A    between atoms: N_12  and  C_13
REMARK    9  A    between atoms: C_19  and  O_21
REMARK                            x       y       z     vdW  Elec       q    Type
REMARK                         _______ _______ _______ _____ _____    ______ ____
ROOT
ATOM      1  C   UNL     1       1.963  -0.082  -1.338  0.00  0.00    +0.238 A 
ATOM      2  C   UNL     1       2.667  -0.494  -2.467  0.00  0.00    +0.087 A 
ATOM      3  C   UNL     1       3.989  -0.095  -2.625  0.00  0.00    +0.031 A 
ATOM      4  C   UNL     1       4.560   0.703  -1.646  0.00  0.00    +0.045 A 
ATOM      5  C   UNL     1       3.800   1.077  -0.546  0.00  0.00    +0.123 A 
ATOM      6  N   UNL     1       2.540   0.684  -0.427  0.00  0.00    -0.197 NA
ENDROOT
BRANCH   2   7
ATOM      7  N   UNL     1       2.049  -1.303  -3.433  0.00  0.00    -0.354 N 
ATOM      8  H   UNL     1       1.126  -1.578  -3.317  0.00  0.00    +0.142 HD
ATOM      9  H   UNL     1       2.544  -1.587  -4.218  0.00  0.00    +0.142 HD
ENDBRANCH   2   7
BRANCH   5  10
ATOM     10  N   UNL     1       4.367   1.879   0.442  0.00  0.00    -0.324 N 
ATOM     11  H   UNL     1       3.841   2.144   1.213  0.00  0.00    +0.148 HD
BRANCH  10  12
ATOM     12  C   UNL     1       5.757   2.322   0.317  0.00  0.00    +0.100 C 
ATOM     13  C   UNL     1       6.689   1.240   0.866  0.00  0.00    +0.025 C 
ATOM     14  C   UNL     1       8.142   1.703   0.735  0.00  0.00    +0.002 C 
ATOM     15  C   UNL     1       8.338   2.996   1.529  0.00  0.00    +0.003 C 
ATOM     16  C   UNL     1       7.406   4.079   0.979  0.00  0.00    +0.033 C 
ATOM     17  C   UNL     1       5.954   3.615   1.110  0.00  0.00    +0.135 C 
BRANCH  17  18
ATOM     18  O   UNL     1       5.084   4.626   0.597  0.00  0.00    -0.390 OA
ATOM     19  H   UNL     1       5.155   5.475   1.054  0.00  0.00    +0.210 HD
ENDBRANCH  17  18
ENDBRANCH  10  12
ENDBRANCH   5  10
BRANCH   1  20
ATOM     20  O   UNL     1       0.671  -0.465  -1.174  0.00  0.00    -0.469 OA
BRANCH  20  22
ATOM     21  C   UNL     1      -0.019   1.526   0.010  0.00  0.00    +0.055 C 
ATOM     22  C   UNL     1       0.002  -0.004   0.002  0.00  0.00    +0.104 C 
ATOM     23  C   UNL     1       0.742  -0.511   1.242  0.00  0.00    +0.055 C 
ATOM     24  C   UNL     1      -1.433  -0.534   0.013  0.00  0.00    +0.055 C 
ENDBRANCH  20  22
ENDBRANCH   1  20
TORSDOF 6
