REMARK  Name = ZINC64020200
REMARK  10 active torsions:
REMARK  status: ('A' for Active; 'I' for Inactive)
REMARK    1  A    between atoms: CG1_1  and  CB_2
REMARK    2  A    between atoms: CB_2  and  CG2_3
REMARK    3  A    between atoms: CB_2  and  CA_4
REMARK    4  A    between atoms: CA_4  and  C_6
REMARK    5  A    between atoms: CA_4  and  N_9
REMARK    6  A    between atoms: C_10  and  C_12
REMARK    7  A    between atoms: C_12  and  C_14
REMARK    8  A    between atoms: C_12  and  N_24
REMARK    9  A    between atoms: C_14  and  C_15
REMARK   10  A    between atoms: C_25  and  O_36
REMARK                            x       y       z     vdW  Elec       q    Type
REMARK                         _______ _______ _______ _____ _____    ______ ____
ROOT
ATOM      1  C   UNK A   0      -3.834  -0.480  -2.968  0.00  0.00    +0.170 C 
ENDROOT
BRANCH   1   2
ATOM      2  N   UNK A   0      -4.920  -1.422  -3.249  0.00  0.00    -0.244 N 
ATOM      3  C   UNK A   0      -4.895  -2.200  -4.488  0.00  0.00    +0.300 C 
ATOM      4  N   UNK A   0      -5.504  -3.518  -4.275  0.00  0.00    -0.303 N 
ATOM      5  C   UNK A   0      -6.681  -3.600  -3.539  0.00  0.00    +0.042 A 
ATOM      6  C   UNK A   0      -7.609  -4.604  -3.759  0.00  0.00    +0.024 A 
ATOM      7  C   UNK A   0      -8.759  -4.652  -2.995  0.00  0.00    +0.002 A 
ATOM      8  C   UNK A   0      -8.991  -3.703  -2.012  0.00  0.00    +0.001 A 
ATOM      9  C   UNK A   0      -8.079  -2.694  -1.783  0.00  0.00    +0.015 A 
ATOM     10  C   UNK A   0      -6.918  -2.631  -2.550  0.00  0.00    +0.058 A 
ATOM     11  C   UNK A   0      -5.922  -1.562  -2.358  0.00  0.00    +0.252 C 
ATOM     12  O   UNK A   0      -6.007  -0.809  -1.407  0.00  0.00    -0.270 OA
ATOM     13  H   UNK A   0      -5.093  -4.317  -4.641  0.00  0.00    +0.150 HD
BRANCH   3  14
ATOM     14  O   UNK A   0      -5.625  -1.503  -5.499  0.00  0.00    -0.359 OA
ATOM     15  H   UNK A   0      -5.651  -1.960  -6.351  0.00  0.00    +0.213 HD
ENDBRANCH   3  14
ENDBRANCH   1   2
BRANCH   1  17
ATOM     16  N   VAL A   1      -2.105  -0.148  -1.230  0.00  0.00    -0.300 N 
ATOM     17  C   UNK A   0      -3.143  -0.876  -1.689  0.00  0.00    +0.235 C 
ATOM     18  O   UNK A   0      -3.520  -1.850  -1.073  0.00  0.00    -0.274 OA
ATOM     19  H   VAL A   1      -1.804   0.631  -1.724  0.00  0.00    +0.150 HD
BRANCH  16  20
ATOM     20  CA  VAL A   1      -1.433  -0.534   0.013  0.00  0.00    +0.189 C 
BRANCH  20  22
ATOM     21  CG1 VAL A   1      -0.019   1.526   0.010  0.00  0.00    +0.009 C 
ATOM     22  CB  VAL A   1       0.002  -0.004   0.002  0.00  0.00    +0.014 C 
ATOM     23  CG2 VAL A   1       0.742  -0.511   1.242  0.00  0.00    +0.009 C 
ENDBRANCH  20  22
BRANCH  20  24
ATOM     24  C   VAL A   1      -2.175   0.051   1.187  0.00  0.00    +0.376 C 
ATOM     25  O   VAL A   1      -2.781   1.102   1.064  0.00  0.00    -0.244 OA
ATOM     26  OXT VAL A   1      -2.171  -0.527   2.260  0.00  0.00    -0.244 OA
ENDBRANCH  20  24
ENDBRANCH  16  20
ENDBRANCH   1  17
BRANCH   1  27
ATOM     27  C   UNK A   0      -4.408   0.931  -2.822  0.00  0.00    +0.065 C 
BRANCH  27  28
ATOM     28  C   UNK A   0      -4.992   1.375  -4.138  0.00  0.00    -0.039 C 
ATOM     29  C   UNK A   0      -6.284   1.285  -4.527  0.00  0.00    -0.001 A 
ATOM     30  C   UNK A   0      -7.487   0.766  -3.865  0.00  0.00    +0.010 A 
ATOM     31  C   UNK A   0      -8.669   0.812  -4.523  0.00  0.00    +0.001 A 
ATOM     32  C   UNK A   0      -8.772   1.341  -5.816  0.00  0.00    +0.002 A 
ATOM     33  C   UNK A   0      -7.712   1.837  -6.489  0.00  0.00    +0.026 A 
ATOM     34  C   UNK A   0      -6.420   1.839  -5.893  0.00  0.00    +0.043 A 
ATOM     35  N   UNK A   0      -5.257   2.255  -6.332  0.00  0.00    -0.380 N 
ATOM     36  C   UNK A   0      -4.252   2.018  -5.290  0.00  0.00    +0.144 C 
ATOM     37  H   UNK A   0      -5.090   2.657  -7.199  0.00  0.00    +0.160 HD
ENDBRANCH  27  28
ENDBRANCH   1  27
TORSDOF 8
