REMARK  Name = ZINC31947373
REMARK  8 active torsions:
REMARK  status: ('A' for Active; 'I' for Inactive)
REMARK    1  A    between atoms: C_1  and  C_2
REMARK    2  A    between atoms: C_2  and  C_3
REMARK    3  A    between atoms: C_2  and  C_4
REMARK    4  A    between atoms: C_2  and  C_5
REMARK    5  A    between atoms: N_16  and  C_23
REMARK    6  A    between atoms: N_19  and  C_20
REMARK    7  A    between atoms: C_20  and  C_21
REMARK    8  A    between atoms: C_21  and  N_22
REMARK                            x       y       z     vdW  Elec       q    Type
REMARK                         _______ _______ _______ _____ _____    ______ ____
ROOT
ATOM      1  C   UNL     1      -3.163   3.714   9.770  0.00  0.00    -0.000 C 
ATOM      2  C   UNL     1      -2.583   2.301   9.880  0.00  0.00    +0.009 C 
ATOM      3  C   UNL     1      -1.486   2.107   8.833  0.00  0.00    +0.037 C 
ATOM      4  C   UNL     1      -2.040   2.487   7.463  0.00  0.00    -0.023 A 
ATOM      5  C   UNL     1      -3.148   3.247   7.354  0.00  0.00    -0.004 A 
ATOM      6  S   UNL     1      -3.414   3.428   5.611  0.00  0.00    -0.073 S 
ATOM      7  C   UNL     1      -2.031   2.478   5.031  0.00  0.00    +0.117 A 
ATOM      8  C   UNL     1      -1.408   2.052   6.216  0.00  0.00    +0.076 A 
ATOM      9  C   UNL     1      -0.236   1.247   6.049  0.00  0.00    +0.264 A 
ATOM     10  O   UNL     1       0.371   0.831   7.021  0.00  0.00    -0.267 OA
ATOM     11  N   UNL     1       0.185   0.956   4.805  0.00  0.00    -0.284 N 
ATOM     12  C   UNL     1      -0.482   1.412   3.707  0.00  0.00    +0.199 A 
ATOM     13  N   UNL     1      -1.559   2.159   3.831  0.00  0.00    -0.208 NA
ATOM     14  N   UNL     1      -0.020   1.094   2.454  0.00  0.00    -0.317 N 
ATOM     15  C   UNL     1       1.383   0.132   4.627  0.00  0.00    +0.155 C 
ATOM     16  C   UNL     1      -3.973   3.814   8.470  0.00  0.00    +0.046 C 
ATOM     17  H   UNL     1       0.881   0.474   2.341  0.00  0.00    +0.149 HD
ENDROOT
BRANCH   1  19
ATOM     18  C   UNL     1      -5.208   2.958  10.991  0.00  0.00    +0.011 C 
ATOM     19  C   UNL     1      -4.077   3.988  10.966  0.00  0.00    -0.035 C 
ATOM     20  C   UNL     1      -3.267   3.888  12.261  0.00  0.00    +0.011 C 
ATOM     21  C   UNL     1      -4.670   5.394  10.844  0.00  0.00    +0.011 C 
ENDBRANCH   1  19
BRANCH  14  22
ATOM     22  C   UNL     1      -0.729   1.579   1.267  0.00  0.00    +0.085 C 
BRANCH  22  23
ATOM     23  C   UNL     1      -0.013   1.086   0.008  0.00  0.00    -0.067 C 
BRANCH  23  24
ATOM     24  N   UNL     1      -0.723   1.572  -1.182  0.00  0.00    +0.379 N 
ATOM     25  H   UNL     1      -0.208   1.218  -2.087  0.00  0.00    -0.090 HD
ATOM     26  H   UNL     1      -0.738   2.672  -1.176  0.00  0.00    -0.090 HD
ATOM     27  H   UNL     1      -1.755   1.192  -1.174  0.00  0.00    -0.090 HD
ENDBRANCH  23  24
ENDBRANCH  22  23
ENDBRANCH  14  22
TORSDOF 4
