REMARK  Name = ZINC00569177
REMARK  4 active torsions:
REMARK  status: ('A' for Active; 'I' for Inactive)
REMARK    1  A    between atoms: C_3  and  C_6
REMARK    2  A    between atoms: N_8  and  N_9
REMARK    3  A    between atoms: C_10  and  C_11
REMARK    4  A    between atoms: C_16  and  O_17
REMARK                            x       y       z     vdW  Elec       q    Type
REMARK                         _______ _______ _______ _____ _____    ______ ____
ROOT
ATOM      1  N   UNL     1       2.290   4.221   0.003  0.00  0.00    -0.187 NA
ATOM      2  C   UNL     1       1.172   3.562   0.010  0.00  0.00    +0.142 C 
ENDROOT
BRANCH   2   3
ATOM      3  C   UNL     1       1.185   2.089   0.002  0.00  0.00    +0.039 A 
ATOM      4  C   UNL     1      -0.017   1.376   0.010  0.00  0.00    +0.033 A 
ATOM      5  C   UNL     1       0.002  -0.004   0.002  0.00  0.00    +0.043 A 
ATOM      6  C   UNL     1       1.208  -0.686  -0.013  0.00  0.00    +0.043 A 
ATOM      7  C   UNL     1       2.404   0.009  -0.021  0.00  0.00    +0.084 A 
ATOM      8  C   UNL     1       2.402   1.395  -0.013  0.00  0.00    +0.144 A 
ATOM      9 CL   UNL     1       3.909  -0.856  -0.039  0.00  0.00    -0.080 Cl
ATOM     10 CL   UNL     1      -1.491  -0.889   0.012  0.00  0.00    -0.083 Cl
BRANCH   8  11
ATOM     11  O   UNL     1       3.576   2.079  -0.021  0.00  0.00    -0.505 OA
ATOM     12  H   UNL     1       3.908   2.281  -0.906  0.00  0.00    +0.292 HD
ENDBRANCH   8  11
ENDBRANCH   2   3
BRANCH   1  15
ATOM     13  C   UNL     1       3.439   6.306   0.003  0.00  0.00    +0.270 C 
ATOM     14  O   UNL     1       4.499   5.707  -0.010  0.00  0.00    -0.268 OA
ATOM     15  N   UNL     1       2.278   5.622   0.011  0.00  0.00    -0.203 N 
ATOM     16  H   UNL     1       1.434   6.100   0.021  0.00  0.00    +0.178 HD
BRANCH  13  19
ATOM     17  C   UNL     1       4.198   9.995   0.017  0.00  0.00    +0.008 A 
ATOM     18  C   UNL     1       4.495   8.655   0.011  0.00  0.00    +0.021 A 
ATOM     19  C   UNL     1       3.426   7.772   0.011  0.00  0.00    +0.075 A 
ATOM     20  S   UNL     1       2.031   8.884   0.031  0.00  0.00    -0.092 S 
ATOM     21  C   UNL     1       2.896  10.386   0.032  0.00  0.00    +0.046 A 
ENDBRANCH  13  19
ENDBRANCH   1  15
TORSDOF 4
