REMARK  Name = ZINC22701159
REMARK  4 active torsions:
REMARK  status: ('A' for Active; 'I' for Inactive)
REMARK    1  A    between atoms: C_6  and  N_7
REMARK    2  A    between atoms: C_11  and  C_13
REMARK    3  A    between atoms: N_15  and  C_16
REMARK    4  A    between atoms: C_16  and  C_17
REMARK                            x       y       z     vdW  Elec       q    Type
REMARK                         _______ _______ _______ _____ _____    ______ ____
ROOT
ATOM      1  C   UNL     1       2.213  -3.593  -1.660  0.00  0.00    +0.251 C 
ATOM      2  O   UNL     1       2.465  -4.348  -0.740  0.00  0.00    -0.270 OA
ATOM      3  N   UNL     1       1.818  -2.330  -1.408  0.00  0.00    -0.304 N 
ATOM      4  H   UNL     1       1.591  -1.648  -2.240  0.00  0.00    +0.149 HD
ENDROOT
BRANCH   1  12
ATOM      5  C   UNL     1       2.800  -5.728  -7.688  0.00  0.00    +0.034 A 
ATOM      6  C   UNL     1       2.434  -4.540  -7.088  0.00  0.00    +0.018 A 
ATOM      7  C   UNL     1       2.424  -4.448  -5.712  0.00  0.00    +0.020 A 
ATOM      8  C   UNL     1       2.780  -5.537  -4.882  0.00  0.00    -0.008 A 
ATOM      9  C   UNL     1       3.150  -6.738  -5.540  0.00  0.00    +0.041 A 
ATOM     10  C   UNL     1       3.155  -6.813  -6.896  0.00  0.00    +0.127 A 
ATOM     11  C   UNL     1       2.721  -5.285  -3.499  0.00  0.00    +0.029 A 
ATOM     12  C   UNL     1       2.341  -4.060  -3.049  0.00  0.00    +0.075 A 
ATOM     13  S   UNL     1       2.026  -3.160  -4.557  0.00  0.00    -0.084 S 
BRANCH  10  14
ATOM     14  N   UNL     1       3.547  -8.084  -7.547  0.00  0.00    +0.056 N 
ATOM     15  O   UNL     1       3.556  -8.168  -8.762  0.00  0.00    -0.126 OA
ATOM     16  O   UNL     1       3.860  -9.045  -6.868  0.00  0.00    -0.126 OA
ENDBRANCH  10  14
ENDBRANCH   1  12
BRANCH   3  17
ATOM     17  C   UNL     1       1.692  -1.865  -0.024  0.00  0.00    +0.181 C 
BRANCH  17  18
ATOM     18  C   UNL     1       1.238  -0.428  -0.017  0.00  0.00    +0.151 A 
ATOM     19  N   UNL     1       0.002  -0.004   0.002  0.00  0.00    -0.133 NA
ATOM     20  N   UNL     1      -0.015   1.283   0.009  0.00  0.00    -0.134 NA
ATOM     21  C   UNL     1       1.206   1.736  -0.000  0.00  0.00    +0.133 A 
ATOM     22  N   UNL     1       2.033   0.665  -0.028  0.00  0.00    -0.314 N 
ATOM     23  C   UNL     1       3.496   0.695  -0.071  0.00  0.00    +0.125 C 
ATOM     24  C   UNL     1       3.998   1.976   0.600  0.00  0.00    +0.022 C 
ATOM     25  C   UNL     1       4.097   3.095  -0.435  0.00  0.00    +0.002 C 
ATOM     26  C   UNL     1       2.725   3.393  -1.034  0.00  0.00    +0.008 C 
ATOM     27  C   UNL     1       1.643   3.177   0.028  0.00  0.00    +0.076 C 
ENDBRANCH  17  18
ENDBRANCH   3  17
TORSDOF 4
