REMARK  Name = ZINC16205988
REMARK  6 active torsions:
REMARK  status: ('A' for Active; 'I' for Inactive)
REMARK    1  A    between atoms: C_1  and  C_2
REMARK    2  A    between atoms: N_6  and  C_14
REMARK    3  A    between atoms: C_14  and  C_15
REMARK    4  A    between atoms: C_15  and  C_16
REMARK    5  A    between atoms: N_18  and  C_19
REMARK    6  A    between atoms: C_23  and  N_25
REMARK                            x       y       z     vdW  Elec       q    Type
REMARK                         _______ _______ _______ _____ _____    ______ ____
ROOT
ATOM      1  C   UNL     1       3.182   0.120  -3.240  0.00  0.00    +0.115 C 
ENDROOT
BRANCH   1   2
ATOM      2  C   UNL     1       3.916  -0.328  -4.477  0.00  0.00    +0.219 C 
ATOM      3  O   UNL     1       4.078  -1.511  -4.691  0.00  0.00    -0.275 OA
ATOM      4  N   UNL     1       4.393   0.586  -5.345  0.00  0.00    -0.285 N 
ATOM      5  H   UNL     1       4.206   1.528  -5.210  0.00  0.00    +0.155 HD
BRANCH   4   6
ATOM      6  C   UNL     1       5.159   0.175  -6.444  0.00  0.00    +0.036 A 
ATOM      7  C   UNL     1       6.209   0.964  -6.893  0.00  0.00    +0.026 A 
ATOM      8  C   UNL     1       6.962   0.557  -7.977  0.00  0.00    +0.042 A 
ATOM      9  C   UNL     1       6.671  -0.637  -8.615  0.00  0.00    +0.154 A 
ATOM     10  C   UNL     1       5.624  -1.426  -8.168  0.00  0.00    +0.163 A 
ATOM     11  C   UNL     1       4.872  -1.025  -7.081  0.00  0.00    +0.059 A 
ATOM     12  F   UNL     1       7.409  -1.033  -9.675  0.00  0.00    -0.203 F 
BRANCH  10  13
ATOM     13  N   UNL     1       5.315  -2.701  -8.852  0.00  0.00    +0.059 N 
ATOM     14  O   UNL     1       4.401  -3.390  -8.462  0.00  0.00    -0.126 OA
ATOM     15  O   UNL     1       5.976  -3.055  -9.800  0.00  0.00    -0.126 OA
ENDBRANCH  10  13
ENDBRANCH   4   6
ENDBRANCH   1   2
BRANCH   1  16
ATOM     16  C   UNL     1       2.749  -1.105  -2.431  0.00  0.00    +0.123 C 
BRANCH  16  21
ATOM     17  C   UNL     1      -0.045   1.519  -0.010  0.00  0.00    +0.062 C 
ATOM     18  C   UNL     1      -0.016  -0.011  -0.014  0.00  0.00    +0.256 C 
ATOM     19  C   UNL     1       0.696  -0.497  -1.251  0.00  0.00    +0.260 C 
ATOM     20  O   UNL     1       0.068  -0.731  -2.262  0.00  0.00    -0.271 OA
ATOM     21  N   UNL     1       2.035  -0.669  -1.228  0.00  0.00    -0.265 N 
ATOM     22  C   UNL     1       2.732  -0.425  -0.036  0.00  0.00    +0.078 A 
ATOM     23  C   UNL     1       4.109  -0.276  -0.039  0.00  0.00    +0.027 A 
ATOM     24  C   UNL     1       4.777  -0.037   1.148  0.00  0.00    +0.002 A 
ATOM     25  C   UNL     1       4.074   0.053   2.336  0.00  0.00    +0.004 A 
ATOM     26  C   UNL     1       2.699  -0.094   2.345  0.00  0.00    +0.047 A 
ATOM     27  C   UNL     1       2.023  -0.332   1.161  0.00  0.00    +0.143 A 
ATOM     28  O   UNL     1       0.672  -0.477   1.150  0.00  0.00    -0.478 OA
ENDBRANCH  16  21
ENDBRANCH   1  16
TORSDOF 5
