REMARK  Name = ZINC37110655
REMARK  7 active torsions:
REMARK  status: ('A' for Active; 'I' for Inactive)
REMARK    1  A    between atoms: C_1  and  C_2
REMARK    2  A    between atoms: C_2  and  C_3
REMARK    3  A    between atoms: C_3  and  C_5
REMARK    4  A    between atoms: C_3  and  N_6
REMARK    5  A    between atoms: N_6  and  C_7
REMARK    6  A    between atoms: C_8  and  C_10
REMARK    7  A    between atoms: C_13  and  C_22
REMARK                            x       y       z     vdW  Elec       q    Type
REMARK                         _______ _______ _______ _____ _____    ______ ____
ROOT
ATOM      1  C   UNL     1       3.797   1.512  -2.508  0.00  0.00    +0.109 C 
ATOM      2  C   UNL     1       3.750   2.390  -3.758  0.00  0.00    +0.039 C 
ATOM      3  C   UNL     1       5.024   3.244  -3.813  0.00  0.00    +0.068 C 
ATOM      4  N   UNL     1       5.023   4.128  -2.639  0.00  0.00    -0.341 N 
ATOM      5  C   UNL     1       4.684   3.594  -1.391  0.00  0.00    +0.031 A 
ATOM      6  C   UNL     1       4.092   2.345  -1.289  0.00  0.00    -0.015 A 
ATOM      7  C   UNL     1       3.763   1.846  -0.041  0.00  0.00    +0.006 A 
ATOM      8  C   UNL     1       4.023   2.585   1.097  0.00  0.00    +0.000 A 
ATOM      9  C   UNL     1       4.615   3.830   0.996  0.00  0.00    +0.002 A 
ATOM     10  C   UNL     1       4.946   4.335  -0.244  0.00  0.00    +0.023 A 
ATOM     11  C   UNL     1       6.257   2.337  -3.779  0.00  0.00    +0.028 C 
ATOM     12  H   UNL     1       5.254   5.066  -2.728  0.00  0.00    +0.146 HD
ENDROOT
BRANCH   1  15
ATOM     13  N   UNL     1       2.259  -0.391  -2.875  0.00  0.00    -0.301 N 
ATOM     14  C   UNL     1       3.361  -1.097  -3.534  0.00  0.00    +0.132 C 
ATOM     15  C   UNL     1       2.467   0.826  -2.332  0.00  0.00    +0.223 C 
ATOM     16  O   UNL     1       1.584   1.367  -1.702  0.00  0.00    -0.275 OA
BRANCH  13  17
ATOM     17  C   UNL     1       0.932  -1.006  -2.806  0.00  0.00    +0.072 C 
ATOM     18  C   UNL     1       0.413  -1.260  -4.223  0.00  0.00    +0.028 C 
BRANCH  17  20
ATOM     19  C   UNL     1       1.422  -2.067  -0.598  0.00  0.00    +0.005 C 
ATOM     20  C   UNL     1       1.024  -2.334  -2.051  0.00  0.00    +0.019 C 
ENDBRANCH  17  20
ENDBRANCH  13  17
ENDBRANCH   1  15
TORSDOF 3
