REMARK  Name = ZINC25392168
REMARK  11 active torsions:
REMARK  status: ('A' for Active; 'I' for Inactive)
REMARK    1  A    between atoms: C_3  and  C_6
REMARK    2  A    between atoms: C_6  and  N_7
REMARK    3  A    between atoms: C_8  and  C_10
REMARK    4  A    between atoms: C_10  and  O_11
REMARK    5  A    between atoms: O_11  and  C_12
REMARK    6  A    between atoms: C_12  and  C_14
REMARK    7  A    between atoms: C_17  and  N_21
REMARK    8  A    between atoms: C_19  and  O_20
REMARK    9  A    between atoms: N_21  and  S_22
REMARK   10  A    between atoms: S_22  and  C_25
REMARK   11  A    between atoms: C_29  and  N_31
REMARK                            x       y       z     vdW  Elec       q    Type
REMARK                         _______ _______ _______ _____ _____    ______ ____
ROOT
ATOM      1  C   UNL     1       0.343  -3.160  -4.239  0.00  0.00    +0.100 A 
ATOM      2  C   UNL     1       0.958  -2.383  -3.250  0.00  0.00    +0.020 A 
ATOM      3  C   UNL     1       0.198  -1.680  -2.361  0.00  0.00    +0.028 A 
ATOM      4  C   UNL     1      -1.193  -1.739  -2.422  0.00  0.00    +0.078 A 
ATOM      5  C   UNL     1      -1.819  -2.505  -3.397  0.00  0.00    +0.073 A 
ATOM      6  C   UNL     1      -1.059  -3.217  -4.308  0.00  0.00    +0.133 A 
ENDROOT
BRANCH   1   7
ATOM      7  C   UNL     1       1.161  -3.913  -5.202  0.00  0.00    +0.343 C 
ATOM      8  O   UNL     1       0.624  -4.587  -6.059  0.00  0.00    -0.245 OA
BRANCH   7   9
ATOM      9  O   UNL     1       2.506  -3.855  -5.133  0.00  0.00    -0.452 OA
BRANCH   9  10
ATOM     10  C   UNL     1       3.249  -4.624  -6.115  0.00  0.00    +0.328 C 
BRANCH  10  12
ATOM     11  N   UNL     1       5.617  -5.062  -6.681  0.00  0.00    -0.305 N 
ATOM     12  C   UNL     1       4.727  -4.439  -5.884  0.00  0.00    +0.251 C 
ATOM     13  O   UNL     1       5.115  -3.729  -4.980  0.00  0.00    -0.272 OA
ATOM     14  H   UNL     1       5.265  -5.706  -7.501  0.00  0.00    +0.149 HD
BRANCH  11  15
ATOM     15  C   UNL     1       7.054  -4.882  -6.456  0.00  0.00    +0.178 C 
BRANCH  15  18
ATOM     16  C   UNL     1       8.912  -6.307  -9.302  0.00  0.00    +0.041 A 
ATOM     17  C   UNL     1       8.226  -5.238  -8.681  0.00  0.00    +0.046 A 
ATOM     18  C   UNL     1       7.825  -5.680  -7.476  0.00  0.00    +0.122 A 
ATOM     19  O   UNL     1       8.235  -6.951  -7.332  0.00  0.00    -0.466 OA
ATOM     20  C   UNL     1       8.889  -7.339  -8.439  0.00  0.00    +0.195 A 
ENDBRANCH  15  18
ENDBRANCH  11  15
ENDBRANCH  10  12
ENDBRANCH   9  10
ENDBRANCH   7   9
ENDBRANCH   1   7
BRANCH   6  21
ATOM     21  O   UNL     1      -1.664  -3.967  -5.263  0.00  0.00    -0.506 OA
ATOM     22  H   UNL     1      -2.762  -4.011  -5.314  0.00  0.00    +0.292 HD
ENDBRANCH   6  21
BRANCH   4  23
ATOM     23  N   UNL     1      -1.957  -1.024  -1.507  0.00  0.00    -0.098 NA
BRANCH  23  24
ATOM     24  S   UNL     1      -2.737  -1.817  -0.280  0.00  0.00    +0.092 S 
ATOM     25  O   UNL     1      -3.458  -2.885  -0.880  0.00  0.00    -0.148 OA
ATOM     26  O   UNL     1      -3.369  -0.820   0.511  0.00  0.00    -0.148 OA
BRANCH  24  27
ATOM     27  C   UNL     1      -1.498  -2.553   0.734  0.00  0.00    +0.113 A 
ATOM     28  C   UNL     1      -1.133  -3.871   0.533  0.00  0.00    +0.030 A 
ATOM     29  C   UNL     1      -0.162  -4.449   1.328  0.00  0.00    +0.024 A 
ATOM     30  C   UNL     1       0.446  -3.708   2.326  0.00  0.00    +0.071 A 
ATOM     31  C   UNL     1       0.081  -2.389   2.527  0.00  0.00    +0.146 A 
ATOM     32  C   UNL     1      -0.891  -1.812   1.731  0.00  0.00    +0.063 A 
ATOM     33 CL   UNL     1       1.666  -4.433   3.325  0.00  0.00    -0.081 Cl
BRANCH  31  34
ATOM     34  N   UNL     1       0.731  -1.595   3.594  0.00  0.00    +0.058 N 
ATOM     35  O   UNL     1       0.409  -0.433   3.771  0.00  0.00    -0.126 OA
ATOM     36  O   UNL     1       1.587  -2.103   4.295  0.00  0.00    -0.126 OA
ENDBRANCH  31  34
ENDBRANCH  24  27
ENDBRANCH  23  24
ENDBRANCH   4  23
TORSDOF 11
