REMARK  Name = ZINC64539212
REMARK  7 active torsions:
REMARK  status: ('A' for Active; 'I' for Inactive)
REMARK    1  A    between atoms: C_1  and  C_2
REMARK    2  A    between atoms: C_5  and  N_9
REMARK    3  A    between atoms: C_7  and  C_8
REMARK    4  A    between atoms: C_14  and  N_17
REMARK    5  A    between atoms: C_24  and  C_26
REMARK    6  A    between atoms: C_32  and  O_36
REMARK    7  A    between atoms: O_36  and  C_37
REMARK                            x       y       z     vdW  Elec       q    Type
REMARK                         _______ _______ _______ _____ _____    ______ ____
ROOT
ATOM      1  N   UNL     1      -2.996  -4.905   0.197  0.00  0.00    -0.281 NA
ATOM      2  C   UNL     1      -3.956  -5.968   0.492  0.00  0.00    +0.088 C 
ATOM      3  C   UNL     1      -5.252  -5.346   0.962  0.00  0.00    +0.034 C 
ATOM      4  C   UNL     1      -6.192  -5.142  -0.238  0.00  0.00    +0.109 C 
ATOM      5  N   UNL     1      -5.452  -4.674  -1.426  0.00  0.00    -0.298 N 
ATOM      6  C   UNL     1      -4.406  -3.674  -1.347  0.00  0.00    +0.123 C 
ATOM      7  C   UNL     1      -3.042  -4.363  -1.109  0.00  0.00    +0.105 C 
ATOM      8  C   UNL     1      -5.760  -5.197  -2.629  0.00  0.00    +0.242 C 
ATOM      9  O   UNL     1      -5.104  -4.900  -3.605  0.00  0.00    -0.273 OA
ENDROOT
BRANCH   8  10
ATOM     10  C   UNL     1      -6.918  -6.152  -2.762  0.00  0.00    +0.190 C 
ATOM     11  C   UNL     1      -6.468  -7.564  -2.461  0.00  0.00    +0.016 C 
ATOM     12  C   UNL     1      -6.691  -8.277  -3.586  0.00  0.00    -0.003 A 
ATOM     13  C   UNL     1      -6.467  -9.688  -3.927  0.00  0.00    +0.013 A 
ATOM     14  C   UNL     1      -6.795 -10.125  -5.162  0.00  0.00    +0.046 A 
ATOM     15  C   UNL     1      -7.346  -9.262  -6.128  0.00  0.00    +0.122 A 
ATOM     16  C   UNL     1      -7.580  -7.947  -5.883  0.00  0.00    +0.071 A 
ATOM     17  C   UNL     1      -7.272  -7.388  -4.618  0.00  0.00    +0.047 A 
ATOM     18  N   UNL     1      -7.404  -6.169  -4.146  0.00  0.00    -0.370 N 
ATOM     19  H   UNL     1      -7.761  -5.408  -4.630  0.00  0.00    +0.161 HD
BRANCH  15  20
ATOM     20  O   UNL     1      -7.654  -9.763  -7.350  0.00  0.00    -0.495 OA
ATOM     21  C   UNL     1      -7.392 -11.150  -7.567  0.00  0.00    +0.277 C 
ENDBRANCH  15  20
ENDBRANCH   8  10
BRANCH   1  27
ATOM     22  N   UNL     1      -0.899  -3.151   1.101  0.00  0.00    -0.200 N 
ATOM     23  C   UNL     1      -1.203  -3.335   2.401  0.00  0.00    +0.257 C 
ATOM     24  O   UNL     1      -1.338  -2.383   3.146  0.00  0.00    -0.269 OA
ATOM     25  C   UNL     1      -1.371  -4.712   2.906  0.00  0.00    +0.068 C 
ATOM     26  C   UNL     1      -1.577  -5.682   2.010  0.00  0.00    +0.014 C 
ATOM     27  C   UNL     1      -1.630  -5.317   0.548  0.00  0.00    +0.166 C 
ATOM     28  N   UNL     1      -0.711  -4.215   0.271  0.00  0.00    -0.212 NA
ATOM     29  H   UNL     1       0.247  -4.530   0.300  0.00  0.00    +0.147 HD
BRANCH  22  34
ATOM     30  C   UNL     1      -0.421   2.118  -0.945  0.00  0.00    +0.044 C 
ATOM     31  C   UNL     1      -0.548   0.718  -0.402  0.00  0.00    -0.047 A 
ATOM     32  C   UNL     1      -1.652   0.369   0.354  0.00  0.00    +0.005 A 
ATOM     33  C   UNL     1      -1.772  -0.913   0.854  0.00  0.00    +0.025 A 
ATOM     34  C   UNL     1      -0.781  -1.852   0.596  0.00  0.00    +0.053 A 
ATOM     35  C   UNL     1       0.326  -1.499  -0.163  0.00  0.00    +0.028 A 
ATOM     36  C   UNL     1       0.437  -0.216  -0.664  0.00  0.00    -0.046 A 
ATOM     37  C   UNL     1       1.636   0.167  -1.493  0.00  0.00    +0.044 C 
ENDBRANCH  22  34
ENDBRANCH   1  27
TORSDOF 4
