REMARK  Name = ZINC58998356
REMARK  12 active torsions:
REMARK  status: ('A' for Active; 'I' for Inactive)
REMARK    1  A    between atoms: C_1  and  O_2
REMARK    2  A    between atoms: O_2  and  C_3
REMARK    3  A    between atoms: C_8  and  C_9
REMARK    4  A    between atoms: C_9  and  N_10
REMARK    5  A    between atoms: C_11  and  C_13
REMARK    6  A    between atoms: C_13  and  S_14
REMARK    7  A    between atoms: S_14  and  C_15
REMARK    8  A    between atoms: N_20  and  N_21
REMARK    9  A    between atoms: C_22  and  C_23
REMARK   10  A    between atoms: C_27  and  C_30
REMARK   11  A    between atoms: C_28  and  O_29
REMARK   12  A    between atoms: C_30  and  C_31
REMARK                            x       y       z     vdW  Elec       q    Type
REMARK                         _______ _______ _______ _____ _____    ______ ____
ROOT
ATOM      1  C   UNL     1       1.944  -4.564  -6.061  0.00  0.00    +0.211 A 
ATOM      2  N   UNL     1       1.814  -5.163  -7.250  0.00  0.00    -0.186 NA
ATOM      3  C   UNL     1       2.882  -4.931  -7.983  0.00  0.00    +0.232 A 
ATOM      4  N   UNL     1       3.727  -4.166  -7.258  0.00  0.00    -0.245 N 
ATOM      5  N   UNL     1       3.097  -3.938  -6.024  0.00  0.00    -0.144 NA
ATOM      6  N   UNL     1       3.102  -5.390  -9.268  0.00  0.00    -0.205 N 
ATOM      7  H   UNL     1       3.925  -5.166  -9.729  0.00  0.00    +0.177 HD
ATOM      8  H   UNL     1       4.596  -3.836  -7.536  0.00  0.00    +0.192 HD
ENDROOT
BRANCH   6   9
ATOM      9  N   UNL     1       2.135  -6.179  -9.905  0.00  0.00    -0.187 NA
ATOM     10  C   UNL     1       2.341  -6.610 -11.112  0.00  0.00    +0.142 C 
BRANCH  10  11
ATOM     11  C   UNL     1       1.324  -7.441 -11.782  0.00  0.00    +0.036 A 
ATOM     12  C   UNL     1       1.545  -7.911 -13.078  0.00  0.00    +0.013 A 
ATOM     13  C   UNL     1       0.589  -8.688 -13.699  0.00  0.00    +0.001 A 
ATOM     14  C   UNL     1      -0.589  -9.003 -13.043  0.00  0.00    +0.007 A 
ATOM     15  C   UNL     1      -0.818  -8.543 -11.759  0.00  0.00    -0.002 A 
ATOM     16  C   UNL     1       0.133  -7.767 -11.119  0.00  0.00    +0.129 A 
BRANCH  16  17
ATOM     17  O   UNL     1      -0.089  -7.320  -9.856  0.00  0.00    -0.506 OA
ATOM     18  H   UNL     1      -0.534  -6.462  -9.815  0.00  0.00    +0.292 HD
ENDBRANCH  16  17
BRANCH  15  19
ATOM     19  C   UNL     1      -2.104  -8.892 -11.054  0.00  0.00    +0.065 C 
BRANCH  19  20
ATOM     20  C   UNL     1      -3.100  -7.777 -11.246  0.00  0.00    -0.030 C 
ATOM     21  C   UNL     1      -4.282  -8.035 -11.749  0.00  0.00    +0.004 C 
ENDBRANCH  19  20
ENDBRANCH  15  19
ENDBRANCH  10  11
ENDBRANCH   6   9
BRANCH   1  22
ATOM     22  S   UNL     1       0.758  -4.604  -4.759  0.00  0.00    -0.075 S 
BRANCH  22  23
ATOM     23  C   UNL     1       1.517  -3.610  -3.444  0.00  0.00    +0.173 C 
BRANCH  23  25
ATOM     24  N   UNL     1       0.950  -2.876  -1.151  0.00  0.00    -0.310 N 
ATOM     25  C   UNL     1       0.593  -3.562  -2.255  0.00  0.00    +0.224 C 
ATOM     26  O   UNL     1      -0.472  -4.141  -2.290  0.00  0.00    -0.275 OA
ATOM     27  H   UNL     1       1.802  -2.413  -1.123  0.00  0.00    +0.149 HD
BRANCH  24  28
ATOM     28  C   UNL     1       0.052  -2.828   0.005  0.00  0.00    +0.143 C 
BRANCH  28  34
ATOM     29  C   UNL     1       0.626  -0.618   1.042  0.00  0.00    +0.125 A 
ATOM     30  C   UNL     1       1.202   0.139   2.051  0.00  0.00    +0.046 A 
ATOM     31  C   UNL     1       1.835  -0.488   3.107  0.00  0.00    +0.004 A 
ATOM     32  C   UNL     1       1.895  -1.869   3.158  0.00  0.00    +0.001 A 
ATOM     33  C   UNL     1       1.321  -2.625   2.153  0.00  0.00    +0.009 A 
ATOM     34  C   UNL     1       0.682  -2.003   1.097  0.00  0.00    +0.011 A 
BRANCH  29  36
ATOM     35  C   UNL     1      -0.017   1.425   0.010  0.00  0.00    +0.277 C 
ATOM     36  O   UNL     1       0.002  -0.004   0.002  0.00  0.00    -0.495 OA
ENDBRANCH  29  36
ENDBRANCH  28  34
ENDBRANCH  24  28
ENDBRANCH  23  25
ENDBRANCH  22  23
ENDBRANCH   1  22
TORSDOF 11
