REMARK  Name = ZINC05457635
REMARK  7 active torsions:
REMARK  status: ('A' for Active; 'I' for Inactive)
REMARK    1  A    between atoms: C_4  and  C_7
REMARK    2  A    between atoms: C_7  and  O_8
REMARK    3  A    between atoms: O_8  and  C_9
REMARK    4  A    between atoms: C_12  and  C_15
REMARK    5  A    between atoms: C_22  and  N_33
REMARK    6  A    between atoms: C_23  and  C_31
REMARK    7  A    between atoms: C_24  and  C_26
REMARK                            x       y       z     vdW  Elec       q    Type
REMARK                         _______ _______ _______ _____ _____    ______ ____
ROOT
ATOM      1  C   UNL     1       8.959  -3.648   1.989  0.00  0.00    +0.074 A 
ATOM      2  C   UNL     1      10.002  -3.286   2.773  0.00  0.00    +0.054 A 
ATOM      3  C   UNL     1      11.014  -4.255   2.630  0.00  0.00    +0.245 A 
ATOM      4  N   UNL     1      10.597  -5.163   1.794  0.00  0.00    -0.135 NA
ATOM      5  N   UNL     1       9.303  -4.818   1.373  0.00  0.00    -0.273 N 
ATOM      6  H   UNL     1       8.752  -5.321   0.753  0.00  0.00    +0.189 HD
ATOM      7  O   UNL     1      12.195  -4.168   3.300  0.00  0.00    -0.421 OA
ATOM      8  C   UNL     1      12.272  -3.280   4.311  0.00  0.00    +0.201 C 
ATOM      9  C   UNL     1      11.371  -2.302   4.539  0.00  0.00    +0.098 C 
ATOM     10  C   UNL     1      10.157  -2.086   3.672  0.00  0.00    +0.105 C 
ENDROOT
BRANCH   1  14
ATOM     11  C   UNL     1       5.290  -1.549   1.543  0.00  0.00    +0.121 A 
ATOM     12  C   UNL     1       5.966  -2.008   0.420  0.00  0.00    +0.046 A 
ATOM     13  C   UNL     1       7.157  -2.689   0.561  0.00  0.00    +0.013 A 
ATOM     14  C   UNL     1       7.682  -2.917   1.834  0.00  0.00    +0.000 A 
ATOM     15  C   UNL     1       7.000  -2.454   2.959  0.00  0.00    +0.013 A 
ATOM     16  C   UNL     1       5.812  -1.770   2.811  0.00  0.00    +0.046 A 
BRANCH  11  17
ATOM     17  O   UNL     1       4.117  -0.878   1.400  0.00  0.00    -0.487 OA
BRANCH  17  18
ATOM     18  C   UNL     1       3.637  -0.686   0.068  0.00  0.00    +0.264 C 
BRANCH  18  22
ATOM     19  C   UNL     1      -0.053   1.462   0.177  0.00  0.00    +0.000 A 
ATOM     20  C   UNL     1       1.144   2.148   0.093  0.00  0.00    +0.000 A 
ATOM     21  C   UNL     1       2.338   1.453   0.058  0.00  0.00    +0.007 A 
ATOM     22  C   UNL     1       2.335   0.071   0.107  0.00  0.00    -0.010 A 
ATOM     23  C   UNL     1       1.138  -0.615   0.192  0.00  0.00    +0.007 A 
ATOM     24  C   UNL     1      -0.056   0.080   0.226  0.00  0.00    +0.000 A 
ENDBRANCH  18  22
ENDBRANCH  17  18
ENDBRANCH  11  17
ENDBRANCH   1  14
BRANCH  10  25
ATOM     25  C   UNL     1      10.342  -0.845   2.837  0.00  0.00    +0.003 A 
ATOM     26  C   UNL     1       9.557   0.330   2.888  0.00  0.00    +0.045 A 
ATOM     27  C   UNL     1      10.068   1.180   1.980  0.00  0.00    +0.195 A 
ATOM     28  O   UNL     1      11.116   0.586   1.385  0.00  0.00    -0.471 OA
ATOM     29  C   UNL     1      11.289  -0.641   1.904  0.00  0.00    +0.199 A 
ENDBRANCH  10  25
BRANCH   8  30
ATOM     30  N   UNL     1      13.341  -3.376   5.166  0.00  0.00    -0.328 N 
ATOM     31  H   UNL     1      14.009  -4.067   5.032  0.00  0.00    +0.145 HD
ATOM     32  H   UNL     1      13.429  -2.754   5.905  0.00  0.00    +0.145 HD
ENDBRANCH   8  30
BRANCH   9  33
ATOM     33  C   UNL     1      11.578  -1.429   5.656  0.00  0.00    +0.101 C 
ATOM     34  N   UNL     1      11.742  -0.737   6.542  0.00  0.00    -0.191 NA
ENDBRANCH   9  33
TORSDOF 7
