REMARK  Name = ZINC39012637
REMARK  5 active torsions:
REMARK  status: ('A' for Active; 'I' for Inactive)
REMARK    1  A    between atoms: C_1  and  C_2
REMARK    2  A    between atoms: C_5  and  O_28
REMARK    3  A    between atoms: C_6  and  C_8
REMARK    4  A    between atoms: C_11  and  C_14
REMARK    5  A    between atoms: C_14  and  N_16
REMARK                            x       y       z     vdW  Elec       q    Type
REMARK                         _______ _______ _______ _____ _____    ______ ____
ROOT
ATOM      1  C   UNL     1       0.052  -2.841   2.493  0.00  0.00    +0.129 C 
ATOM      2  C   UNL     1      -1.369  -3.304   2.869  0.00  0.00    +0.091 C 
ATOM      3  C   UNL     1      -1.643  -2.610   4.184  0.00  0.00    +0.124 C 
ATOM      4  N   UNL     1      -0.618  -1.897   4.516  0.00  0.00    -0.186 NA
ATOM      5  N   UNL     1       0.437  -1.955   3.603  0.00  0.00    -0.261 N 
ATOM      6  H   UNL     1       1.284  -1.489   3.686  0.00  0.00    +0.169 HD
ENDROOT
BRANCH   1  12
ATOM      7  C   UNL     1      -0.018   1.503   0.010  0.00  0.00    +0.044 C 
ATOM      8  C   UNL     1       0.002  -0.004   0.002  0.00  0.00    -0.050 A 
ATOM      9  C   UNL     1       0.006  -0.688  -1.200  0.00  0.00    +0.007 A 
ATOM     10  C   UNL     1       0.024  -2.069  -1.210  0.00  0.00    +0.046 A 
ATOM     11  C   UNL     1       0.039  -2.770  -0.013  0.00  0.00    +0.122 A 
ATOM     12  C   UNL     1       0.036  -2.082   1.191  0.00  0.00    +0.016 A 
ATOM     13  C   UNL     1       0.023  -0.701   1.196  0.00  0.00    +0.012 A 
BRANCH  11  14
ATOM     14  O   UNL     1       0.057  -4.129  -0.021  0.00  0.00    -0.506 OA
ATOM     15  H   UNL     1       0.945  -4.511  -0.027  0.00  0.00    +0.292 HD
ENDBRANCH  11  14
ENDBRANCH   1  12
BRANCH   3  16
ATOM     16  C   UNL     1      -2.881  -2.729   4.963  0.00  0.00    +0.285 C 
ATOM     17  O   UNL     1      -3.792  -3.432   4.558  0.00  0.00    -0.267 OA
BRANCH  16  18
ATOM     18  N   UNL     1      -3.012  -2.064   6.120  0.00  0.00    -0.151 NA
ATOM     19  C   UNL     1      -4.132  -2.172   6.824  0.00  0.00    +0.164 A 
ATOM     20  N   UNL     1      -5.248  -2.902   6.547  0.00  0.00    -0.335 N 
ATOM     21  H   UNL     1      -5.287  -3.436   5.738  0.00  0.00    +0.168 HD
ATOM     22  C   UNL     1      -6.327  -2.886   7.415  0.00  0.00    +0.055 A 
ATOM     23  C   UNL     1      -7.544  -3.576   7.280  0.00  0.00    +0.029 A 
ATOM     24  C   UNL     1      -8.530  -3.460   8.230  0.00  0.00    +0.040 A 
ATOM     25  C   UNL     1      -8.359  -2.661   9.351  0.00  0.00    +0.125 A 
ATOM     26  C   UNL     1      -7.168  -1.970   9.510  0.00  0.00    +0.055 A 
ATOM     27  C   UNL     1      -6.183  -2.087   8.558  0.00  0.00    +0.041 A 
ATOM     28  S   UNL     1      -4.554  -1.401   8.379  0.00  0.00    -0.052 S 
ATOM     29  F   UNL     1      -9.339  -2.558  10.275  0.00  0.00    -0.205 F 
ENDBRANCH  16  18
ENDBRANCH   3  16
TORSDOF 4
