REMARK  Name = ZINC19959815
REMARK  3 active torsions:
REMARK  status: ('A' for Active; 'I' for Inactive)
REMARK    1  A    between atoms: C_1  and  C_2
REMARK    2  A    between atoms: C_7  and  C_19
REMARK    3  A    between atoms: C_12  and  C_14
REMARK                            x       y       z     vdW  Elec       q    Type
REMARK                         _______ _______ _______ _____ _____    ______ ____
ROOT
ATOM      1  C   UNL     1       4.090   1.325  -0.369  0.00  0.00    +0.008 C 
ATOM      2  C   UNL     1       2.660   0.799  -0.503  0.00  0.00    -0.001 C 
ATOM      3  C   UNL     1       2.563  -0.595   0.121  0.00  0.00    +0.055 C 
ATOM      4  C   UNL     1       1.141  -1.095   0.024  0.00  0.00    +0.020 C 
ATOM      5  C   UNL     1       0.099  -0.237   0.065  0.00  0.00    +0.041 C 
ATOM      6  C   UNL     1      -1.336  -0.710  -0.007  0.00  0.00    +0.176 C 
ATOM      7  N   UNL     1      -1.382  -2.096  -0.457  0.00  0.00    -0.220 N 
ATOM      8  C   UNL     1      -0.293  -2.904  -0.495  0.00  0.00    +0.219 A 
ATOM      9  N   UNL     1      -0.674  -4.072  -0.933  0.00  0.00    -0.189 NA
ATOM     10  C   UNL     1      -1.986  -4.048  -1.188  0.00  0.00    +0.256 A 
ATOM     11  N   UNL     1      -2.457  -2.857  -0.911  0.00  0.00    -0.143 NA
ATOM     12  N   UNL     1       0.958  -2.451  -0.111  0.00  0.00    -0.287 N 
ATOM     13  C   UNL     1       0.311   1.149   0.180  0.00  0.00    +0.163 C 
ATOM     14  O   UNL     1      -0.648   1.894   0.227  0.00  0.00    -0.292 OA
ATOM     15  C   UNL     1       1.696   1.729   0.242  0.00  0.00    +0.083 C 
ATOM     16  H   UNL     1       1.792  -3.140   0.084  0.00  0.00    +0.155 HD
ENDROOT
BRANCH   6  17
ATOM     17  C   UNL     1      -1.966  -0.606   1.358  0.00  0.00    -0.011 A 
ATOM     18  C   UNL     1      -1.381  -1.209   2.429  0.00  0.00    +0.006 A 
ATOM     19  C   UNL     1      -1.948  -1.123   3.699  0.00  0.00    +0.001 A 
ATOM     20  C   UNL     1      -3.104  -0.434   3.905  0.00  0.00    +0.008 A 
ATOM     21  C   UNL     1      -3.737   0.202   2.823  0.00  0.00    -0.018 A 
ATOM     22  C   UNL     1      -3.157   0.119   1.533  0.00  0.00    -0.012 A 
ATOM     23  C   UNL     1      -3.792   0.750   0.450  0.00  0.00    +0.009 A 
ATOM     24  C   UNL     1      -4.948   1.438   0.656  0.00  0.00    +0.001 A 
ATOM     25  C   UNL     1      -5.516   1.524   1.926  0.00  0.00    +0.001 A 
ATOM     26  C   UNL     1      -4.931   0.922   2.997  0.00  0.00    +0.008 A 
ENDBRANCH   6  17
BRANCH  10  27
ATOM     27  C   UNL     1      -2.796  -5.207  -1.710  0.00  0.00    +0.454 C 
ATOM     28  F   UNL     1      -2.527  -5.388  -3.071  0.00  0.00    -0.163 F 
ATOM     29  F   UNL     1      -2.453  -6.369  -1.009  0.00  0.00    -0.163 F 
ATOM     30  F   UNL     1      -4.158  -4.942  -1.535  0.00  0.00    -0.163 F 
ENDBRANCH  10  27
TORSDOF 2
