REMARK  Name = ZINC48787534
REMARK  4 active torsions:
REMARK  status: ('A' for Active; 'I' for Inactive)
REMARK    1  A    between atoms: C_1  and  O_2
REMARK    2  A    between atoms: O_2  and  C_3
REMARK    3  A    between atoms: C_8  and  N_10
REMARK    4  A    between atoms: C_11  and  C_13
REMARK                            x       y       z     vdW  Elec       q    Type
REMARK                         _______ _______ _______ _____ _____    ______ ____
ROOT
ATOM      1  N   UNL     1      -0.875  -1.889  -2.565  0.00  0.00    -0.305 N 
ATOM      2  C   UNL     1      -1.844  -2.817  -2.691  0.00  0.00    +0.280 C 
ATOM      3  O   UNL     1      -1.928  -3.722  -1.882  0.00  0.00    -0.267 OA
ATOM      4  H   UNL     1      -0.808  -1.167  -3.210  0.00  0.00    +0.149 HD
ENDROOT
BRANCH   2   5
ATOM      5  C   UNL     1      -2.800  -2.736  -3.804  0.00  0.00    +0.191 A 
ATOM      6  C   UNL     1      -3.817  -3.608  -4.027  0.00  0.00    +0.063 A 
ATOM      7  C   UNL     1      -4.498  -3.138  -5.232  0.00  0.00    +0.022 A 
ATOM      8  C   UNL     1      -5.597  -3.588  -5.968  0.00  0.00    +0.012 A 
ATOM      9  C   UNL     1      -5.993  -2.903  -7.082  0.00  0.00    +0.002 A 
ATOM     10  C   UNL     1      -5.310  -1.764  -7.488  0.00  0.00    +0.019 A 
ATOM     11  C   UNL     1      -4.222  -1.304  -6.776  0.00  0.00    +0.061 A 
ATOM     12  C   UNL     1      -3.802  -1.984  -5.638  0.00  0.00    +0.150 A 
ATOM     13  O   UNL     1      -2.804  -1.780  -4.757  0.00  0.00    -0.449 OA
ATOM     14 BR   UNL     1      -3.305   0.248  -7.346  0.00  0.00    -0.046 Br
ENDBRANCH   2   5
BRANCH   1  19
ATOM     15  C   UNL     1       0.652  -0.570  -1.138  0.00  0.00    +0.119 C 
ATOM     16  C   UNL     1       2.142  -0.864  -0.830  0.00  0.00    -0.049 C 
ATOM     17  N   UNL     1       2.484  -1.936  -1.799  0.00  0.00    +0.382 N 
ATOM     18  C   UNL     1       1.301  -2.822  -1.855  0.00  0.00    -0.058 C 
ATOM     19  C   UNL     1       0.078  -1.970  -1.456  0.00  0.00    +0.083 C 
ATOM     20  H   UNL     1       2.664  -1.538  -2.709  0.00  0.00    -0.086 HD
ATOM     21  H   UNL     1       3.290  -2.452  -1.478  0.00  0.00    -0.086 HD
BRANCH  15  23
ATOM     22  C   UNL     1      -0.017   1.425   0.010  0.00  0.00    +0.194 C 
ATOM     23  O   UNL     1       0.002  -0.004   0.002  0.00  0.00    -0.380 OA
ENDBRANCH  15  23
ENDBRANCH   1  19
TORSDOF 3
