REMARK  Name = ZINC64684766
REMARK  10 active torsions:
REMARK  status: ('A' for Active; 'I' for Inactive)
REMARK    1  A    between atoms: CG_7  and  CB_10
REMARK    2  A    between atoms: CB_10  and  CA_11
REMARK    3  A    between atoms: CA_11  and  C_13
REMARK    4  A    between atoms: CA_11  and  N_16
REMARK    5  A    between atoms: C_17  and  C_19
REMARK    6  A    between atoms: C_19  and  S_20
REMARK    7  A    between atoms: S_20  and  C_21
REMARK    8  A    between atoms: C_25  and  N_28
REMARK    9  A    between atoms: N_28  and  C_29
REMARK   10  A    between atoms: C_29  and  C_30
REMARK                            x       y       z     vdW  Elec       q    Type
REMARK                         _______ _______ _______ _____ _____    ______ ____
ROOT
ATOM      1  N   TRP A   1      -0.238  -2.603  -2.210  0.00  0.00    -0.301 N 
ATOM      2  C   UNK A   0      -0.118  -2.539  -3.551  0.00  0.00    +0.224 C 
ATOM      3  O   UNK A   0       0.566  -3.350  -4.138  0.00  0.00    -0.275 OA
ATOM      4  H   TRP A   1      -0.785  -1.954  -1.741  0.00  0.00    +0.150 HD
ENDROOT
BRANCH   1   5
ATOM      5  CA  TRP A   1       0.457  -3.653  -1.462  0.00  0.00    +0.190 C 
BRANCH   5   6
ATOM      6  C   TRP A   1      -0.385  -4.904  -1.452  0.00  0.00    +0.376 C 
ATOM      7  O   TRP A   1      -1.535  -4.868  -1.856  0.00  0.00    -0.244 OA
ATOM      8  OXT TRP A   1       0.085  -5.951  -1.042  0.00  0.00    -0.244 OA
ENDBRANCH   5   6
BRANCH   5   9
ATOM      9  CB  TRP A   1       0.691  -3.186  -0.024  0.00  0.00    +0.067 C 
BRANCH   9  16
ATOM     10  CZ3 TRP A   1      -0.016   1.348   0.009  0.00  0.00    +0.001 A 
ATOM     11  CH2 TRP A   1       1.166   2.101   0.002  0.00  0.00    +0.002 A 
ATOM     12  CZ2 TRP A   1       2.391   1.535  -0.013  0.00  0.00    +0.026 A 
ATOM     13  CE2 TRP A   1       2.529   0.120  -0.022  0.00  0.00    +0.043 A 
ATOM     14  NE1 TRP A   1       3.587  -0.654  -0.037  0.00  0.00    -0.380 N 
ATOM     15  CD1 TRP A   1       3.143  -2.053  -0.041  0.00  0.00    +0.144 C 
ATOM     16  CG  TRP A   1       1.631  -2.008  -0.025  0.00  0.00    -0.039 C 
ATOM     17  CD2 TRP A   1       1.295  -0.698  -0.014  0.00  0.00    -0.001 A 
ATOM     18  CE3 TRP A   1       0.002  -0.004   0.002  0.00  0.00    +0.010 A 
ATOM     19  HE1 TRP A   1       4.509  -0.353  -0.045  0.00  0.00    +0.160 HD
ENDBRANCH   9  16
ENDBRANCH   5   9
ENDBRANCH   1   5
BRANCH   2  20
ATOM     20  C   UNK A   0      -0.832  -1.458  -4.321  0.00  0.00    +0.167 C 
BRANCH  20  21
ATOM     21  S   UNK A   0      -0.474  -1.638  -6.090  0.00  0.00    -0.121 S 
BRANCH  21  22
ATOM     22  C   UNK A   0      -1.396  -0.281  -6.865  0.00  0.00    +0.187 C 
ATOM     23  N   UNK A   0      -2.849  -0.334  -6.508  0.00  0.00    -0.232 NA
ATOM     24  N   UNK A   0      -3.454   0.980  -6.691  0.00  0.00    -0.229 NA
ATOM     25  C   UNK A   0      -2.659   2.052  -6.031  0.00  0.00    +0.198 C 
ATOM     26  S   UNK A   0      -0.958   1.346  -6.113  0.00  0.00    -0.095 S 
ATOM     27  H   UNK A   0      -2.978  -0.663  -5.563  0.00  0.00    +0.143 HD
ATOM     28  H   UNK A   0      -4.410   0.986  -6.366  0.00  0.00    +0.143 HD
BRANCH  25  29
ATOM     29  N   UNK A   0      -2.744   3.311  -6.784  0.00  0.00    -0.285 NA
ATOM     30  H   UNK A   0      -2.232   3.249  -7.651  0.00  0.00    +0.125 HD
BRANCH  29  31
ATOM     31  C   UNK A   0      -2.272   4.442  -5.973  0.00  0.00    +0.157 C 
BRANCH  31  32
ATOM     32  C   UNK A   0      -2.374   5.713  -6.777  0.00  0.00    +0.119 A 
ATOM     33  C   UNK A   0      -3.439   6.534  -6.818  0.00  0.00    +0.046 A 
ATOM     34  C   UNK A   0      -3.104   7.595  -7.690  0.00  0.00    +0.041 A 
ATOM     35  C   UNK A   0      -1.855   7.359  -8.130  0.00  0.00    +0.195 A 
ATOM     36  O   UNK A   0      -1.416   6.221  -7.569  0.00  0.00    -0.467 OA
ENDBRANCH  31  32
ENDBRANCH  29  31
ENDBRANCH  25  29
ENDBRANCH  21  22
ENDBRANCH  20  21
ENDBRANCH   2  20
TORSDOF 10
