REMARK  Name = ZINC62847388
REMARK  6 active torsions:
REMARK  status: ('A' for Active; 'I' for Inactive)
REMARK    1  A    between atoms: C_1  and  C_2
REMARK    2  A    between atoms: C_2  and  C_3
REMARK    3  A    between atoms: C_3  and  C_4
REMARK    4  A    between atoms: C_4  and  C_20
REMARK    5  A    between atoms: C_15  and  C_18
REMARK    6  A    between atoms: C_18  and  N_19
REMARK                            x       y       z     vdW  Elec       q    Type
REMARK                         _______ _______ _______ _____ _____    ______ ____
ROOT
ATOM      1  C   UNL     1       0.612  -1.807  -1.264  0.00  0.00    +0.075 C 
ATOM      2  C   UNL     1      -0.839  -2.296  -1.277  0.00  0.00    +0.037 C 
ATOM      3  C   UNL     1      -1.515  -1.840  -2.573  0.00  0.00    +0.110 C 
ATOM      4  N   UNL     1      -0.712  -2.302  -3.714  0.00  0.00    -0.285 N 
ATOM      5  C   UNL     1       0.717  -1.964  -3.754  0.00  0.00    +0.110 C 
ATOM      6  C   UNL     1       1.369  -2.419  -2.445  0.00  0.00    +0.037 C 
ATOM      7  C   UNL     1      -1.276  -3.022  -4.704  0.00  0.00    +0.305 C 
ATOM      8  O   UNL     1      -2.397  -3.472  -4.566  0.00  0.00    -0.252 OA
ATOM      9  N   UNL     1      -0.597  -3.245  -5.846  0.00  0.00    -0.285 N 
ATOM     10  C   UNL     1       0.820  -2.926  -6.077  0.00  0.00    +0.109 C 
ATOM     11  C   UNL     1       1.150  -3.331  -7.529  0.00  0.00    +0.022 C 
ATOM     12  C   UNL     1      -0.242  -3.332  -8.214  0.00  0.00    -0.010 C 
ATOM     13  C   UNL     1      -1.150  -3.853  -7.070  0.00  0.00    +0.111 C 
ENDROOT
BRANCH   1  14
ATOM     14  C   UNL     1       1.270  -2.225   0.026  0.00  0.00    +0.362 C 
ATOM     15  O   UNL     1       0.820  -1.843   1.092  0.00  0.00    -0.246 OA
ATOM     16  O   UNL     1       2.253  -2.946   0.002  0.00  0.00    -0.246 OA
ENDBRANCH   1  14
BRANCH   1  17
ATOM     17  C   UNL     1       0.636  -0.282  -1.377  0.00  0.00    +0.018 C 
BRANCH  17  19
ATOM     18  C   UNL     1      -0.096   1.855  -0.310  0.00  0.00    +0.004 C 
ATOM     19  C   UNL     1      -0.120   0.330  -0.197  0.00  0.00    -0.002 C 
ENDBRANCH  17  19
ENDBRANCH   1  17
BRANCH  12  20
ATOM     20  C   UNL     1      -0.264  -4.287  -9.409  0.00  0.00    -0.081 C 
BRANCH  20  21
ATOM     21  N   UNL     1       0.632  -3.782 -10.457  0.00  0.00    +0.378 N 
ATOM     22  H   UNL     1       0.617  -4.412 -11.245  0.00  0.00    -0.090 HD
ATOM     23  H   UNL     1       0.323  -2.868 -10.752  0.00  0.00    -0.090 HD
ATOM     24  H   UNL     1       1.572  -3.719 -10.095  0.00  0.00    -0.090 HD
ENDBRANCH  20  21
ENDBRANCH  12  20
TORSDOF 5
