REMARK  Name = ZINC08644247
REMARK  6 active torsions:
REMARK  status: ('A' for Active; 'I' for Inactive)
REMARK    1  A    between atoms: C_1  and  C_2
REMARK    2  A    between atoms: C_2  and  C_3
REMARK    3  A    between atoms: C_3  and  C_27
REMARK    4  A    between atoms: N_6  and  C_10
REMARK    5  A    between atoms: C_10  and  C_11
REMARK    6  A    between atoms: N_16  and  C_17
REMARK                            x       y       z     vdW  Elec       q    Type
REMARK                         _______ _______ _______ _____ _____    ______ ____
ROOT
ATOM      1  C   UNL     1      -1.211   3.349   0.026  0.00  0.00    +0.238 C 
ATOM      2  O   UNL     1      -0.169   3.970   0.024  0.00  0.00    -0.274 OA
ATOM      3  N   UNL     1      -1.192   2.002   0.019  0.00  0.00    -0.239 N 
ATOM      4  C   UNL     1      -0.016   1.344   0.009  0.00  0.00    +0.306 C 
ATOM      5  O   UNL     1       1.028   1.966   0.003  0.00  0.00    -0.252 OA
ATOM      6  N   UNL     1       0.002  -0.004   0.002  0.00  0.00    -0.294 N 
ATOM      7  H   UNL     1      -2.026   1.505   0.020  0.00  0.00    +0.159 HD
ATOM      8  H   UNL     1      -0.831  -0.500   0.007  0.00  0.00    +0.151 HD
ENDROOT
BRANCH   6   9
ATOM      9  C   UNL     1       1.281  -0.719  -0.014  0.00  0.00    +0.037 C 
ATOM     10  C   UNL     1       2.090  -0.345   1.230  0.00  0.00    +0.029 C 
ATOM     11  C   UNL     1       3.425  -1.092   1.213  0.00  0.00    -0.008 C 
ATOM     12  C   UNL     1       3.166  -2.600   1.207  0.00  0.00    +0.007 C 
ATOM     13  C   UNL     1       2.357  -2.974  -0.036  0.00  0.00    -0.008 C 
ATOM     14  C   UNL     1       1.021  -2.227  -0.020  0.00  0.00    +0.029 C 
ATOM     15  C   UNL     1       3.142  -2.587  -1.291  0.00  0.00    +0.007 C 
ATOM     16  C   UNL     1       3.401  -1.079  -1.286  0.00  0.00    -0.008 C 
ATOM     17  C   UNL     1       4.210  -0.705  -0.042  0.00  0.00    +0.007 C 
ATOM     18  C   UNL     1       2.066  -0.332  -1.269  0.00  0.00    +0.029 C 
ENDBRANCH   6   9
BRANCH   1  19
ATOM     19  C   UNL     1      -2.526   4.085   0.036  0.00  0.00    +0.214 C 
BRANCH  19  23
ATOM     20  C   UNL     1      -1.910   7.695  -0.581  0.00  0.00    +0.138 C 
ATOM     21  C   UNL     1      -2.155   6.281  -1.069  0.00  0.00    +0.251 C 
ATOM     22  O   UNL     1      -2.225   5.904  -2.219  0.00  0.00    -0.272 OA
ATOM     23  N   UNL     1      -2.278   5.529   0.043  0.00  0.00    -0.215 N 
ATOM     24  C   UNL     1      -2.151   6.264   1.153  0.00  0.00    +0.310 C 
ATOM     25  O   UNL     1      -2.228   5.809   2.278  0.00  0.00    -0.252 OA
ATOM     26  N   UNL     1      -1.925   7.563   0.886  0.00  0.00    -0.281 N 
ATOM     27  H   UNL     1      -1.800   8.275   1.533  0.00  0.00    +0.152 HD
BRANCH  20  28
ATOM     28  C   UNL     1      -3.011   8.614  -1.045  0.00  0.00    -0.015 A 
ATOM     29  C   UNL     1      -2.888   9.287  -2.246  0.00  0.00    +0.006 A 
ATOM     30  C   UNL     1      -3.900  10.127  -2.674  0.00  0.00    +0.000 A 
ATOM     31  C   UNL     1      -5.030  10.300  -1.897  0.00  0.00    +0.000 A 
ATOM     32  C   UNL     1      -5.150   9.630  -0.693  0.00  0.00    +0.000 A 
ATOM     33  C   UNL     1      -4.140   8.787  -0.268  0.00  0.00    +0.006 A 
ENDBRANCH  20  28
BRANCH  20  35
ATOM     34  C   UNL     1       0.554   7.283  -0.534  0.00  0.00    +0.007 C 
ATOM     35  C   UNL     1      -0.549   8.202  -1.062  0.00  0.00    +0.037 C 
ENDBRANCH  20  35
ENDBRANCH  19  23
ENDBRANCH   1  19
TORSDOF 5
