REMARK  Name = ZINC01697900
REMARK  7 active torsions:
REMARK  status: ('A' for Active; 'I' for Inactive)
REMARK    1  A    between atoms: C_1  and  C_2
REMARK    2  A    between atoms: C_5  and  C_20
REMARK    3  A    between atoms: C_6  and  N_8
REMARK    4  A    between atoms: N_8  and  C_9
REMARK    5  A    between atoms: N_8  and  S_16
REMARK    6  A    between atoms: C_14  and  N_15
REMARK    7  A    between atoms: S_16  and  C_19
REMARK                            x       y       z     vdW  Elec       q    Type
REMARK                         _______ _______ _______ _____ _____    ______ ____
ROOT
ATOM      1  N   UNL     1       0.073   2.491   4.717  0.00  0.00    -0.174 N 
ENDROOT
BRANCH   1   7
ATOM      2  C   UNL     1      -0.013   1.086   0.008  0.00  0.00    +0.044 C 
ATOM      3  C   UNL     1      -0.718   1.572   1.248  0.00  0.00    -0.049 A 
ATOM      4  C   UNL     1      -2.084   1.789   1.225  0.00  0.00    +0.004 A 
ATOM      5  C   UNL     1      -2.736   2.230   2.362  0.00  0.00    +0.005 A 
ATOM      6  C   UNL     1      -2.023   2.466   3.521  0.00  0.00    -0.027 A 
ATOM      7  C   UNL     1      -0.650   2.254   3.546  0.00  0.00    +0.060 A 
ATOM      8  C   UNL     1       0.001   1.805   2.404  0.00  0.00    +0.028 A 
ATOM      9  C   UNL     1      -2.734   2.952   4.758  0.00  0.00    +0.046 C 
ENDBRANCH   1   7
BRANCH   1  10
ATOM     10  C   UNL     1       0.708   3.724   4.910  0.00  0.00    +0.077 A 
ATOM     11  C   UNL     1      -0.000   4.797   5.431  0.00  0.00    +0.027 A 
ATOM     12  C   UNL     1       0.630   6.012   5.626  0.00  0.00    +0.002 A 
ATOM     13  C   UNL     1       1.962   6.166   5.292  0.00  0.00    +0.002 A 
ATOM     14  C   UNL     1       2.675   5.104   4.766  0.00  0.00    +0.024 A 
ATOM     15  C   UNL     1       2.053   3.880   4.572  0.00  0.00    +0.048 A 
BRANCH  15  16
ATOM     16  N   UNL     1       2.772   2.803   4.040  0.00  0.00    -0.356 N 
ATOM     17  H   UNL     1       2.335   1.948   3.905  0.00  0.00    +0.142 HD
ATOM     18  H   UNL     1       3.707   2.913   3.806  0.00  0.00    +0.142 HD
ENDBRANCH  15  16
ENDBRANCH   1  10
BRANCH   1  19
ATOM     19  S   UNL     1       0.182   1.314   5.877  0.00  0.00    +0.047 S 
ATOM     20  O   UNL     1       0.400   2.020   7.090  0.00  0.00    -0.155 OA
ATOM     21  O   UNL     1      -0.985   0.522   5.699  0.00  0.00    -0.155 OA
ATOM     22  C   UNL     1       1.659   0.359   5.435  0.00  0.00    +0.219 C 
ENDBRANCH   1  19
TORSDOF 4
