REMARK  Name = ZINC04180963
REMARK  10 active torsions:
REMARK  status: ('A' for Active; 'I' for Inactive)
REMARK    1  A    between atoms: C_1  and  O_2
REMARK    2  A    between atoms: O_2  and  C_3
REMARK    3  A    between atoms: C_5  and  C_12
REMARK    4  A    between atoms: C_7  and  O_10
REMARK    5  A    between atoms: C_8  and  O_9
REMARK    6  A    between atoms: O_10  and  C_11
REMARK    7  A    between atoms: N_13  and  N_14
REMARK    8  A    between atoms: C_15  and  S_17
REMARK    9  A    between atoms: S_17  and  C_18
REMARK   10  A    between atoms: N_23  and  C_26
REMARK                            x       y       z     vdW  Elec       q    Type
REMARK                         _______ _______ _______ _____ _____    ______ ____
ROOT
ATOM      1  N   UNL     1      -7.414   1.257  -0.282  0.00  0.00    -0.217 N 
ATOM      2  C   UNL     1      -8.484   0.394  -0.216  0.00  0.00    +0.146 C 
ATOM      3  N   UNL     1      -8.290  -0.894  -0.291  0.00  0.00    -0.380 N 
ATOM      4  H   UNL     1      -7.559   2.215  -0.226  0.00  0.00    +0.176 HD
ATOM      5  H   UNL     1      -9.044  -1.502  -0.245  0.00  0.00    +0.158 HD
ATOM      6  H   UNL     1      -7.391  -1.243  -0.394  0.00  0.00    +0.158 HD
ENDROOT
BRANCH   1   8
ATOM      7  C   UNL     1      -5.106   1.566  -0.493  0.00  0.00    +0.138 C 
ATOM      8  N   UNL     1      -6.115   0.752  -0.430  0.00  0.00    -0.188 NA
BRANCH   7  11
ATOM      9  C   UNL     1      -1.371   1.408  -0.863  0.00  0.00    +0.166 A 
ATOM     10  C   UNL     1      -2.652   1.909  -0.716  0.00  0.00    +0.059 A 
ATOM     11  C   UNL     1      -3.740   1.035  -0.649  0.00  0.00    +0.002 A 
ATOM     12  C   UNL     1      -3.529  -0.344  -0.730  0.00  0.00    +0.059 A 
ATOM     13  C   UNL     1      -2.246  -0.839  -0.876  0.00  0.00    +0.166 A 
ATOM     14  C   UNL     1      -1.166   0.035  -0.948  0.00  0.00    +0.201 A 
BRANCH   9  16
ATOM     15  C   UNL     1      -0.596   3.656  -0.834  0.00  0.00    +0.277 C 
ATOM     16  O   UNL     1      -0.312   2.259  -0.929  0.00  0.00    -0.491 OA
ENDBRANCH   9  16
BRANCH  14  17
ATOM     17  O   UNL     1       0.095  -0.455  -1.098  0.00  0.00    -0.501 OA
ATOM     18  H   UNL     1       0.547  -0.638  -0.263  0.00  0.00    +0.292 HD
ENDBRANCH  14  17
BRANCH  13  19
ATOM     19  O   UNL     1      -2.041  -2.181  -0.954  0.00  0.00    -0.491 OA
ATOM     20  C   UNL     1      -3.195  -3.020  -0.879  0.00  0.00    +0.277 C 
ENDBRANCH  13  19
ENDBRANCH   7  11
ENDBRANCH   1   8
BRANCH   2  21
ATOM     21  S   UNL     1     -10.117   1.029  -0.029  0.00  0.00    -0.078 S 
BRANCH  21  22
ATOM     22  C   UNL     1     -11.163  -0.454   0.008  0.00  0.00    +0.149 C 
ATOM     23  C   UNL     1     -12.639  -0.071   0.240  0.00  0.00    +0.120 C 
ATOM     24  C   UNL     1     -13.335  -0.568  -1.008  0.00  0.00    +0.228 C 
ATOM     25  O   UNL     1     -14.521  -0.468  -1.237  0.00  0.00    -0.275 OA
ATOM     26  N   UNL     1     -12.433  -1.135  -1.819  0.00  0.00    -0.209 N 
ATOM     27  C   UNL     1     -11.177  -1.129  -1.346  0.00  0.00    +0.240 C 
ATOM     28  O   UNL     1     -10.208  -1.588  -1.912  0.00  0.00    -0.274 OA
BRANCH  26  29
ATOM     29  C   UNL     1     -12.773  -1.693  -3.060  0.00  0.00    +0.044 A 
ATOM     30  C   UNL     1     -12.679  -3.064  -3.255  0.00  0.00    +0.025 A 
ATOM     31  C   UNL     1     -13.015  -3.611  -4.478  0.00  0.00    +0.017 A 
ATOM     32  C   UNL     1     -13.444  -2.793  -5.508  0.00  0.00    +0.018 A 
ATOM     33  C   UNL     1     -13.539  -1.426  -5.316  0.00  0.00    +0.017 A 
ATOM     34  C   UNL     1     -13.210  -0.875  -4.093  0.00  0.00    +0.025 A 
ATOM     35 BR   UNL     1     -13.902  -3.545  -7.182  0.00  0.00    -0.050 Br
ENDBRANCH  26  29
ENDBRANCH  21  22
ENDBRANCH   2  21
TORSDOF 8
