REMARK  Name = ZINC63756213
REMARK  7 active torsions:
REMARK  status: ('A' for Active; 'I' for Inactive)
REMARK    1  A    between atoms: C_1  and  C_2
REMARK    2  A    between atoms: C_5  and  N_8
REMARK    3  A    between atoms: C_17  and  C_21
REMARK    4  A    between atoms: N_19  and  C_20
REMARK    5  A    between atoms: N_23  and  C_24
REMARK    6  A    between atoms: C_24  and  C_25
REMARK    7  A    between atoms: C_25  and  C_26
REMARK                            x       y       z     vdW  Elec       q    Type
REMARK                         _______ _______ _______ _____ _____    ______ ____
ROOT
ATOM      1  N   UNL     1       0.057  -4.172  -0.021  0.00  0.00    -0.191 N 
ATOM      2  C   UNL     1       0.170  -4.833   1.156  0.00  0.00    +0.254 C 
ATOM      3  O   UNL     1       0.456  -4.252   2.181  0.00  0.00    -0.272 OA
ATOM      4  C   UNL     1      -0.076  -6.315   1.140  0.00  0.00    +0.208 C 
ATOM      5  C   UNL     1       0.381  -6.825  -0.216  0.00  0.00    +0.078 C 
ATOM      6  N   UNL     1       0.279  -6.123  -1.316  0.00  0.00    -0.164 NA
ATOM      7  C   UNL     1      -0.043  -4.817  -1.195  0.00  0.00    +0.337 C 
ATOM      8  O   UNL     1      -0.429  -4.207  -2.175  0.00  0.00    -0.250 OA
ATOM      9  C   UNL     1       1.030  -8.040   0.059  0.00  0.00    +0.072 C 
ATOM     10  C   UNL     1       1.242  -8.131   1.426  0.00  0.00    +0.085 C 
ATOM     11  N   UNL     1       0.708  -7.073   2.107  0.00  0.00    -0.322 N 
ATOM     12  C   UNL     1       0.890  -6.746   3.523  0.00  0.00    +0.130 C 
ENDROOT
BRANCH   1  17
ATOM     13  C   UNL     1      -0.016   1.503   0.013  0.00  0.00    +0.044 C 
ATOM     14  C   UNL     1       0.004  -0.004   0.003  0.00  0.00    -0.050 A 
ATOM     15  C   UNL     1      -1.173  -0.710   0.175  0.00  0.00    +0.005 A 
ATOM     16  C   UNL     1      -1.158  -2.091   0.167  0.00  0.00    +0.024 A 
ATOM     17  C   UNL     1       0.039  -2.771  -0.013  0.00  0.00    +0.046 A 
ATOM     18  C   UNL     1       1.219  -2.059  -0.186  0.00  0.00    +0.024 A 
ATOM     19  C   UNL     1       1.197  -0.678  -0.182  0.00  0.00    +0.005 A 
ENDBRANCH   1  17
BRANCH   9  20
ATOM     20  C   UNL     1       1.421  -9.048  -0.938  0.00  0.00    +0.247 C 
ATOM     21  O   UNL     1       1.981 -10.068  -0.584  0.00  0.00    -0.270 OA
ATOM     22  N   UNL     1       1.158  -8.842  -2.244  0.00  0.00    -0.311 N 
ATOM     23  H   UNL     1       0.712  -8.028  -2.526  0.00  0.00    +0.149 HD
BRANCH  22  24
ATOM     24  C   UNL     1       1.548  -9.846  -3.236  0.00  0.00    +0.109 C 
BRANCH  24  25
ATOM     25  C   UNL     1       1.137  -9.370  -4.631  0.00  0.00    +0.052 C 
BRANCH  25  26
ATOM     26  C   UNL     1       1.538 -10.403  -5.653  0.00  0.00    -0.040 C 
ATOM     27  C   UNL     1       0.762 -11.388  -6.161  0.00  0.00    -0.001 A 
ATOM     28  C   UNL     1      -0.633 -11.777  -5.923  0.00  0.00    +0.010 A 
ATOM     29  C   UNL     1      -1.144 -12.833  -6.597  0.00  0.00    +0.001 A 
ATOM     30  C   UNL     1      -0.376 -13.563  -7.514  0.00  0.00    +0.002 A 
ATOM     31  C   UNL     1       0.913 -13.266  -7.786  0.00  0.00    +0.026 A 
ATOM     32  C   UNL     1       1.552 -12.175  -7.135  0.00  0.00    +0.043 A 
ATOM     33  N   UNL     1       2.769 -11.696  -7.225  0.00  0.00    -0.380 N 
ATOM     34  C   UNL     1       2.887 -10.546  -6.322  0.00  0.00    +0.144 C 
ATOM     35  H   UNL     1       3.472 -12.042  -7.796  0.00  0.00    +0.160 HD
ENDBRANCH  25  26
ENDBRANCH  24  25
ENDBRANCH  22  24
ENDBRANCH   9  20
TORSDOF 5
