REMARK  Name = ZINC09389405
REMARK  6 active torsions:
REMARK  status: ('A' for Active; 'I' for Inactive)
REMARK    1  A    between atoms: C_1  and  C_2
REMARK    2  A    between atoms: C_2  and  C_25
REMARK    3  A    between atoms: N_5  and  C_9
REMARK    4  A    between atoms: C_9  and  C_10
REMARK    5  A    between atoms: N_12  and  C_13
REMARK    6  A    between atoms: C_18  and  N_19
REMARK                            x       y       z     vdW  Elec       q    Type
REMARK                         _______ _______ _______ _____ _____    ______ ____
ROOT
ATOM      1  C   UNL     1       2.043   7.172   2.305  0.00  0.00    +0.047 C 
ATOM      2  C   UNL     1       0.721   6.723   2.931  0.00  0.00    +0.135 C 
ATOM      3  C   UNL     1       0.803   6.776   4.444  0.00  0.00    +0.251 C 
ATOM      4  O   UNL     1       1.558   6.152   5.159  0.00  0.00    -0.272 OA
ATOM      5  N   UNL     1      -0.138   7.661   4.829  0.00  0.00    -0.215 N 
ATOM      6  C   UNL     1      -0.795   8.170   3.781  0.00  0.00    +0.310 C 
ATOM      7  O   UNL     1      -1.689   8.988   3.877  0.00  0.00    -0.252 OA
ATOM      8  N   UNL     1      -0.357   7.674   2.610  0.00  0.00    -0.281 N 
ATOM      9  H   UNL     1      -0.686   7.899   1.726  0.00  0.00    +0.152 HD
ENDROOT
BRANCH   2  10
ATOM     10  C   UNL     1       0.360   5.336   2.468  0.00  0.00    -0.012 A 
ATOM     11  C   UNL     1       0.743   4.238   3.216  0.00  0.00    +0.010 A 
ATOM     12  C   UNL     1       0.416   2.961   2.796  0.00  0.00    +0.050 A 
ATOM     13  C   UNL     1      -0.298   2.786   1.622  0.00  0.00    +0.162 A 
ATOM     14  C   UNL     1      -0.683   3.888   0.872  0.00  0.00    +0.162 A 
ATOM     15  C   UNL     1      -0.354   5.165   1.295  0.00  0.00    +0.055 A 
ATOM     16  O   UNL     1      -1.386   3.705  -0.283  0.00  0.00    -0.488 OA
ATOM     17  C   UNL     1      -0.673   3.089  -1.358  0.00  0.00    +0.232 C 
ATOM     18  C   UNL     1      -0.706   1.575  -1.229  0.00  0.00    +0.082 C 
ATOM     19  C   UNL     1       0.027   1.083   0.009  0.00  0.00    +0.232 C 
ATOM     20  O   UNL     1      -0.629   1.532   1.197  0.00  0.00    -0.488 OA
ENDBRANCH   2  10
BRANCH   5  21
ATOM     21  C   UNL     1      -0.408   8.021   6.224  0.00  0.00    +0.214 C 
BRANCH  21  22
ATOM     22  C   UNL     1       0.453   9.194   6.615  0.00  0.00    +0.235 C 
ATOM     23  O   UNL     1       1.216   9.682   5.808  0.00  0.00    -0.274 OA
ATOM     24  N   UNL     1       0.374   9.702   7.861  0.00  0.00    -0.282 N 
ATOM     25  H   UNL     1      -0.291   9.365   8.481  0.00  0.00    +0.155 HD
BRANCH  24  26
ATOM     26  C   UNL     1       1.252  10.716   8.261  0.00  0.00    +0.061 A 
ATOM     27  C   UNL     1       2.487  10.851   7.641  0.00  0.00    +0.045 A 
ATOM     28  C   UNL     1       3.353  11.853   8.038  0.00  0.00    +0.043 A 
ATOM     29  C   UNL     1       2.992  12.724   9.052  0.00  0.00    +0.022 A 
ATOM     30  C   UNL     1       1.764  12.596   9.673  0.00  0.00    +0.031 A 
ATOM     31  C   UNL     1       0.887  11.597   9.278  0.00  0.00    +0.088 A 
ATOM     32 CL   UNL     1       4.897  12.020   7.263  0.00  0.00    -0.083 Cl
BRANCH  31  33
ATOM     33  N   UNL     1      -0.362  11.469   9.903  0.00  0.00    -0.218 N 
ATOM     34  C   UNL     1      -0.890  12.294  10.828  0.00  0.00    +0.225 A 
ATOM     35  N   UNL     1      -2.068  11.830  11.159  0.00  0.00    -0.222 NA
ATOM     36  C   UNL     1      -2.326  10.718  10.472  0.00  0.00    +0.245 A 
ATOM     37  N   UNL     1      -1.314  10.460   9.685  0.00  0.00    -0.153 NA
ENDBRANCH  31  33
ENDBRANCH  24  26
ENDBRANCH  21  22
ENDBRANCH   5  21
TORSDOF 5
