REMARK  Name = ZINC20734796
REMARK  13 active torsions:
REMARK  status: ('A' for Active; 'I' for Inactive)
REMARK    1  A    between atoms: C_1  and  C_2
REMARK    2  A    between atoms: C_2  and  C_3
REMARK    3  A    between atoms: C_3  and  C_4
REMARK    4  A    between atoms: C_4  and  N_5
REMARK    5  A    between atoms: N_5  and  C_6
REMARK    6  A    between atoms: N_5  and  C_10
REMARK    7  A    between atoms: C_6  and  C_7
REMARK    8  A    between atoms: C_7  and  C_8
REMARK    9  A    between atoms: C_8  and  C_9
REMARK   10  A    between atoms: C_10  and  C_11
REMARK   11  A    between atoms: C_14  and  C_16
REMARK   12  A    between atoms: N_18  and  N_19
REMARK   13  A    between atoms: N_22  and  C_23
REMARK                            x       y       z     vdW  Elec       q    Type
REMARK                         _______ _______ _______ _____ _____    ______ ____
ROOT
ATOM      1  C   UNL     1       3.270  -0.890   0.310  0.00  0.00    +0.295 C 
ATOM      2  O   UNL     1       4.282  -0.214   0.309  0.00  0.00    -0.265 OA
ATOM      3  N   UNL     1       2.063  -0.298   0.209  0.00  0.00    -0.227 N 
ATOM      4  H   UNL     1       1.149  -0.909   0.210  0.00  0.00    +0.173 HD
ENDROOT
BRANCH   3   5
ATOM      5  N   UNL     1       1.974   1.096   0.104  0.00  0.00    -0.218 N 
ATOM      6  C   UNL     1       0.767   1.688   0.004  0.00  0.00    +0.320 C 
ATOM      7  O   UNL     1       0.690   2.898  -0.087  0.00  0.00    -0.251 OA
ATOM      8  N   UNL     1      -0.353   0.940   0.005  0.00  0.00    -0.268 N 
ATOM      9  H   UNL     1       2.888   1.708   0.104  0.00  0.00    +0.174 HD
ATOM     10  H   UNL     1      -0.281  -0.158   0.020  0.00  0.00    +0.156 HD
BRANCH   8  11
ATOM     11  C   UNL     1      -1.609   1.558  -0.015  0.00  0.00    +0.036 A 
ATOM     12  C   UNL     1      -2.675   0.991   0.672  0.00  0.00    +0.025 A 
ATOM     13  C   UNL     1      -3.911   1.605   0.656  0.00  0.00    +0.023 A 
ATOM     14  C   UNL     1      -4.092   2.780  -0.052  0.00  0.00    +0.059 A 
ATOM     15  C   UNL     1      -3.033   3.346  -0.742  0.00  0.00    +0.061 A 
ATOM     16  C   UNL     1      -1.792   2.737  -0.724  0.00  0.00    +0.044 A 
ATOM     17 CL   UNL     1      -3.264   4.820  -1.629  0.00  0.00    -0.082 Cl
ATOM     18 CL   UNL     1      -5.650   3.547  -0.075  0.00  0.00    -0.082 Cl
ENDBRANCH   8  11
ENDBRANCH   3   5
BRANCH   1  22
ATOM     19  C   UNL     1       2.789  -4.463   0.544  0.00  0.00    +0.090 A 
ATOM     20  C   UNL     1       4.139  -4.423   0.607  0.00  0.00    +0.043 A 
ATOM     21  C   UNL     1       4.516  -3.074   0.522  0.00  0.00    +0.055 A 
ATOM     22  C   UNL     1       3.363  -2.349   0.420  0.00  0.00    +0.191 A 
ATOM     23  O   UNL     1       2.326  -3.212   0.432  0.00  0.00    -0.457 OA
BRANCH  19  24
ATOM     24  C   UNL     1       1.945  -5.711   0.594  0.00  0.00    -0.003 C 
BRANCH  24  25
ATOM     25  N   UNL     1       1.604  -6.016   1.990  0.00  0.00    +0.384 N 
ATOM     26  H   UNL     1       1.174  -5.108   2.439  0.00  0.00    -0.081 HD
BRANCH  25  27
ATOM     27  C   UNL     1       0.593  -7.079   2.065  0.00  0.00    -0.078 C 
BRANCH  27  28
ATOM     28  C   UNL     1      -0.720  -6.577   1.463  0.00  0.00    -0.019 C 
BRANCH  28  30
ATOM     29  C   UNL     1      -3.122  -7.134   1.055  0.00  0.00    +0.004 C 
ATOM     30  C   UNL     1      -1.808  -7.636   1.657  0.00  0.00    -0.005 C 
ENDBRANCH  28  30
ENDBRANCH  27  28
ENDBRANCH  25  27
BRANCH  25  31
ATOM     31  C   UNL     1       2.804  -6.375   2.759  0.00  0.00    -0.078 C 
BRANCH  31  32
ATOM     32  C   UNL     1       2.488  -6.314   4.255  0.00  0.00    -0.019 C 
BRANCH  32  33
ATOM     33  C   UNL     1       3.767  -6.564   5.056  0.00  0.00    -0.005 C 
ATOM     34  C   UNL     1       3.451  -6.503   6.552  0.00  0.00    +0.004 C 
ENDBRANCH  32  33
ENDBRANCH  31  32
ENDBRANCH  25  31
ENDBRANCH  24  25
ENDBRANCH  19  24
ENDBRANCH   1  22
TORSDOF 11
