REMARK  Name = ZINC31660432
REMARK  6 active torsions:
REMARK  status: ('A' for Active; 'I' for Inactive)
REMARK    1  A    between atoms: C_1  and  C_2
REMARK    2  A    between atoms: C_2  and  C_18
REMARK    3  A    between atoms: N_5  and  C_9
REMARK    4  A    between atoms: C_9  and  C_10
REMARK    5  A    between atoms: C_14  and  C_16
REMARK    6  A    between atoms: C_22  and  N_24
REMARK                            x       y       z     vdW  Elec       q    Type
REMARK                         _______ _______ _______ _____ _____    ______ ____
ROOT
ATOM      1  C   UNL     1      -2.299   5.363  -4.506  0.00  0.00    +0.047 C 
ATOM      2  C   UNL     1      -3.342   5.404  -3.387  0.00  0.00    +0.135 C 
ATOM      3  C   UNL     1      -2.679   5.582  -2.035  0.00  0.00    +0.251 C 
ATOM      4  O   UNL     1      -2.003   6.519  -1.669  0.00  0.00    -0.272 OA
ATOM      5  N   UNL     1      -2.996   4.480  -1.326  0.00  0.00    -0.220 N 
ATOM      6  C   UNL     1      -3.766   3.644  -2.032  0.00  0.00    +0.310 C 
ATOM      7  O   UNL     1      -4.183   2.586  -1.604  0.00  0.00    -0.252 OA
ATOM      8  N   UNL     1      -4.026   4.104  -3.269  0.00  0.00    -0.281 N 
ATOM      9  H   UNL     1      -4.606   3.709  -4.116  0.00  0.00    +0.152 HD
ENDROOT
BRANCH   2  10
ATOM     10  C   UNL     1      -4.339   6.507  -3.633  0.00  0.00    -0.013 A 
ATOM     11  C   UNL     1      -4.095   7.779  -3.150  0.00  0.00    +0.006 A 
ATOM     12  C   UNL     1      -5.007   8.792  -3.379  0.00  0.00    +0.003 A 
ATOM     13  C   UNL     1      -6.167   8.531  -4.084  0.00  0.00    +0.033 A 
ATOM     14  C   UNL     1      -6.413   7.258  -4.563  0.00  0.00    +0.127 A 
ATOM     15  C   UNL     1      -5.499   6.246  -4.337  0.00  0.00    +0.039 A 
BRANCH  14  16
ATOM     16  N   UNL     1      -7.656   6.979  -5.318  0.00  0.00    +0.056 N 
ATOM     17  O   UNL     1      -7.873   5.857  -5.739  0.00  0.00    -0.126 OA
ATOM     18  O   UNL     1      -8.461   7.870  -5.517  0.00  0.00    -0.126 OA
ENDBRANCH  14  16
ENDBRANCH   2  10
BRANCH   5  19
ATOM     19  C   UNL     1      -2.558   4.233   0.049  0.00  0.00    +0.153 C 
BRANCH  19  20
ATOM     20  C   UNL     1      -1.246   3.492   0.033  0.00  0.00    -0.028 A 
ATOM     21  C   UNL     1      -0.055   4.197   0.025  0.00  0.00    +0.005 A 
ATOM     22  C   UNL     1       1.154   3.525   0.010  0.00  0.00    +0.002 A 
ATOM     23  C   UNL     1       1.180   2.145   0.002  0.00  0.00    +0.019 A 
ATOM     24  C   UNL     1      -0.017   1.428   0.010  0.00  0.00    +0.052 A 
ATOM     25  C   UNL     1      -1.234   2.113   0.019  0.00  0.00    +0.024 A 
BRANCH  24  26
ATOM     26  C   UNL     1       0.002  -0.004   0.002  0.00  0.00    +0.099 C 
ATOM     27  N   UNL     1       0.018  -1.140  -0.004  0.00  0.00    -0.191 NA
ENDBRANCH  24  26
ENDBRANCH  19  20
ENDBRANCH   5  19
TORSDOF 5
