REMARK  Name = ZINC39252302
REMARK  10 active torsions:
REMARK  status: ('A' for Active; 'I' for Inactive)
REMARK    1  A    between atoms: C_1  and  O_2
REMARK    2  A    between atoms: O_2  and  C_3
REMARK    3  A    between atoms: C_3  and  C_4
REMARK    4  A    between atoms: C_8  and  N_11
REMARK    5  A    between atoms: C_12  and  C_14
REMARK    6  A    between atoms: N_19  and  C_21
REMARK    7  A    between atoms: C_21  and  C_22
REMARK    8  A    between atoms: C_22  and  C_23
REMARK    9  A    between atoms: C_26  and  O_32
REMARK   10  A    between atoms: O_32  and  C_33
REMARK                            x       y       z     vdW  Elec       q    Type
REMARK                         _______ _______ _______ _____ _____    ______ ____
ROOT
ATOM      1  C   UNL     1      -3.325  -3.638   3.266  0.00  0.00    +0.101 C 
ATOM      2  C   UNL     1      -2.675  -4.431   4.423  0.00  0.00    +0.110 C 
ATOM      3  C   UNL     1      -3.830  -4.761   5.342  0.00  0.00    +0.216 C 
ATOM      4  O   UNL     1      -3.719  -5.127   6.493  0.00  0.00    -0.276 OA
ATOM      5  N   UNL     1      -4.997  -4.589   4.698  0.00  0.00    -0.300 N 
ATOM      6  C   UNL     1      -4.783  -4.147   3.314  0.00  0.00    +0.121 C 
ENDROOT
BRANCH   1   8
ATOM      7  N   UNL     1      -1.383  -3.673   1.734  0.00  0.00    -0.290 N 
ATOM      8  C   UNL     1      -2.678  -3.978   1.948  0.00  0.00    +0.220 C 
ATOM      9  O   UNL     1      -3.323  -4.527   1.080  0.00  0.00    -0.275 OA
ATOM     10  H   UNL     1      -0.867  -3.233   2.429  0.00  0.00    +0.151 HD
BRANCH   7  14
ATOM     11  C   UNL     1       0.613  -2.097  -1.041  0.00  0.00    +0.155 C 
ATOM     12  N   UNL     1       1.217  -2.579   0.241  0.00  0.00    -0.239 NA
ATOM     13  N   UNL     1       0.730  -3.918   0.549  0.00  0.00    -0.226 NA
ATOM     14  C   UNL     1      -0.754  -4.004   0.454  0.00  0.00    +0.217 C 
ATOM     15  S   UNL     1      -1.111  -2.714  -0.815  0.00  0.00    -0.099 S 
ATOM     16  H   UNL     1       2.224  -2.561   0.195  0.00  0.00    +0.142 HD
ATOM     17  H   UNL     1       1.052  -4.221   1.456  0.00  0.00    +0.143 HD
BRANCH  11  18
ATOM     18  C   UNL     1       0.652  -0.570  -1.138  0.00  0.00    +0.190 C 
BRANCH  18  20
ATOM     19  C   UNL     1      -0.017   1.425   0.010  0.00  0.00    +0.194 C 
ATOM     20  O   UNL     1       0.002  -0.004   0.002  0.00  0.00    -0.381 OA
ENDBRANCH  18  20
ENDBRANCH  11  18
ENDBRANCH   7  14
ENDBRANCH   1   8
BRANCH   5  21
ATOM     21  C   UNL     1      -6.314  -4.812   5.299  0.00  0.00    +0.112 C 
BRANCH  21  22
ATOM     22  C   UNL     1      -6.809  -3.514   5.940  0.00  0.00    +0.056 C 
BRANCH  22  23
ATOM     23  C   UNL     1      -8.164  -3.744   6.559  0.00  0.00    -0.021 A 
ATOM     24  C   UNL     1      -8.431  -4.279   7.896  0.00  0.00    +0.006 A 
ATOM     25  C   UNL     1      -7.620  -4.712   8.947  0.00  0.00    +0.056 A 
ATOM     26  C   UNL     1      -8.201  -5.173  10.112  0.00  0.00    +0.121 A 
ATOM     27  C   UNL     1      -9.587  -5.205  10.240  0.00  0.00    +0.047 A 
ATOM     28  C   UNL     1     -10.396  -4.780   9.210  0.00  0.00    +0.030 A 
ATOM     29  C   UNL     1      -9.831  -4.313   8.029  0.00  0.00    +0.047 A 
ATOM     30  N   UNL     1     -10.362  -3.831   6.851  0.00  0.00    -0.360 N 
ATOM     31  C   UNL     1      -9.354  -3.493   5.991  0.00  0.00    +0.087 A 
ATOM     32  H   UNL     1     -11.310  -3.742   6.662  0.00  0.00    +0.165 HD
BRANCH  26  33
ATOM     33  O   UNL     1      -7.415  -5.597  11.138  0.00  0.00    -0.495 OA
ATOM     34  C   UNL     1      -8.080  -6.061  12.315  0.00  0.00    +0.277 C 
ENDBRANCH  26  33
ENDBRANCH  22  23
ENDBRANCH  21  22
ENDBRANCH   5  21
TORSDOF 8
