REMARK  Name = ZINC58937318
REMARK  11 active torsions:
REMARK  status: ('A' for Active; 'I' for Inactive)
REMARK    1  A    between atoms: C_1  and  C_2
REMARK    2  A    between atoms: C_5  and  O_9
REMARK    3  A    between atoms: C_7  and  C_8
REMARK    4  A    between atoms: O_9  and  C_10
REMARK    5  A    between atoms: C_13  and  N_16
REMARK    6  A    between atoms: C_17  and  C_19
REMARK    7  A    between atoms: C_19  and  C_20
REMARK    8  A    between atoms: C_19  and  N_24
REMARK    9  A    between atoms: C_20  and  C_21
REMARK   10  A    between atoms: C_21  and  C_22
REMARK   11  A    between atoms: C_21  and  C_23
REMARK                            x       y       z     vdW  Elec       q    Type
REMARK                         _______ _______ _______ _____ _____    ______ ____
ROOT
ATOM      1  N   UNL     1       0.161  -6.979  -5.151  0.00  0.00    -0.283 N 
ATOM      2  C   UNL     1      -0.945  -7.744  -5.246  0.00  0.00    +0.238 C 
ATOM      3  O   UNL     1      -1.606  -7.981  -4.257  0.00  0.00    -0.273 OA
ATOM      4  H   UNL     1       0.712  -6.824  -5.933  0.00  0.00    +0.155 HD
ENDROOT
BRANCH   1   8
ATOM      5  C   UNL     1       1.228  -5.232  -1.570  0.00  0.00    +0.221 A 
ATOM      6  C   UNL     1       0.631  -6.486  -1.539  0.00  0.00    +0.069 A 
ATOM      7  C   UNL     1       0.266  -7.088  -2.729  0.00  0.00    +0.030 A 
ATOM      8  C   UNL     1       0.513  -6.408  -3.921  0.00  0.00    +0.052 A 
ATOM      9  C   UNL     1       1.113  -5.159  -3.873  0.00  0.00    +0.138 A 
ATOM     10  N   UNL     1       1.444  -4.613  -2.718  0.00  0.00    -0.219 NA
BRANCH   5  11
ATOM     11  O   UNL     1       1.590  -4.633  -0.407  0.00  0.00    -0.438 OA
BRANCH  11  16
ATOM     12  C   UNL     1       3.584   0.629  -0.649  0.00  0.00    +0.044 C 
ATOM     13  C   UNL     1       3.050  -0.779  -0.584  0.00  0.00    -0.047 A 
ATOM     14  C   UNL     1       1.724  -1.029  -0.884  0.00  0.00    +0.007 A 
ATOM     15  C   UNL     1       1.232  -2.318  -0.825  0.00  0.00    +0.046 A 
ATOM     16  C   UNL     1       2.071  -3.363  -0.466  0.00  0.00    +0.131 A 
ATOM     17  C   UNL     1       3.402  -3.110  -0.167  0.00  0.00    +0.050 A 
ATOM     18  C   UNL     1       3.890  -1.819  -0.232  0.00  0.00    -0.044 A 
ATOM     19  C   UNL     1       5.337  -1.544   0.087  0.00  0.00    +0.044 C 
ENDBRANCH  11  16
ENDBRANCH   5  11
ENDBRANCH   1   8
BRANCH   2  20
ATOM     20  C   UNL     1      -1.361  -8.304  -6.582  0.00  0.00    +0.161 C 
BRANCH  20  21
ATOM     21  N   UNL     1      -2.388  -9.330  -6.383  0.00  0.00    -0.288 N 
ATOM     22  C   UNL     1      -2.510 -10.341  -7.265  0.00  0.00    +0.298 C 
ATOM     23  O   UNL     1      -1.712 -10.454  -8.175  0.00  0.00    -0.253 OA
ATOM     24  N   UNL     1      -3.517 -11.228  -7.138  0.00  0.00    -0.313 N 
ATOM     25  H   UNL     1      -2.981  -9.280  -5.617  0.00  0.00    +0.151 HD
ATOM     26  H   UNL     1      -4.154 -11.138  -6.412  0.00  0.00    +0.146 HD
ATOM     27  H   UNL     1      -3.605 -11.956  -7.773  0.00  0.00    +0.146 HD
ENDBRANCH  20  21
BRANCH  20  28
ATOM     28  C   UNL     1      -1.924  -7.180  -7.453  0.00  0.00    +0.034 C 
BRANCH  28  29
ATOM     29  C   UNL     1      -0.841  -6.126  -7.689  0.00  0.00    -0.015 C 
ATOM     30  C   UNL     1       0.281  -6.729  -8.537  0.00  0.00    +0.007 C 
ATOM     31  C   UNL     1      -1.447  -4.927  -8.423  0.00  0.00    +0.007 C 
ENDBRANCH  28  29
ENDBRANCH  20  28
ENDBRANCH   2  20
TORSDOF 7
