REMARK  Name = ZINC04885455
REMARK  7 active torsions:
REMARK  status: ('A' for Active; 'I' for Inactive)
REMARK    1  A    between atoms: C_1  and  C_2
REMARK    2  A    between atoms: C_7  and  C_8
REMARK    3  A    between atoms: N_16  and  C_19
REMARK    4  A    between atoms: C_25  and  C_27
REMARK    5  A    between atoms: C_25  and  C_28
REMARK    6  A    between atoms: C_28  and  O_30
REMARK    7  A    between atoms: O_30  and  C_31
REMARK                            x       y       z     vdW  Elec       q    Type
REMARK                         _______ _______ _______ _____ _____    ______ ____
ROOT
ATOM      1  C   UNL     1       0.058  -0.146   2.604  0.00  0.00    -0.026 C 
ATOM      2  C   UNL     1      -1.355  -0.037   3.169  0.00  0.00    +0.077 C 
ATOM      3  C   UNL     1      -0.947   0.184   4.675  0.00  0.00    +0.086 C 
ATOM      4  C   UNL     1      -2.165   0.712   5.240  0.00  0.00    +0.229 C 
ATOM      5  O   UNL     1      -2.592   0.542   6.362  0.00  0.00    -0.275 OA
ATOM      6  N   UNL     1      -2.734   1.448   4.231  0.00  0.00    -0.210 N 
ATOM      7  C   UNL     1      -2.160   1.212   2.999  0.00  0.00    +0.229 C 
ATOM      8  O   UNL     1      -2.273   1.875   1.991  0.00  0.00    -0.275 OA
ATOM      9  C   UNL     1       0.043  -0.872   4.920  0.00  0.00    +0.041 C 
ATOM     10  N   UNL     1       0.758  -1.024   3.598  0.00  0.00    +0.395 N 
ATOM     11  C   UNL     1       1.036  -0.433   5.998  0.00  0.00    +0.002 C 
ATOM     12  H   UNL     1       0.708  -1.987   3.299  0.00  0.00    -0.083 HD
ATOM     13  H   UNL     1       1.723  -0.741   3.684  0.00  0.00    -0.083 HD
ENDROOT
BRANCH   1  20
ATOM     14  C   UNL     1       2.463  -0.220   1.005  0.00  0.00    +0.044 C 
ATOM     15  C   UNL     1       1.189  -0.828   0.478  0.00  0.00    -0.049 A 
ATOM     16  C   UNL     1       1.173  -1.426  -0.768  0.00  0.00    +0.003 A 
ATOM     17  C   UNL     1       0.004  -1.984  -1.252  0.00  0.00    +0.000 A 
ATOM     18  C   UNL     1      -1.148  -1.945  -0.489  0.00  0.00    +0.000 A 
ATOM     19  C   UNL     1      -1.131  -1.347   0.757  0.00  0.00    +0.002 A 
ATOM     20  C   UNL     1       0.038  -0.793   1.243  0.00  0.00    -0.058 A 
ENDBRANCH   1  20
BRANCH   6  21
ATOM     21  C   UNL     1      -3.799   2.339   4.427  0.00  0.00    +0.044 A 
ATOM     22  C   UNL     1      -4.331   2.520   5.696  0.00  0.00    +0.024 A 
ATOM     23  C   UNL     1      -5.380   3.398   5.885  0.00  0.00    +0.002 A 
ATOM     24  C   UNL     1      -5.900   4.098   4.812  0.00  0.00    +0.000 A 
ATOM     25  C   UNL     1      -5.372   3.921   3.546  0.00  0.00    +0.002 A 
ATOM     26  C   UNL     1      -4.319   3.048   3.352  0.00  0.00    +0.024 A 
ENDBRANCH   6  21
BRANCH   9  27
ATOM     27  C   UNL     1      -0.643  -2.151   5.325  0.00  0.00    +0.296 C 
ATOM     28  O   UNL     1      -1.736  -2.114   5.838  0.00  0.00    -0.252 OA
BRANCH  27  29
ATOM     29  O   UNL     1      -0.039  -3.332   5.117  0.00  0.00    -0.469 OA
ATOM     30  C   UNL     1      -0.747  -4.504   5.525  0.00  0.00    +0.280 C 
ENDBRANCH  27  29
ENDBRANCH   9  27
TORSDOF 4
