REMARK  Name = ZINC63525967
REMARK  5 active torsions:
REMARK  status: ('A' for Active; 'I' for Inactive)
REMARK    1  A    between atoms: C_1  and  C_2
REMARK    2  A    between atoms: C_4  and  C_15
REMARK    3  A    between atoms: C_18  and  O_21
REMARK    4  A    between atoms: O_21  and  C_22
REMARK    5  A    between atoms: C_22  and  C_23
REMARK                            x       y       z     vdW  Elec       q    Type
REMARK                         _______ _______ _______ _____ _____    ______ ____
ROOT
ATOM      1  C   UNL     1      -0.018   1.503   0.010  0.00  0.00    +0.067 C 
ATOM      2  C   UNL     1       0.002  -0.004   0.002  0.00  0.00    +0.064 C 
ATOM      3  C   UNL     1      -1.069  -0.775   0.003  0.00  0.00    +0.014 C 
ATOM      4  C   UNL     1      -2.537  -0.408  -0.086  0.00  0.00    +0.108 C 
ATOM      5  S   UNL     1      -3.476  -1.758   0.708  0.00  0.00    -0.139 S 
ATOM      6  C   UNL     1      -3.470  -3.094  -0.507  0.00  0.00    +0.165 C 
ATOM      7  C   UNL     1      -2.281  -3.221  -1.346  0.00  0.00    +0.225 C 
ATOM      8  O   UNL     1      -2.486  -3.730  -2.428  0.00  0.00    -0.275 OA
ATOM      9  N   UNL     1      -1.028  -2.882  -1.138  0.00  0.00    -0.288 N 
ATOM     10  C   UNL     1      -0.538  -2.189   0.044  0.00  0.00    +0.244 C 
ATOM     11  N   UNL     1       0.916  -1.986  -0.004  0.00  0.00    -0.160 NA
ATOM     12  N   UNL     1       1.125  -0.766  -0.013  0.00  0.00    -0.157 NA
ATOM     13  H   UNL     1      -0.381  -3.111  -1.823  0.00  0.00    +0.151 HD
ENDROOT
BRANCH   4  14
ATOM     14  C   UNL     1      -2.788   0.889   0.639  0.00  0.00    -0.030 A 
ATOM     15  C   UNL     1      -2.500   0.993   1.987  0.00  0.00    +0.008 A 
ATOM     16  C   UNL     1      -2.729   2.181   2.654  0.00  0.00    +0.046 A 
ATOM     17  C   UNL     1      -3.248   3.271   1.970  0.00  0.00    +0.121 A 
ATOM     18  C   UNL     1      -3.535   3.164   0.617  0.00  0.00    +0.046 A 
ATOM     19  C   UNL     1      -3.300   1.975  -0.047  0.00  0.00    +0.008 A 
BRANCH  17  20
ATOM     20  O   UNL     1      -3.474   4.440   2.623  0.00  0.00    -0.488 OA
BRANCH  20  21
ATOM     21  C   UNL     1      -4.010   5.520   1.855  0.00  0.00    +0.256 C 
BRANCH  21  22
ATOM     22  C   UNL     1      -4.192   6.725   2.741  0.00  0.00    +0.006 C 
ATOM     23  C   UNL     1      -3.813   7.907   2.325  0.00  0.00    +0.007 C 
ENDBRANCH  21  22
ENDBRANCH  20  21
ENDBRANCH  17  20
ENDBRANCH   4  14
TORSDOF 4
