REMARK  Name = ZINC12523669
REMARK  16 active torsions:
REMARK  status: ('A' for Active; 'I' for Inactive)
REMARK    1  A    between atoms: C_1  and  C_2
REMARK    2  A    between atoms: C_3  and  N_9
REMARK    3  A    between atoms: C_5  and  C_8
REMARK    4  A    between atoms: N_6  and  N_7
REMARK    5  A    between atoms: N_9  and  C_10
REMARK    6  A    between atoms: N_9  and  S_27
REMARK    7  A    between atoms: C_10  and  C_11
REMARK    8  A    between atoms: C_11  and  O_13
REMARK    9  A    between atoms: O_13  and  C_14
REMARK   10  A    between atoms: C_17  and  C_26
REMARK   11  A    between atoms: C_21  and  C_23
REMARK   12  A    between atoms: C_23  and  C_24
REMARK   13  A    between atoms: C_23  and  C_25
REMARK   14  A    between atoms: S_27  and  C_30
REMARK   15  A    between atoms: C_32  and  N_37
REMARK   16  A    between atoms: C_35  and  N_36
REMARK                            x       y       z     vdW  Elec       q    Type
REMARK                         _______ _______ _______ _____ _____    ______ ____
ROOT
ATOM      1  N   UNL     1      -6.482  -0.228  -0.134  0.00  0.00    -0.173 N 
ENDROOT
BRANCH   1   4
ATOM      2  C   UNL     1      -5.066  -2.932  -0.540  0.00  0.00    +0.069 C 
ATOM      3  C   UNL     1      -5.619  -2.006  -1.593  0.00  0.00    +0.078 A 
ATOM      4  C   UNL     1      -6.237  -0.822  -1.383  0.00  0.00    +0.164 A 
ATOM      5  N   UNL     1      -6.579  -0.317  -2.580  0.00  0.00    -0.215 NA
ATOM      6  C   UNL     1      -6.192  -1.135  -3.521  0.00  0.00    +0.126 A 
ATOM      7  N   UNL     1      -5.593  -2.202  -2.953  0.00  0.00    -0.256 N 
ATOM      8  C   UNL     1      -6.389  -0.925  -5.001  0.00  0.00    +0.088 C 
BRANCH   7   9
ATOM      9  N   UNL     1      -5.060  -3.276  -3.607  0.00  0.00    -0.297 N 
ATOM     10  H   UNL     1      -5.750  -4.002  -3.733  0.00  0.00    +0.163 HD
ATOM     11  H   UNL     1      -4.661  -2.999  -4.492  0.00  0.00    +0.163 HD
ENDBRANCH   7   9
ENDBRANCH   1   4
BRANCH   1  12
ATOM     12  S   UNL     1      -7.414   1.137  -0.036  0.00  0.00    +0.078 S 
ATOM     13  O   UNL     1      -8.332   1.082  -1.120  0.00  0.00    -0.150 OA
ATOM     14  O   UNL     1      -7.838   1.243   1.316  0.00  0.00    -0.150 OA
BRANCH  12  15
ATOM     15  C   UNL     1      -6.357   2.513  -0.341  0.00  0.00    +0.131 A 
ATOM     16  C   UNL     1      -6.469   3.223  -1.521  0.00  0.00    +0.063 A 
ATOM     17  C   UNL     1      -5.643   4.306  -1.759  0.00  0.00    +0.128 A 
ATOM     18  C   UNL     1      -4.695   4.676  -0.822  0.00  0.00    +0.034 A 
ATOM     19  C   UNL     1      -4.574   3.967   0.357  0.00  0.00    +0.027 A 
ATOM     20  C   UNL     1      -5.406   2.882   0.602  0.00  0.00    +0.052 A 
BRANCH  20  21
ATOM     21  N   UNL     1      -5.287   2.163   1.793  0.00  0.00    -0.356 N 
ATOM     22  H   UNL     1      -5.865   1.402   1.961  0.00  0.00    +0.142 HD
ATOM     23  H   UNL     1      -4.626   2.425   2.453  0.00  0.00    +0.142 HD
ENDBRANCH  20  21
BRANCH  17  24
ATOM     24  N   UNL     1      -5.769   5.067  -3.022  0.00  0.00    +0.056 N 
ATOM     25  O   UNL     1      -5.039   6.018  -3.235  0.00  0.00    -0.126 OA
ATOM     26  O   UNL     1      -6.603   4.743  -3.848  0.00  0.00    -0.126 OA
ENDBRANCH  17  24
ENDBRANCH  12  15
ENDBRANCH   1  12
BRANCH   1  27
ATOM     27  C   UNL     1      -5.913  -0.816   1.081  0.00  0.00    +0.253 C 
BRANCH  27  28
ATOM     28  C   UNL     1      -4.438  -0.516   1.141  0.00  0.00    +0.327 C 
ATOM     29  O   UNL     1      -3.924   0.161   0.283  0.00  0.00    -0.249 OA
BRANCH  28  30
ATOM     30  O   UNL     1      -3.695  -1.001   2.148  0.00  0.00    -0.460 OA
BRANCH  30  31
ATOM     31  C   UNL     1      -2.289  -0.638   2.165  0.00  0.00    +0.180 C 
ATOM     32  C   UNL     1      -2.030   0.348   3.305  0.00  0.00    +0.048 C 
ATOM     33  C   UNL     1      -0.548   0.731   3.322  0.00  0.00    -0.011 C 
ATOM     34  C   UNL     1       0.300  -0.525   3.531  0.00  0.00    +0.004 C 
ATOM     35  C   UNL     1       0.041  -1.512   2.391  0.00  0.00    +0.007 C 
ATOM     36  C   UNL     1      -1.441  -1.894   2.374  0.00  0.00    +0.032 C 
ATOM     37  C   UNL     1      -0.175   1.383   1.990  0.00  0.00    +0.007 C 
BRANCH  36  38
ATOM     38  C   UNL     1      -1.700  -2.880   1.233  0.00  0.00    -0.011 C 
ATOM     39  C   UNL     1      -1.211  -2.276  -0.085  0.00  0.00    +0.007 C 
ATOM     40  C   UNL     1      -0.947  -4.184   1.506  0.00  0.00    +0.007 C 
ENDBRANCH  36  38
ENDBRANCH  30  31
ENDBRANCH  28  30
ENDBRANCH  27  28
ENDBRANCH   1  27
TORSDOF 11
