REMARK  Name = ZINC14585187
REMARK  13 active torsions:
REMARK  status: ('A' for Active; 'I' for Inactive)
REMARK    1  A    between atoms: C_2  and  C_3
REMARK    2  A    between atoms: C_3  and  C_4
REMARK    3  A    between atoms: C_7  and  O_41
REMARK    4  A    between atoms: C_8  and  C_10
REMARK    5  A    between atoms: C_12  and  C_17
REMARK    6  A    between atoms: C_15  and  O_16
REMARK    7  A    between atoms: C_19  and  C_39
REMARK    8  A    between atoms: C_23  and  O_38
REMARK    9  A    between atoms: C_25  and  C_28
REMARK   10  A    between atoms: C_30  and  C_35
REMARK   11  A    between atoms: C_33  and  O_34
REMARK   12  A    between atoms: C_35  and  C_36
REMARK   13  A    between atoms: C_39  and  O_40
REMARK                            x       y       z     vdW  Elec       q    Type
REMARK                         _______ _______ _______ _____ _____    ______ ____
ROOT
ATOM      1  C   UNL     1      -3.456  -4.205  -3.672  0.00  0.00    +0.213 C 
ATOM      2  C   UNL     1      -4.894  -4.667  -3.335  0.00  0.00    +0.093 C 
ATOM      3  C   UNL     1      -5.390  -3.535  -2.456  0.00  0.00    +0.007 A 
ATOM      4  C   UNL     1      -6.465  -3.435  -1.599  0.00  0.00    +0.053 A 
ATOM      5  C   UNL     1      -6.683  -2.263  -0.886  0.00  0.00    +0.118 A 
ATOM      6  C   UNL     1      -5.814  -1.196  -1.034  0.00  0.00    +0.057 A 
ATOM      7  C   UNL     1      -4.733  -1.290  -1.905  0.00  0.00    +0.031 A 
ATOM      8  C   UNL     1      -4.515  -2.473  -2.628  0.00  0.00    +0.133 A 
ATOM      9  O   UNL     1      -3.541  -2.776  -3.531  0.00  0.00    -0.483 OA
ENDROOT
BRANCH   1  12
ATOM     10  C   UNL     1      -2.063  -6.109  -6.628  0.00  0.00    +0.027 A 
ATOM     11  C   UNL     1      -2.402  -5.757  -5.324  0.00  0.00    +0.019 A 
ATOM     12  C   UNL     1      -3.090  -4.585  -5.084  0.00  0.00    -0.006 A 
ATOM     13  C   UNL     1      -3.450  -3.760  -6.135  0.00  0.00    +0.011 A 
ATOM     14  C   UNL     1      -3.113  -4.097  -7.433  0.00  0.00    +0.046 A 
ATOM     15  C   UNL     1      -2.423  -5.271  -7.688  0.00  0.00    +0.125 A 
BRANCH  10  20
ATOM     16  C   UNL     1      -1.224  -9.766  -6.865  0.00  0.00    -0.043 A 
ATOM     17  C   UNL     1       0.058  -9.720  -7.383  0.00  0.00    +0.007 A 
ATOM     18  C   UNL     1       0.656  -8.504  -7.658  0.00  0.00    +0.046 A 
ATOM     19  C   UNL     1      -0.028  -7.324  -7.415  0.00  0.00    +0.125 A 
ATOM     20  C   UNL     1      -1.324  -7.367  -6.891  0.00  0.00    +0.027 A 
ATOM     21  C   UNL     1      -1.915  -8.598  -6.613  0.00  0.00    +0.016 A 
BRANCH  19  22
ATOM     22  O   UNL     1       0.559  -6.128  -7.685  0.00  0.00    -0.506 OA
ATOM     23  H   UNL     1       1.058  -5.759  -6.944  0.00  0.00    +0.292 HD
ENDBRANCH  19  22
BRANCH  16  24
ATOM     24  C   UNL     1      -1.866 -11.097  -6.569  0.00  0.00    +0.061 C 
BRANCH  24  26
ATOM     25  C   UNL     1      -2.520 -11.791  -4.321  0.00  0.00    +0.004 C 
ATOM     26  C   UNL     1      -1.550 -11.503  -5.152  0.00  0.00    -0.030 C 
ENDBRANCH  24  26
ENDBRANCH  16  24
ENDBRANCH  10  20
BRANCH  15  27
ATOM     27  O   UNL     1      -2.097  -5.607  -8.963  0.00  0.00    -0.506 OA
ATOM     28  H   UNL     1      -2.768  -6.136  -9.415  0.00  0.00    +0.292 HD
ENDBRANCH  15  27
ENDBRANCH   1  12
BRANCH   7  29
ATOM     29  C   UNL     1      -3.808  -0.143  -2.064  0.00  0.00    +0.027 A 
ATOM     30  C   UNL     1      -3.029   0.283  -0.991  0.00  0.00    +0.016 A 
ATOM     31  C   UNL     1      -2.170   1.352  -1.144  0.00  0.00    -0.043 A 
ATOM     32  C   UNL     1      -2.082   2.007  -2.360  0.00  0.00    +0.007 A 
ATOM     33  C   UNL     1      -2.847   1.589  -3.433  0.00  0.00    +0.046 A 
ATOM     34  C   UNL     1      -3.713   0.518  -3.293  0.00  0.00    +0.125 A 
BRANCH  34  35
ATOM     35  O   UNL     1      -4.469   0.110  -4.346  0.00  0.00    -0.506 OA
ATOM     36  H   UNL     1      -5.331   0.544  -4.404  0.00  0.00    +0.292 HD
ENDBRANCH  34  35
BRANCH  31  37
ATOM     37  C   UNL     1      -1.328   1.812   0.018  0.00  0.00    +0.061 C 
BRANCH  37  38
ATOM     38  C   UNL     1      -0.013   1.076   0.008  0.00  0.00    -0.030 C 
ATOM     39  C   UNL     1       1.113   1.746   0.001  0.00  0.00    +0.004 C 
ENDBRANCH  37  38
ENDBRANCH  31  37
ENDBRANCH   7  29
BRANCH   5  40
ATOM     40  O   UNL     1      -7.745  -2.167  -0.042  0.00  0.00    -0.507 OA
ATOM     41  H   UNL     1      -7.554  -2.448   0.863  0.00  0.00    +0.292 HD
ENDBRANCH   5  40
BRANCH   2  42
ATOM     42  C   UNL     1      -5.741  -4.785  -4.604  0.00  0.00    +0.168 C 
BRANCH  42  43
ATOM     43  O   UNL     1      -7.066  -5.191  -4.255  0.00  0.00    -0.394 OA
ATOM     44  H   UNL     1      -7.661  -5.286  -5.012  0.00  0.00    +0.209 HD
ENDBRANCH  42  43
ENDBRANCH   2  42
TORSDOF 13
