REMARK  Name = ZINC39467528
REMARK  8 active torsions:
REMARK  status: ('A' for Active; 'I' for Inactive)
REMARK    1  A    between atoms: C_1  and  C_2
REMARK    2  A    between atoms: C_2  and  O_3
REMARK    3  A    between atoms: O_3  and  C_4
REMARK    4  A    between atoms: P_13  and  C_25
REMARK    5  A    between atoms: C_21  and  O_22
REMARK    6  A    between atoms: O_22  and  C_23
REMARK    7  A    between atoms: C_23  and  C_24
REMARK    8  A    between atoms: C_30  and  O_31
REMARK                            x       y       z     vdW  Elec       q    Type
REMARK                         _______ _______ _______ _____ _____    ______ ____
ROOT
ATOM      1  C   UNL     1       0.802  -1.824   1.306  0.00  0.00    +0.158 C 
ATOM      2  C   UNL     1       0.281  -2.642   0.389  0.00  0.00    +0.026 C 
ATOM      3  C   UNL     1       0.420  -4.137   0.560  0.00  0.00    +0.019 C 
ATOM      4  C   UNL     1      -0.653  -4.620   1.536  0.00  0.00    -0.002 C 
ATOM      5  C   UNL     1      -0.470  -6.111   1.844  0.00  0.00    -0.020 C 
ATOM      6  C   UNL     1      -1.578  -6.507   2.829  0.00  0.00    +0.157 C 
ATOM      7  O   UNL     1      -1.487  -7.914   3.115  0.00  0.00    -0.316 OA
ATOM      8  P   UNL     1      -0.035  -8.503   3.555  0.00  0.00    +0.291 P 
ATOM      9  O   UNL     1       0.030  -9.958   3.288  0.00  0.00    -0.269 OA
ATOM     10  N   UNL     1       1.060  -7.700   2.617  0.00  0.00    -0.288 NA
ATOM     11  N   UNL     1       0.858  -6.351   2.413  0.00  0.00    +0.398 N 
ATOM     12  C   UNL     1       1.904  -5.926   1.469  0.00  0.00    -0.046 C 
ATOM     13  C   UNL     1       1.803  -4.440   1.143  0.00  0.00    +0.008 C 
ATOM     14  C   UNL     1       2.005  -3.634   2.399  0.00  0.00    +0.025 C 
ATOM     15  C   UNL     1       1.503  -2.391   2.478  0.00  0.00    +0.158 C 
ATOM     16  H   UNL     1       1.818  -8.161   2.226  0.00  0.00    +0.111 HD
ATOM     17  H   UNL     1       0.949  -5.854   3.286  0.00  0.00    -0.055 HD
ENDROOT
BRANCH   8  18
ATOM     18  C   UNL     1       0.272  -8.172   5.311  0.00  0.00    +0.091 A 
ATOM     19  C   UNL     1       0.895  -7.000   5.695  0.00  0.00    +0.018 A 
ATOM     20  C   UNL     1       1.130  -6.747   7.034  0.00  0.00    +0.001 A 
ATOM     21  C   UNL     1       0.743  -7.666   7.992  0.00  0.00    +0.004 A 
ATOM     22  C   UNL     1       0.120  -8.839   7.613  0.00  0.00    +0.046 A 
ATOM     23  C   UNL     1      -0.122  -9.093   6.271  0.00  0.00    +0.131 A 
BRANCH  23  24
ATOM     24  O   UNL     1      -0.740 -10.244   5.896  0.00  0.00    -0.506 OA
ATOM     25  H   UNL     1      -0.134 -10.978   5.726  0.00  0.00    +0.292 HD
ENDBRANCH  23  24
ENDBRANCH   8  18
BRANCH   1  26
ATOM     26  O   UNL     1       0.693  -0.477   1.160  0.00  0.00    -0.489 OA
BRANCH  26  28
ATOM     27  C   UNL     1      -0.019   1.526   0.010  0.00  0.00    +0.048 C 
ATOM     28  C   UNL     1       0.002  -0.004   0.002  0.00  0.00    +0.226 C 
ENDBRANCH  26  28
ENDBRANCH   1  26
BRANCH  15  29
ATOM     29  O   UNL     1       1.656  -1.653   3.609  0.00  0.00    -0.489 OA
BRANCH  29  30
ATOM     30  C   UNL     1       2.344  -2.270   4.698  0.00  0.00    +0.226 C 
ATOM     31  C   UNL     1       2.417  -1.294   5.874  0.00  0.00    +0.048 C 
ENDBRANCH  29  30
ENDBRANCH  15  29
TORSDOF 6
