REMARK  Name = ZINC13942221
REMARK  5 active torsions:
REMARK  status: ('A' for Active; 'I' for Inactive)
REMARK    1  A    between atoms: C_1  and  C_2
REMARK    2  A    between atoms: C_7  and  N_8
REMARK    3  A    between atoms: N_8  and  N_9
REMARK    4  A    between atoms: C_11  and  C_28
REMARK    5  A    between atoms: C_18  and  C_21
REMARK                            x       y       z     vdW  Elec       q    Type
REMARK                         _______ _______ _______ _____ _____    ______ ____
ROOT
ATOM      1  N   UNL     1      -0.391  -0.651   3.598  0.00  0.00    -0.175 NA
ATOM      2  C   UNL     1      -0.065  -0.012   4.707  0.00  0.00    +0.168 C 
ATOM      3  C   UNL     1       0.138   1.434   4.882  0.00  0.00    +0.089 C 
ATOM      4  N   UNL     1       0.446   1.639   6.125  0.00  0.00    -0.173 NA
ATOM      5  N   UNL     1       0.476   0.446   6.846  0.00  0.00    -0.130 N 
ATOM      6  C   UNL     1       0.169  -0.591   6.041  0.00  0.00    +0.294 C 
ATOM      7  O   UNL     1       0.100  -1.767   6.352  0.00  0.00    -0.266 OA
ATOM      8  C   UNL     1       0.774   0.341   8.201  0.00  0.00    +0.189 A 
ATOM      9  N   UNL     1       1.073   1.291   9.067  0.00  0.00    -0.223 NA
ATOM     10  C   UNL     1       1.331   1.011  10.335  0.00  0.00    +0.080 A 
ATOM     11  C   UNL     1       1.288  -0.289  10.756  0.00  0.00    +0.077 A 
ATOM     12  S   UNL     1       0.846  -1.116   9.234  0.00  0.00    -0.058 S 
ATOM     13  C   UNL     1       0.012   2.487   3.811  0.00  0.00    +0.070 C 
ENDROOT
BRANCH  10  14
ATOM     14  C   UNL     1       1.666   2.096  11.289  0.00  0.00    +0.001 A 
ATOM     15  C   UNL     1       1.944   1.796  12.621  0.00  0.00    +0.011 A 
ATOM     16  C   UNL     1       2.254   2.809  13.504  0.00  0.00    +0.016 A 
ATOM     17  C   UNL     1       2.290   4.123  13.069  0.00  0.00    +0.018 A 
ATOM     18  C   UNL     1       2.014   4.427  11.747  0.00  0.00    +0.016 A 
ATOM     19  C   UNL     1       1.708   3.420  10.854  0.00  0.00    +0.011 A 
ATOM     20 BR   UNL     1       2.717   5.507  14.285  0.00  0.00    -0.050 Br
ENDBRANCH  10  14
BRANCH   1  21
ATOM     21  N   UNL     1      -0.705   0.014   2.538  0.00  0.00    -0.237 N 
ATOM     22  H   UNL     1      -0.781   0.981   2.577  0.00  0.00    +0.174 HD
BRANCH  21  29
ATOM     23  C   UNL     1      -1.392   1.562   0.251  0.00  0.00    +0.046 C 
ATOM     24  C   UNL     1      -1.273   0.060   0.194  0.00  0.00    -0.028 A 
ATOM     25  C   UNL     1      -1.494  -0.606  -0.996  0.00  0.00    +0.005 A 
ATOM     26  C   UNL     1      -1.385  -1.983  -1.050  0.00  0.00    +0.000 A 
ATOM     27  C   UNL     1      -1.054  -2.699   0.087  0.00  0.00    +0.002 A 
ATOM     28  C   UNL     1      -0.831  -2.041   1.279  0.00  0.00    +0.025 A 
ATOM     29  C   UNL     1      -0.934  -0.655   1.336  0.00  0.00    +0.051 A 
ENDBRANCH  21  29
ENDBRANCH   1  21
TORSDOF 3
