REMARK  Name = ZINC38547094
REMARK  10 active torsions:
REMARK  status: ('A' for Active; 'I' for Inactive)
REMARK    1  A    between atoms: C_1  and  C_2
REMARK    2  A    between atoms: C_2  and  C_3
REMARK    3  A    between atoms: C_5  and  C_16
REMARK    4  A    between atoms: C_6  and  N_8
REMARK    5  A    between atoms: C_9  and  C_11
REMARK    6  A    between atoms: C_16  and  C_18
REMARK    7  A    between atoms: C_16  and  N_26
REMARK    8  A    between atoms: C_21  and  O_24
REMARK    9  A    between atoms: O_24  and  C_25
REMARK   10  A    between atoms: C_29  and  C_33
REMARK                            x       y       z     vdW  Elec       q    Type
REMARK                         _______ _______ _______ _____ _____    ______ ____
ROOT
ATOM      1  C   UNL     1      -4.514  -1.806  -1.636  0.00  0.00    +0.135 C 
ENDROOT
BRANCH   1   2
ATOM      2  N   UNL     1      -3.846  -2.271  -2.854  0.00  0.00    -0.320 N 
ATOM      3  C   UNL     1      -3.580  -3.624  -3.027  0.00  0.00    +0.097 A 
ATOM      4  C   UNL     1      -4.015  -4.540  -2.074  0.00  0.00    +0.045 A 
ATOM      5  C   UNL     1      -3.744  -5.883  -2.259  0.00  0.00    -0.046 A 
ATOM      6  C   UNL     1      -3.045  -6.268  -3.396  0.00  0.00    +0.021 A 
ATOM      7  C   UNL     1      -2.644  -5.306  -4.301  0.00  0.00    +0.084 A 
ATOM      8  N   UNL     1      -2.921  -4.032  -4.101  0.00  0.00    -0.350 N 
ATOM      9  C   UNL     1      -4.197  -6.907  -1.250  0.00  0.00    +0.044 C 
ATOM     10  H   UNL     1      -3.589  -1.635  -3.540  0.00  0.00    +0.148 HD
ATOM     11  H   UNL     1      -2.631  -3.377  -4.755  0.00  0.00    +0.166 HD
ENDBRANCH   1   2
BRANCH   1  12
ATOM     12  C   UNL     1      -5.188  -0.485  -1.906  0.00  0.00    -0.023 A 
ATOM     13  C   UNL     1      -4.503   0.517  -2.568  0.00  0.00    +0.009 A 
ATOM     14  C   UNL     1      -5.118   1.728  -2.817  0.00  0.00    +0.046 A 
ATOM     15  C   UNL     1      -6.425   1.939  -2.401  0.00  0.00    +0.120 A 
ATOM     16  C   UNL     1      -7.110   0.932  -1.737  0.00  0.00    +0.046 A 
ATOM     17  C   UNL     1      -6.492  -0.279  -1.496  0.00  0.00    +0.009 A 
BRANCH  15  18
ATOM     18  O   UNL     1      -7.032   3.131  -2.644  0.00  0.00    -0.495 OA
ATOM     19  C   UNL     1      -8.378   3.277  -2.188  0.00  0.00    +0.277 C 
ENDBRANCH  15  18
ENDBRANCH   1  12
BRANCH   1  22
ATOM     20  C   UNL     1      -1.281  -1.228   0.169  0.00  0.00    -0.008 A 
ATOM     21  C   UNL     1      -2.171  -1.377  -0.842  0.00  0.00    +0.019 A 
ATOM     22  C   UNL     1      -3.495  -1.635  -0.539  0.00  0.00    +0.006 A 
ATOM     23  C   UNL     1      -3.862  -1.731   0.770  0.00  0.00    +0.078 A 
ATOM     24  S   UNL     1      -2.310  -1.461   1.609  0.00  0.00    -0.078 S 
BRANCH  23  25
ATOM     25  N   UNL     1      -5.124  -1.982   1.313  0.00  0.00    -0.273 N 
ATOM     26  C   UNL     1      -5.283  -2.039   2.650  0.00  0.00    +0.284 C 
ATOM     27  O   UNL     1      -4.326  -1.872   3.384  0.00  0.00    -0.266 OA
ATOM     28  H   UNL     1      -5.886  -2.115   0.728  0.00  0.00    +0.156 HD
BRANCH  26  29
ATOM     29  C   UNL     1      -6.607  -2.303   3.221  0.00  0.00    +0.189 A 
ATOM     30  C   UNL     1      -6.907  -2.381   4.551  0.00  0.00    +0.054 A 
ATOM     31  C   UNL     1      -8.283  -2.646   4.639  0.00  0.00    +0.042 A 
ATOM     32  C   UNL     1      -8.757  -2.717   3.376  0.00  0.00    +0.196 A 
ATOM     33  O   UNL     1      -7.745  -2.504   2.524  0.00  0.00    -0.458 OA
ENDBRANCH  26  29
ENDBRANCH  23  25
BRANCH  20  35
ATOM     34  C   UNL     1       0.436   0.560   0.228  0.00  0.00    +0.009 C 
ATOM     35  C   UNL     1       0.197  -0.946   0.096  0.00  0.00    +0.039 C 
ENDBRANCH  20  35
ENDBRANCH   1  22
TORSDOF 7
