REMARK  Name = ZINC12485087
REMARK  4 active torsions:
REMARK  status: ('A' for Active; 'I' for Inactive)
REMARK    1  A    between atoms: C_1  and  C_2
REMARK    2  A    between atoms: C_7  and  N_12
REMARK    3  A    between atoms: C_9  and  C_11
REMARK    4  A    between atoms: N_17  and  C_22
REMARK                            x       y       z     vdW  Elec       q    Type
REMARK                         _______ _______ _______ _____ _____    ______ ____
ROOT
ATOM      1  N   UNL     1      -2.144  -0.415   1.270  0.00  0.00    -0.325 N 
ATOM      2  C   UNL     1      -3.224  -1.118   0.771  0.00  0.00    +0.133 A 
ATOM      3  C   UNL     1      -3.220  -2.526   0.749  0.00  0.00    +0.078 A 
ATOM      4  C   UNL     1      -2.308  -3.523   1.158  0.00  0.00    +0.148 A 
ATOM      5  N   UNL     1      -2.831  -4.689   0.906  0.00  0.00    -0.177 NA
ATOM      6  N   UNL     1      -4.098  -4.524   0.331  0.00  0.00    -0.249 N 
ATOM      7  C   UNL     1      -4.351  -3.188   0.232  0.00  0.00    +0.163 A 
ATOM      8  N   UNL     1      -5.370  -2.460  -0.222  0.00  0.00    -0.216 NA
ATOM      9  C   UNL     1      -5.325  -1.146  -0.185  0.00  0.00    +0.225 A 
ATOM     10  N   UNL     1      -4.288  -0.482   0.294  0.00  0.00    -0.220 NA
ATOM     11  C   UNL     1      -4.996  -5.601  -0.091  0.00  0.00    +0.174 C 
ATOM     12  H   UNL     1      -1.373  -0.892   1.615  0.00  0.00    +0.148 HD
ENDROOT
BRANCH   1  18
ATOM     13  C   UNL     1       1.446   1.602   2.495  0.00  0.00    +0.008 C 
ATOM     14  C   UNL     1       0.011   1.072   2.506  0.00  0.00    -0.009 C 
ATOM     15  C   UNL     1      -0.705   1.566   3.765  0.00  0.00    +0.003 C 
ATOM     16  C   UNL     1      -2.140   1.036   3.776  0.00  0.00    +0.002 C 
ATOM     17  C   UNL     1      -2.880   1.543   2.537  0.00  0.00    +0.022 C 
ATOM     18  C   UNL     1      -2.164   1.050   1.278  0.00  0.00    +0.075 C 
ATOM     19  C   UNL     1      -0.729   1.579   1.267  0.00  0.00    +0.009 C 
ATOM     20  C   UNL     1      -0.013   1.086   0.008  0.00  0.00    +0.009 C 
ENDBRANCH   1  18
TORSDOF 1
