REMARK  Name = ZINC36813013
REMARK  5 active torsions:
REMARK  status: ('A' for Active; 'I' for Inactive)
REMARK    1  A    between atoms: C_1  and  C_2
REMARK    2  A    between atoms: C_5  and  C_8
REMARK    3  A    between atoms: C_8  and  N_9
REMARK    4  A    between atoms: N_9  and  C_10
REMARK    5  A    between atoms: C_19  and  N_20
REMARK                            x       y       z     vdW  Elec       q    Type
REMARK                         _______ _______ _______ _____ _____    ______ ____
ROOT
ATOM      1  C   UNL     1       1.712  -6.107   0.093  0.00  0.00    +0.059 A 
ATOM      2  C   UNL     1       2.982  -6.567   0.506  0.00  0.00    +0.022 A 
ATOM      3  C   UNL     1       4.001  -5.672   0.863  0.00  0.00    +0.027 A 
ATOM      4  C   UNL     1       5.214  -6.154   1.256  0.00  0.00    +0.019 A 
ATOM      5  C   UNL     1       5.454  -7.526   1.308  0.00  0.00    +0.017 A 
ATOM      6  C   UNL     1       4.487  -8.421   0.969  0.00  0.00    +0.027 A 
ATOM      7  C   UNL     1       3.223  -7.962   0.558  0.00  0.00    +0.048 A 
ATOM      8  N   UNL     1       2.256  -8.822   0.220  0.00  0.00    -0.359 N 
ATOM      9  C   UNL     1       1.071  -8.411  -0.165  0.00  0.00    +0.107 A 
ATOM     10  C   UNL     1       0.751  -7.057  -0.238  0.00  0.00    +0.062 A 
ATOM     11 BR   UNL     1       6.587  -4.946   1.736  0.00  0.00    -0.050 Br
ATOM     12  H   UNL     1       2.436  -9.774   0.261  0.00  0.00    +0.165 HD
ENDROOT
BRANCH  10  13
ATOM     13  N   UNL     1      -0.528  -6.654  -0.648  0.00  0.00    -0.355 N 
ATOM     14  H   UNL     1      -0.718  -5.713  -0.791  0.00  0.00    +0.142 HD
ATOM     15  H   UNL     1      -1.223  -7.316  -0.788  0.00  0.00    +0.142 HD
ENDBRANCH  10  13
BRANCH   1  16
ATOM     16  N   UNL     1       1.428  -4.746   0.026  0.00  0.00    -0.338 N 
ATOM     17  H   UNL     1       1.599  -4.255  -0.792  0.00  0.00    +0.146 HD
BRANCH  16  18
ATOM     18  C   UNL     1       0.872  -4.056   1.193  0.00  0.00    +0.137 C 
BRANCH  18  23
ATOM     19  C   UNL     1       4.122   0.559   2.434  0.00  0.00    +0.044 C 
ATOM     20  C   UNL     1       3.274  -0.645   2.110  0.00  0.00    -0.050 A 
ATOM     21  C   UNL     1       2.208  -0.525   1.239  0.00  0.00    +0.003 A 
ATOM     22  C   UNL     1       1.430  -1.629   0.942  0.00  0.00    +0.005 A 
ATOM     23  C   UNL     1       1.720  -2.852   1.516  0.00  0.00    -0.030 A 
ATOM     24  C   UNL     1       2.788  -2.973   2.386  0.00  0.00    +0.005 A 
ATOM     25  C   UNL     1       3.567  -1.870   2.679  0.00  0.00    +0.003 A 
ENDBRANCH  18  23
ENDBRANCH  16  18
ENDBRANCH   1  16
TORSDOF 4
