REMARK  Name = ZINC38556431
REMARK  6 active torsions:
REMARK  status: ('A' for Active; 'I' for Inactive)
REMARK    1  A    between atoms: C_5  and  C_7
REMARK    2  A    between atoms: C_7  and  C_9
REMARK    3  A    between atoms: C_9  and  S_10
REMARK    4  A    between atoms: S_10  and  C_11
REMARK    5  A    between atoms: C_14  and  C_18
REMARK    6  A    between atoms: N_16  and  N_17
REMARK                            x       y       z     vdW  Elec       q    Type
REMARK                         _______ _______ _______ _____ _____    ______ ____
ROOT
ATOM      1  C   UNL     1      -1.258  -5.473  -0.017  0.00  0.00    +0.189 C 
ATOM      2  N   UNL     1      -2.372  -4.822  -0.007  0.00  0.00    -0.161 NA
ATOM      3  N   UNL     1      -3.472  -5.689  -0.001  0.00  0.00    -0.243 N 
ATOM      4  C   UNL     1      -2.919  -7.054  -0.006  0.00  0.00    +0.222 C 
ATOM      5  N   UNL     1      -1.461  -6.845  -0.022  0.00  0.00    -0.223 N 
ATOM      6  H   UNL     1      -4.410  -5.440   0.007  0.00  0.00    +0.170 HD
ENDROOT
BRANCH   4   7
ATOM      7  C   UNL     1      -3.346  -7.812   1.252  0.00  0.00    +0.197 C 
ATOM      8  C   UNL     1      -4.850  -7.996   1.283  0.00  0.00    -0.017 C 
ATOM      9  C   UNL     1      -5.248  -7.351   2.377  0.00  0.00    +0.065 C 
ATOM     10  C   UNL     1      -6.755  -7.464   2.522  0.00  0.00    +0.057 C 
ATOM     11  C   UNL     1      -7.261  -7.904   1.131  0.00  0.00    +0.011 C 
ATOM     12  C   UNL     1      -6.015  -8.616   0.556  0.00  0.00    +0.035 C 
ATOM     13  N   UNL     1      -4.174  -6.802   3.008  0.00  0.00    -0.158 NA
ATOM     14  N   UNL     1      -3.087  -7.008   2.459  0.00  0.00    -0.176 NA
ENDBRANCH   4   7
BRANCH   5  15
ATOM     15  N   UNL     1      -0.497  -7.812  -0.037  0.00  0.00    -0.250 NA
ATOM     16  H   UNL     1       0.425  -7.404  -0.043  0.00  0.00    +0.141 HD
ATOM     17  H   UNL     1      -0.608  -8.445   0.741  0.00  0.00    +0.141 HD
ENDBRANCH   5  15
BRANCH   1  18
ATOM     18  S   UNL     1       0.330  -4.710  -0.028  0.00  0.00    -0.080 S 
BRANCH  18  19
ATOM     19  C   UNL     1      -0.036  -2.933  -0.014  0.00  0.00    +0.156 C 
BRANCH  19  20
ATOM     20  C   UNL     1       1.254  -2.154  -0.022  0.00  0.00    +0.174 C 
ATOM     21  O   UNL     1       2.316  -2.740  -0.036  0.00  0.00    -0.291 OA
BRANCH  20  26
ATOM     22  C   UNL     1      -0.017   1.374   0.010  0.00  0.00    +0.001 A 
ATOM     23  C   UNL     1       1.170   2.087   0.002  0.00  0.00    +0.001 A 
ATOM     24  C   UNL     1       2.384   1.424  -0.013  0.00  0.00    +0.016 A 
ATOM     25  C   UNL     1       2.421   0.044  -0.021  0.00  0.00    +0.028 A 
ATOM     26  C   UNL     1       1.225  -0.683  -0.013  0.00  0.00    +0.032 A 
ATOM     27  C   UNL     1       0.002  -0.004   0.002  0.00  0.00    +0.012 A 
ATOM     28 BR   UNL     1       4.081  -0.861  -0.042  0.00  0.00    -0.050 Br
ENDBRANCH  20  26
ENDBRANCH  19  20
ENDBRANCH  18  19
ENDBRANCH   1  18
TORSDOF 6
