REMARK  Name = ZINC17099290
REMARK  10 active torsions:
REMARK  status: ('A' for Active; 'I' for Inactive)
REMARK    1  A    between atoms: C_1  and  C_2
REMARK    2  A    between atoms: C_4  and  C_33
REMARK    3  A    between atoms: C_5  and  C_18
REMARK    4  A    between atoms: C_6  and  C_17
REMARK    5  A    between atoms: C_7  and  C_8
REMARK    6  A    between atoms: C_8  and  O_9
REMARK    7  A    between atoms: O_9  and  C_10
REMARK    8  A    between atoms: C_21  and  C_32
REMARK    9  A    between atoms: C_27  and  N_31
REMARK   10  A    between atoms: C_28  and  C_29
REMARK                            x       y       z     vdW  Elec       q    Type
REMARK                         _______ _______ _______ _____ _____    ______ ____
ROOT
ATOM      1  C   UNL     1       1.361  -4.503   2.522  0.00  0.00    +0.044 C 
ATOM      2  C   UNL     1       1.789  -5.043   1.182  0.00  0.00    -0.044 A 
ATOM      3  C   UNL     1       1.857  -6.409   0.977  0.00  0.00    +0.007 A 
ATOM      4  C   UNL     1       2.255  -6.904  -0.251  0.00  0.00    -0.046 A 
ATOM      5  C   UNL     1       2.579  -6.034  -1.275  0.00  0.00    -0.028 A 
ATOM      6  C   UNL     1       2.505  -4.668  -1.072  0.00  0.00    -0.039 A 
ATOM      7  C   UNL     1       2.107  -4.173   0.156  0.00  0.00    -0.004 A 
ATOM      8  C   UNL     1       2.859  -3.720  -2.188  0.00  0.00    +0.044 C 
ATOM      9  C   UNL     1       2.335  -8.392  -0.473  0.00  0.00    +0.044 C 
ENDROOT
BRANCH   5  10
ATOM     10  C   UNL     1       3.013  -6.573  -2.614  0.00  0.00    +0.102 C 
ATOM     11  C   UNL     1       1.859  -7.283  -3.274  0.00  0.00    +0.049 A 
ATOM     12  C   UNL     1       0.714  -6.751  -3.850  0.00  0.00    +0.068 A 
ATOM     13  N   UNL     1      -0.015  -7.745  -4.301  0.00  0.00    -0.176 NA
ATOM     14  N   UNL     1       0.654  -8.947  -4.021  0.00  0.00    -0.246 N 
ATOM     15  H   UNL     1       0.333  -9.866  -4.250  0.00  0.00    +0.192 HD
ATOM     16  C   UNL     1       1.801  -8.644  -3.393  0.00  0.00    +0.222 A 
ATOM     17  O   UNL     1       2.778  -9.462  -2.929  0.00  0.00    -0.423 OA
ATOM     18  C   UNL     1       3.953  -8.898  -2.583  0.00  0.00    +0.200 C 
ATOM     19  C   UNL     1       4.132  -7.567  -2.423  0.00  0.00    +0.098 C 
ATOM     20  C   UNL     1       0.366  -5.287  -3.941  0.00  0.00    +0.068 C 
BRANCH  18  21
ATOM     21  N   UNL     1       5.032  -9.723  -2.383  0.00  0.00    -0.328 N 
ATOM     22  H   UNL     1       4.935 -10.682  -2.491  0.00  0.00    +0.145 HD
ATOM     23  H   UNL     1       5.890  -9.347  -2.134  0.00  0.00    +0.145 HD
ENDBRANCH  18  21
BRANCH  19  24
ATOM     24  C   UNL     1       5.429  -7.083  -2.060  0.00  0.00    +0.101 C 
ATOM     25  N   UNL     1       6.459  -6.699  -1.771  0.00  0.00    -0.191 NA
ENDBRANCH  19  24
ENDBRANCH   5  10
BRANCH   7  26
ATOM     26  C   UNL     1       2.027  -2.685   0.379  0.00  0.00    +0.265 C 
BRANCH  26  27
ATOM     27  O   UNL     1       0.719  -2.222   0.036  0.00  0.00    -0.487 OA
BRANCH  27  28
ATOM     28  C   UNL     1       0.478  -0.892   0.180  0.00  0.00    +0.121 A 
ATOM     29  C   UNL     1      -0.770  -0.375  -0.134  0.00  0.00    +0.047 A 
ATOM     30  C   UNL     1      -1.014   0.977   0.013  0.00  0.00    +0.023 A 
ATOM     31  C   UNL     1      -0.013   1.815   0.474  0.00  0.00    +0.041 A 
ATOM     32  C   UNL     1       1.232   1.300   0.788  0.00  0.00    +0.023 A 
ATOM     33  C   UNL     1       1.480  -0.051   0.642  0.00  0.00    +0.047 A 
ATOM     34 CL   UNL     1      -0.322   3.513   0.658  0.00  0.00    -0.084 Cl
ENDBRANCH  27  28
ENDBRANCH  26  27
ENDBRANCH   7  26
TORSDOF 6
