REMARK  Name = ZINC40685862
REMARK  4 active torsions:
REMARK  status: ('A' for Active; 'I' for Inactive)
REMARK    1  A    between atoms: C_1  and  C_2
REMARK    2  A    between atoms: C_6  and  N_8
REMARK    3  A    between atoms: C_10  and  N_24
REMARK    4  A    between atoms: C_11  and  N_15
REMARK                            x       y       z     vdW  Elec       q    Type
REMARK                         _______ _______ _______ _____ _____    ______ ____
ROOT
ATOM      1  N   UNL     1       0.158  -2.646   2.417  0.00  0.00    -0.283 N 
ATOM      2  C   UNL     1       0.017  -4.028   2.468  0.00  0.00    +0.150 A 
ATOM      3  C   UNL     1      -0.077  -4.688   3.697  0.00  0.00    +0.110 A 
ATOM      4  C   UNL     1      -0.216  -6.076   3.691  0.00  0.00    +0.182 A 
ATOM      5  N   UNL     1      -0.254  -6.714   2.524  0.00  0.00    -0.215 NA
ATOM      6  C   UNL     1      -0.162  -6.055   1.388  0.00  0.00    +0.225 A 
ATOM      7  N   UNL     1      -0.035  -4.744   1.348  0.00  0.00    -0.219 NA
ATOM      8  H   UNL     1       0.264  -2.139   3.237  0.00  0.00    +0.155 HD
ENDROOT
BRANCH   4   9
ATOM      9  N   UNL     1      -0.314  -6.784   4.891  0.00  0.00    -0.192 N 
ATOM     10  C   UNL     1      -1.231  -7.766   5.195  0.00  0.00    +0.096 A 
ATOM     11  C   UNL     1      -2.284  -8.352   4.502  0.00  0.00    +0.030 A 
ATOM     12  C   UNL     1      -3.033  -9.337   5.105  0.00  0.00    +0.002 A 
ATOM     13  C   UNL     1      -2.743  -9.748   6.400  0.00  0.00    +0.002 A 
ATOM     14  C   UNL     1      -1.715  -9.184   7.097  0.00  0.00    +0.032 A 
ATOM     15  C   UNL     1      -0.937  -8.181   6.505  0.00  0.00    +0.113 A 
ATOM     16  N   UNL     1       0.120  -7.454   6.937  0.00  0.00    -0.129 NA
ATOM     17  N   UNL     1       0.506  -6.640   6.019  0.00  0.00    -0.058 NA
ENDBRANCH   4   9
BRANCH   1  23
ATOM     18  C   UNL     1       0.047  -2.960  -2.360  0.00  0.00    +0.065 C 
ATOM     19  C   UNL     1       0.093  -2.113  -1.114  0.00  0.00    +0.040 A 
ATOM     20  C   UNL     1       0.120  -0.737  -1.227  0.00  0.00    +0.023 A 
ATOM     21  C   UNL     1       0.161   0.039  -0.076  0.00  0.00    +0.005 A 
ATOM     22  C   UNL     1       0.174  -0.600   1.151  0.00  0.00    +0.044 A 
ATOM     23  C   UNL     1       0.145  -1.990   1.190  0.00  0.00    +0.124 A 
ATOM     24  N   UNL     1       0.101  -2.695   0.070  0.00  0.00    -0.237 NA
ENDBRANCH   1  23
BRANCH   3  25
ATOM     25  N   UNL     1      -0.032  -3.974   4.903  0.00  0.00    -0.352 N 
ATOM     26  H   UNL     1      -0.007  -3.005   4.892  0.00  0.00    +0.143 HD
ATOM     27  H   UNL     1      -0.025  -4.450   5.748  0.00  0.00    +0.143 HD
ENDBRANCH   3  25
TORSDOF 3
