REMARK  Name = ZINC39531077
REMARK  9 active torsions:
REMARK  status: ('A' for Active; 'I' for Inactive)
REMARK    1  A    between atoms: C_1  and  O_2
REMARK    2  A    between atoms: O_2  and  C_3
REMARK    3  A    between atoms: N_6  and  C_10
REMARK    4  A    between atoms: C_10  and  C_12
REMARK    5  A    between atoms: C_10  and  C_15
REMARK    6  A    between atoms: C_12  and  N_13
REMARK    7  A    between atoms: N_13  and  O_14
REMARK    8  A    between atoms: C_18  and  C_21
REMARK    9  A    between atoms: C_21  and  C_22
REMARK                            x       y       z     vdW  Elec       q    Type
REMARK                         _______ _______ _______ _____ _____    ______ ____
ROOT
ATOM      1  C   UNL     1       1.676  -4.101  -1.896  0.00  0.00    -0.021 C 
ENDROOT
BRANCH   1   4
ATOM      2  C   UNL     1       1.673  -0.539  -0.711  0.00  0.00    +0.169 C 
ATOM      3  C   UNL     1       1.461  -2.054  -0.664  0.00  0.00    -0.030 C 
ATOM      4  N   UNL     1       1.862  -2.645  -1.948  0.00  0.00    +0.388 N 
ATOM      5  C   UNL     1       1.038  -2.084  -3.026  0.00  0.00    -0.062 C 
ATOM      6  C   UNL     1       1.246  -0.569  -3.092  0.00  0.00    +0.065 C 
ATOM      7  N   UNL     1       0.873   0.031  -1.804  0.00  0.00    -0.295 NA
ATOM      8  H   UNL     1      -0.114  -0.080  -1.625  0.00  0.00    +0.124 HD
ATOM      9  H   UNL     1       2.834  -2.437  -2.124  0.00  0.00    -0.081 HD
BRANCH   2  11
ATOM     10  C   UNL     1       1.627   1.412   0.680  0.00  0.00    +0.196 C 
ATOM     11  O   UNL     1       1.265   0.038   0.531  0.00  0.00    -0.367 OA
ENDBRANCH   2  11
ENDBRANCH   1   4
BRANCH   1  12
ATOM     12  C   UNL     1       2.401  -4.658  -0.698  0.00  0.00    -0.060 A 
ATOM     13  C   UNL     1       3.643  -4.162  -0.349  0.00  0.00    +0.002 A 
ATOM     14  C   UNL     1       4.308  -4.673   0.750  0.00  0.00    +0.004 A 
ATOM     15  C   UNL     1       3.730  -5.680   1.500  0.00  0.00    -0.043 A 
ATOM     16  C   UNL     1       2.488  -6.176   1.152  0.00  0.00    +0.004 A 
ATOM     17  C   UNL     1       1.821  -5.662   0.056  0.00  0.00    +0.002 A 
BRANCH  15  18
ATOM     18  C   UNL     1       4.455  -6.238   2.698  0.00  0.00    +0.070 C 
BRANCH  18  19
ATOM     19  C   UNL     1       4.077  -5.451   3.926  0.00  0.00    -0.043 A 
ATOM     20  C   UNL     1       4.810  -4.335   4.285  0.00  0.00    +0.004 A 
ATOM     21  C   UNL     1       4.463  -3.613   5.411  0.00  0.00    +0.000 A 
ATOM     22  C   UNL     1       3.383  -4.006   6.178  0.00  0.00    +0.000 A 
ATOM     23  C   UNL     1       2.649  -5.122   5.819  0.00  0.00    +0.000 A 
ATOM     24  C   UNL     1       2.994  -5.841   4.690  0.00  0.00    +0.004 A 
ENDBRANCH  18  19
ENDBRANCH  15  18
ENDBRANCH   1  12
BRANCH   1  25
ATOM     25  C   UNL     1       2.237  -4.733  -3.171  0.00  0.00    +0.100 C 
BRANCH  25  26
ATOM     26  N   UNL     1       1.423  -4.320  -4.322  0.00  0.00    -0.205 NA
ATOM     27  H   UNL     1       0.452  -4.557  -4.181  0.00  0.00    +0.153 HD
BRANCH  26  28
ATOM     28  O   UNL     1       1.932  -4.907  -5.562  0.00  0.00    -0.315 OA
ATOM     29  H   UNL     1       1.426  -4.663  -6.349  0.00  0.00    +0.236 HD
ENDBRANCH  26  28
ENDBRANCH  25  26
ENDBRANCH   1  25
TORSDOF 8
