REMARK  Name = ZINC53399906
REMARK  6 active torsions:
REMARK  status: ('A' for Active; 'I' for Inactive)
REMARK    1  A    between atoms: C_1  and  N_2
REMARK    2  A    between atoms: N_2  and  C_3
REMARK    3  A    between atoms: C_6  and  C_11
REMARK    4  A    between atoms: C_11  and  O_12
REMARK    5  A    between atoms: O_12  and  N_13
REMARK    6  A    between atoms: C_14  and  C_15
REMARK                            x       y       z     vdW  Elec       q    Type
REMARK                         _______ _______ _______ _____ _____    ______ ____
ROOT
ATOM      1  C   UNL     1      -0.001  -4.176  -2.682  0.00  0.00    +0.338 C 
ENDROOT
BRANCH   1   7
ATOM      2  C   UNL     1       0.413   1.326  -0.038  0.00  0.00    +0.132 C 
ATOM      3  N   UNL     1       0.421  -0.136  -0.130  0.00  0.00    -0.306 N 
ATOM      4  C   UNL     1       0.660  -0.944   1.069  0.00  0.00    +0.132 C 
ATOM      5  C   UNL     1       0.203  -0.752  -1.345  0.00  0.00    +0.222 A 
ATOM      6  N   UNL     1       0.205  -2.081  -1.429  0.00  0.00    -0.196 NA
ATOM      7  C   UNL     1      -0.004  -2.672  -2.592  0.00  0.00    +0.176 A 
ATOM      8  N   UNL     1      -0.215  -1.948  -3.677  0.00  0.00    -0.196 NA
ATOM      9  C   UNL     1      -0.218  -0.619  -3.601  0.00  0.00    +0.217 A 
ATOM     10  N   UNL     1      -0.014  -0.021  -2.432  0.00  0.00    -0.181 NA
ATOM     11  N   UNL     1      -0.439   0.137  -4.735  0.00  0.00    -0.327 N 
ATOM     12  H   UNL     1      -0.591  -0.300  -5.587  0.00  0.00    +0.145 HD
ATOM     13  H   UNL     1      -0.441   1.105  -4.679  0.00  0.00    +0.145 HD
ENDBRANCH   1   7
BRANCH   1  14
ATOM     14  O   UNL     1      -1.324  -4.670  -2.464  0.00  0.00    -0.384 OA
BRANCH  14  15
ATOM     15  N   UNL     1      -1.431  -6.080  -2.527  0.00  0.00    -0.069 NA
ATOM     16  C   UNL     1      -2.584  -6.654  -2.346  0.00  0.00    +0.163 C 
ATOM     17  N   UNL     1      -2.666  -8.034  -2.268  0.00  0.00    -0.340 N 
ATOM     18  H   UNL     1      -1.863  -8.573  -2.349  0.00  0.00    +0.144 HD
ATOM     19  H   UNL     1      -3.526  -8.462  -2.133  0.00  0.00    +0.144 HD
BRANCH  16  20
ATOM     20  C   UNL     1      -3.809  -5.831  -2.223  0.00  0.00    +0.019 A 
ATOM     21  C   UNL     1      -3.868  -4.571  -2.817  0.00  0.00    +0.011 A 
ATOM     22  C   UNL     1      -5.012  -3.808  -2.699  0.00  0.00    +0.002 A 
ATOM     23  C   UNL     1      -6.099  -4.292  -1.993  0.00  0.00    +0.020 A 
ATOM     24  C   UNL     1      -6.047  -5.542  -1.401  0.00  0.00    +0.042 A 
ATOM     25  C   UNL     1      -4.909  -6.316  -1.517  0.00  0.00    +0.031 A 
ATOM     26 CL   UNL     1      -7.416  -6.140  -0.517  0.00  0.00    -0.084 Cl
ENDBRANCH  16  20
ENDBRANCH  14  15
ENDBRANCH   1  14
TORSDOF 4
