REMARK  Name = ZINC63598779
REMARK  6 active torsions:
REMARK  status: ('A' for Active; 'I' for Inactive)
REMARK    1  A    between atoms: C_1  and  C_2
REMARK    2  A    between atoms: C_4  and  S_12
REMARK    3  A    between atoms: S_12  and  C_13
REMARK    4  A    between atoms: C_13  and  C_14
REMARK    5  A    between atoms: N_16  and  N_17
REMARK    6  A    between atoms: N_20  and  C_21
REMARK                            x       y       z     vdW  Elec       q    Type
REMARK                         _______ _______ _______ _____ _____    ______ ____
ROOT
ATOM      1  C   UNL     1      -5.105  -1.299  -1.566  0.00  0.00    +0.239 C 
ATOM      2  O   UNL     1      -5.060  -0.522  -2.496  0.00  0.00    -0.273 OA
ATOM      3  N   UNL     1      -6.227  -2.007  -1.332  0.00  0.00    -0.233 N 
ATOM      4  H   UNL     1      -6.263  -2.629  -0.588  0.00  0.00    +0.173 HD
ENDROOT
BRANCH   3   5
ATOM      5  N   UNL     1      -7.343  -1.846  -2.164  0.00  0.00    -0.218 N 
ATOM      6  C   UNL     1      -8.466  -2.554  -1.931  0.00  0.00    +0.320 C 
ATOM      7  O   UNL     1      -9.434  -2.414  -2.653  0.00  0.00    -0.251 OA
ATOM      8  N   UNL     1      -8.515  -3.418  -0.897  0.00  0.00    -0.268 N 
ATOM      9  H   UNL     1      -7.307  -1.225  -2.908  0.00  0.00    +0.174 HD
ATOM     10  H   UNL     1      -7.772  -3.474  -0.277  0.00  0.00    +0.156 HD
BRANCH   8  11
ATOM     11  C   UNL     1      -9.639  -4.232  -0.719  0.00  0.00    +0.035 A 
ATOM     12  C   UNL     1     -10.055  -4.573   0.562  0.00  0.00    +0.025 A 
ATOM     13  C   UNL     1     -11.165  -5.377   0.735  0.00  0.00    +0.022 A 
ATOM     14  C   UNL     1     -11.862  -5.844  -0.366  0.00  0.00    +0.041 A 
ATOM     15  C   UNL     1     -11.449  -5.506  -1.643  0.00  0.00    +0.022 A 
ATOM     16  C   UNL     1     -10.344  -4.697  -1.821  0.00  0.00    +0.025 A 
ATOM     17 CL   UNL     1     -13.255  -6.855  -0.145  0.00  0.00    -0.084 Cl
ENDBRANCH   8  11
ENDBRANCH   3   5
BRANCH   1  18
ATOM     18  C   UNL     1      -3.905  -1.472  -0.671  0.00  0.00    +0.171 C 
BRANCH  18  19
ATOM     19  S   UNL     1      -2.564  -0.391  -1.240  0.00  0.00    -0.117 S 
BRANCH  19  22
ATOM     20  C   UNL     1       0.180   1.219  -0.194  0.00  0.00    +0.036 C 
ATOM     21  C   UNL     1       0.144  -0.299  -0.384  0.00  0.00    +0.113 C 
ATOM     22  C   UNL     1      -1.278  -0.803  -0.276  0.00  0.00    +0.017 C 
ATOM     23  C   UNL     1      -1.283  -1.686   0.800  0.00  0.00    +0.009 A 
ATOM     24  C   UNL     1      -2.304  -2.466   1.388  0.00  0.00    +0.011 A 
ATOM     25  C   UNL     1      -2.017  -3.256   2.454  0.00  0.00    +0.001 A 
ATOM     26  C   UNL     1      -0.731  -3.319   2.992  0.00  0.00    +0.002 A 
ATOM     27  C   UNL     1       0.296  -2.597   2.478  0.00  0.00    +0.026 A 
ATOM     28  C   UNL     1       0.074  -1.750   1.363  0.00  0.00    +0.044 A 
ATOM     29  N   UNL     1       0.892  -0.960   0.690  0.00  0.00    -0.377 N 
ATOM     30  H   UNL     1       1.836  -0.837   0.876  0.00  0.00    +0.160 HD
ENDBRANCH  19  22
ENDBRANCH  18  19
ENDBRANCH   1  18
TORSDOF 5
