REMARK  Name = ZINC67608150
REMARK  9 active torsions:
REMARK  status: ('A' for Active; 'I' for Inactive)
REMARK    1  A    between atoms: C_1  and  C_2
REMARK    2  A    between atoms: C_4  and  C_7
REMARK    3  A    between atoms: C_7  and  N_8
REMARK    4  A    between atoms: N_11  and  C_12
REMARK    5  A    between atoms: C_12  and  C_13
REMARK    6  A    between atoms: C_13  and  C_15
REMARK    7  A    between atoms: C_13  and  N_23
REMARK    8  A    between atoms: C_20  and  O_21
REMARK    9  A    between atoms: O_21  and  C_22
REMARK                            x       y       z     vdW  Elec       q    Type
REMARK                         _______ _______ _______ _____ _____    ______ ____
ROOT
ATOM      1  C   UNL     1      -3.370  -6.723  -4.688  0.00  0.00    -0.017 C 
ENDROOT
BRANCH   1   2
ATOM      2  C   UNL     1      -4.164  -7.911  -5.167  0.00  0.00    -0.018 A 
ATOM      3  C   UNL     1      -3.532  -9.117  -5.396  0.00  0.00    +0.005 A 
ATOM      4  C   UNL     1      -4.259 -10.208  -5.836  0.00  0.00    +0.000 A 
ATOM      5  C   UNL     1      -5.621 -10.094  -6.047  0.00  0.00    +0.004 A 
ATOM      6  C   UNL     1      -6.258  -8.889  -5.818  0.00  0.00    +0.046 A 
ATOM      7  C   UNL     1      -5.531  -7.795  -5.372  0.00  0.00    +0.122 A 
BRANCH   7   8
ATOM      8  O   UNL     1      -6.156  -6.611  -5.141  0.00  0.00    -0.495 OA
ATOM      9  C   UNL     1      -7.565  -6.565  -5.373  0.00  0.00    +0.277 C 
ENDBRANCH   7   8
ENDBRANCH   1   2
BRANCH   1  10
ATOM     10  N   UNL     1      -1.969  -6.870  -5.104  0.00  0.00    +0.385 N 
ATOM     11  C   UNL     1      -1.869  -6.847  -6.586  0.00  0.00    -0.078 C 
ATOM     12  C   UNL     1      -0.394  -6.445  -6.835  0.00  0.00    -0.020 C 
ATOM     13  C   UNL     1      -0.120  -5.418  -5.712  0.00  0.00    -0.020 C 
ATOM     14  C   UNL     1      -1.172  -5.719  -4.628  0.00  0.00    -0.078 C 
ATOM     15  H   UNL     1      -1.587  -7.731  -4.742  0.00  0.00    -0.081 HD
ENDBRANCH   1  10
BRANCH   1  16
ATOM     16  C   UNL     1      -3.444  -6.641  -3.162  0.00  0.00    +0.095 C 
BRANCH  16  20
ATOM     17  N   UNL     1      -2.012  -8.972  -0.705  0.00  0.00    -0.294 N 
ATOM     18  C   UNL     1      -2.627  -7.899  -1.242  0.00  0.00    +0.300 C 
ATOM     19  O   UNL     1      -3.047  -7.016  -0.521  0.00  0.00    -0.253 OA
ATOM     20  N   UNL     1      -2.775  -7.807  -2.578  0.00  0.00    -0.301 N 
ATOM     21  H   UNL     1      -1.676  -9.677  -1.280  0.00  0.00    +0.151 HD
ATOM     22  H   UNL     1      -2.440  -8.512  -3.154  0.00  0.00    +0.150 HD
BRANCH  17  23
ATOM     23  C   UNL     1      -1.850  -9.072   0.748  0.00  0.00    +0.164 C 
BRANCH  23  27
ATOM     24  C   UNL     1       1.845 -12.397   1.865  0.00  0.00    +0.089 C 
ATOM     25  C   UNL     1       0.493 -11.796   1.574  0.00  0.00    +0.135 A 
ATOM     26  C   UNL     1       0.246 -10.502   1.294  0.00  0.00    +0.072 A 
ATOM     27  C   UNL     1      -1.137 -10.356   1.086  0.00  0.00    +0.101 A 
ATOM     28  N   UNL     1      -1.694 -11.524   1.237  0.00  0.00    -0.081 NA
ATOM     29  O   UNL     1      -0.674 -12.457   1.544  0.00  0.00    -0.360 OA
ENDBRANCH  23  27
ENDBRANCH  17  23
ENDBRANCH  16  20
ENDBRANCH   1  16
TORSDOF 7
