REMARK  Name = ZINC66680083
REMARK  11 active torsions:
REMARK  status: ('A' for Active; 'I' for Inactive)
REMARK    1  A    between atoms: C_1  and  C_2
REMARK    2  A    between atoms: C_5  and  N_11
REMARK    3  A    between atoms: C_7  and  C_8
REMARK    4  A    between atoms: N_14  and  C_15
REMARK    5  A    between atoms: C_15  and  C_16
REMARK    6  A    between atoms: C_16  and  O_17
REMARK    7  A    between atoms: O_17  and  C_18
REMARK    8  A    between atoms: C_23  and  C_24
REMARK    9  A    between atoms: C_24  and  C_25
REMARK   10  A    between atoms: C_24  and  C_26
REMARK   11  A    between atoms: C_24  and  C_27
REMARK                            x       y       z     vdW  Elec       q    Type
REMARK                         _______ _______ _______ _____ _____    ______ ____
ROOT
ATOM      1  N   UNL     1       0.167  -4.358   0.201  0.00  0.00    -0.269 N 
ATOM      2  C   UNL     1       0.250  -5.164  -0.876  0.00  0.00    +0.304 C 
ATOM      3  O   UNL     1       0.184  -4.691  -1.995  0.00  0.00    -0.253 OA
ATOM      4  N   UNL     1       0.407  -6.492  -0.714  0.00  0.00    -0.296 N 
ATOM      5  H   UNL     1       0.147  -4.741   1.093  0.00  0.00    +0.156 HD
ATOM      6  H   UNL     1       0.460  -6.869   0.178  0.00  0.00    +0.150 HD
ENDROOT
BRANCH   1  11
ATOM      7  C   UNL     1      -0.048   1.283  -0.452  0.00  0.00    +0.044 C 
ATOM      8  C   UNL     1       0.007  -0.213  -0.281  0.00  0.00    -0.038 A 
ATOM      9  C   UNL     1       0.676  -0.761   0.794  0.00  0.00    +0.006 A 
ATOM     10  C   UNL     1       0.730  -2.133   0.955  0.00  0.00    +0.023 A 
ATOM     11  C   UNL     1       0.110  -2.970   0.035  0.00  0.00    +0.035 A 
ATOM     12  C   UNL     1      -0.565  -2.429  -1.049  0.00  0.00    +0.036 A 
ATOM     13  C   UNL     1      -0.623  -1.045  -1.208  0.00  0.00    +0.041 A 
BRANCH  13  14
ATOM     14  C   UNL     1      -1.346  -0.460  -2.358  0.00  0.00    +0.242 C 
ATOM     15  O   UNL     1      -1.338   0.743  -2.533  0.00  0.00    -0.270 OA
ATOM     16  N   UNL     1      -2.013  -1.261  -3.212  0.00  0.00    -0.325 N 
ATOM     17  H   UNL     1      -2.020  -2.221  -3.072  0.00  0.00    +0.145 HD
ATOM     18  H   UNL     1      -2.488  -0.877  -3.966  0.00  0.00    +0.145 HD
ENDBRANCH  13  14
ENDBRANCH   1  11
BRANCH   4  19
ATOM     19  C   UNL     1       0.497  -7.368  -1.885  0.00  0.00    +0.146 C 
BRANCH  19  20
ATOM     20  C   UNL     1       0.671  -8.817  -1.427  0.00  0.00    +0.248 C 
BRANCH  20  21
ATOM     21  O   UNL     1      -0.502  -9.240  -0.728  0.00  0.00    -0.490 OA
BRANCH  21  22
ATOM     22  C   UNL     1      -0.511 -10.512  -0.251  0.00  0.00    +0.124 A 
ATOM     23  C   UNL     1       0.589 -11.335  -0.446  0.00  0.00    +0.046 A 
ATOM     24  C   UNL     1       0.578 -12.628   0.041  0.00  0.00    +0.004 A 
ATOM     25  C   UNL     1      -0.529 -13.102   0.721  0.00  0.00    +0.001 A 
ATOM     26  C   UNL     1      -1.626 -12.284   0.916  0.00  0.00    +0.008 A 
ATOM     27  C   UNL     1      -1.617 -10.988   0.437  0.00  0.00    -0.000 A 
BRANCH  27  28
ATOM     28  C   UNL     1      -2.811 -10.095   0.655  0.00  0.00    -0.009 C 
ATOM     29  C   UNL     1      -3.884 -10.859   1.434  0.00  0.00    +0.015 C 
ATOM     30  C   UNL     1      -2.386  -8.860   1.451  0.00  0.00    +0.015 C 
ATOM     31  C   UNL     1      -3.377  -9.660  -0.699  0.00  0.00    +0.015 C 
ENDBRANCH  27  28
ENDBRANCH  21  22
ENDBRANCH  20  21
ENDBRANCH  19  20
ENDBRANCH   4  19
TORSDOF 7
