REMARK  Name = ZINC36490623
REMARK  14 active torsions:
REMARK  status: ('A' for Active; 'I' for Inactive)
REMARK    1  A    between atoms: C_1  and  C_2
REMARK    2  A    between atoms: C_2  and  C_3
REMARK    3  A    between atoms: C_2  and  C_4
REMARK    4  A    between atoms: C_2  and  C_5
REMARK    5  A    between atoms: C_5  and  C_6
REMARK    6  A    between atoms: C_6  and  C_7
REMARK    7  A    between atoms: C_6  and  C_8
REMARK    8  A    between atoms: C_6  and  N_9
REMARK    9  A    between atoms: C_10  and  C_12
REMARK   10  A    between atoms: C_12  and  C_14
REMARK   11  A    between atoms: C_12  and  N_21
REMARK   12  A    between atoms: C_18  and  O_20
REMARK   13  A    between atoms: N_21  and  C_22
REMARK   14  A    between atoms: C_28  and  C_30
REMARK                            x       y       z     vdW  Elec       q    Type
REMARK                         _______ _______ _______ _____ _____    ______ ____
ROOT
ATOM      1  C   UNL     1       5.354  -0.516  -4.211  0.00  0.00    +0.193 C 
ENDROOT
BRANCH   1   2
ATOM      2  C   UNL     1       4.685   0.234  -5.333  0.00  0.00    -0.015 A 
ATOM      3  C   UNL     1       4.152   1.489  -5.105  0.00  0.00    +0.006 A 
ATOM      4  C   UNL     1       3.538   2.179  -6.133  0.00  0.00    +0.004 A 
ATOM      5  C   UNL     1       3.455   1.617  -7.392  0.00  0.00    +0.045 A 
ATOM      6  C   UNL     1       3.989   0.358  -7.624  0.00  0.00    +0.117 A 
ATOM      7  C   UNL     1       4.611  -0.331  -6.592  0.00  0.00    +0.051 A 
BRANCH   6   8
ATOM      8  O   UNL     1       3.909  -0.198  -8.862  0.00  0.00    -0.507 OA
ATOM      9  H   UNL     1       4.660   0.009  -9.435  0.00  0.00    +0.292 HD
ENDBRANCH   6   8
ENDBRANCH   1   2
BRANCH   1  11
ATOM     10  N   UNL     1       3.295  -0.670  -2.849  0.00  0.00    -0.308 N 
ATOM     11  C   UNL     1       4.587  -0.296  -2.932  0.00  0.00    +0.239 C 
ATOM     12  O   UNL     1       5.132   0.217  -1.978  0.00  0.00    -0.273 OA
ATOM     13  H   UNL     1       2.859  -1.081  -3.612  0.00  0.00    +0.149 HD
BRANCH  10  14
ATOM     14  C   UNL     1       2.549  -0.456  -1.607  0.00  0.00    +0.030 C 
ATOM     15  C   UNL     1       2.652   1.014  -1.197  0.00  0.00    +0.031 C 
ATOM     16  C   UNL     1       3.136  -1.336  -0.501  0.00  0.00    +0.031 C 
BRANCH  14  17
ATOM     17  C   UNL     1       1.079  -0.823  -1.824  0.00  0.00    +0.031 C 
BRANCH  17  19
ATOM     18  C   UNL     1       1.045  -1.187  -4.296  0.00  0.00    +0.010 C 
ATOM     19  C   UNL     1       0.605  -0.256  -3.164  0.00  0.00    -0.036 C 
ATOM     20  C   UNL     1       1.217   1.130  -3.376  0.00  0.00    +0.010 C 
ATOM     21  C   UNL     1      -0.921  -0.145  -3.159  0.00  0.00    +0.010 C 
ENDBRANCH  17  19
ENDBRANCH  14  17
ENDBRANCH  10  14
ENDBRANCH   1  11
BRANCH   1  22
ATOM     22  N   UNL     1       6.726  -0.029  -4.047  0.00  0.00    -0.281 N 
ATOM     23  C   UNL     1       7.766  -0.856  -4.271  0.00  0.00    +0.237 C 
ATOM     24  O   UNL     1       8.898  -0.480  -4.050  0.00  0.00    -0.274 OA
BRANCH  23  25
ATOM     25  C   UNL     1       7.523  -2.248  -4.796  0.00  0.00    +0.159 C 
ATOM     26  C   UNL     1       7.240  -3.218  -3.627  0.00  0.00    +0.041 C 
ATOM     27  C   UNL     1       8.649  -3.786  -3.341  0.00  0.00    +0.098 C 
ATOM     28  C   UNL     1       9.387  -3.625  -4.651  0.00  0.00    +0.214 C 
ATOM     29  O   UNL     1      10.420  -4.192  -4.941  0.00  0.00    -0.276 OA
ATOM     30  N   UNL     1       8.732  -2.762  -5.450  0.00  0.00    -0.304 N 
ATOM     31  H   UNL     1       9.020  -2.512  -6.342  0.00  0.00    +0.149 HD
ENDBRANCH  23  25
BRANCH  22  32
ATOM     32  C   UNL     1       6.967   1.357  -3.639  0.00  0.00    +0.077 C 
ATOM     33  C   UNL     1       7.714   2.094  -4.753  0.00  0.00    +0.022 C 
ATOM     34  C   UNL     1       7.965   3.542  -4.328  0.00  0.00    +0.002 C 
ATOM     35  C   UNL     1       8.808   3.559  -3.051  0.00  0.00    +0.000 C 
ATOM     36  C   UNL     1       8.062   2.823  -1.937  0.00  0.00    +0.002 C 
ATOM     37  C   UNL     1       7.810   1.375  -2.363  0.00  0.00    +0.022 C 
ENDBRANCH  22  32
ENDBRANCH   1  22
TORSDOF 9
