REMARK  Name = ZINC28287588
REMARK  8 active torsions:
REMARK  status: ('A' for Active; 'I' for Inactive)
REMARK    1  A    between atoms: C_1  and  C_2
REMARK    2  A    between atoms: C_5  and  C_8
REMARK    3  A    between atoms: C_8  and  C_10
REMARK    4  A    between atoms: C_8  and  N_25
REMARK    5  A    between atoms: C_10  and  N_11
REMARK    6  A    between atoms: C_12  and  C_14
REMARK    7  A    between atoms: C_15  and  C_24
REMARK    8  A    between atoms: C_19  and  C_23
REMARK                            x       y       z     vdW  Elec       q    Type
REMARK                         _______ _______ _______ _____ _____    ______ ____
ROOT
ATOM      1  C   UNL     1      -2.581   0.986   0.049  0.00  0.00    -0.020 C 
ENDROOT
BRANCH   1   2
ATOM      2  N   UNL     1      -3.518   1.726  -0.806  0.00  0.00    +0.385 N 
ATOM      3  C   UNL     1      -4.874   1.135  -0.744  0.00  0.00    -0.078 C 
ATOM      4  C   UNL     1      -5.798   1.680  -1.798  0.00  0.00    -0.019 C 
ATOM      5  C   UNL     1      -5.748   0.745  -3.025  0.00  0.00    -0.002 C 
ATOM      6  C   UNL     1      -4.558   0.966  -3.839  0.00  0.00    -0.002 C 
ATOM      7  C   UNL     1      -3.257   0.697  -3.054  0.00  0.00    -0.019 C 
ATOM      8  C   UNL     1      -2.977   1.885  -2.174  0.00  0.00    -0.078 C 
ATOM      9  H   UNL     1      -3.627   2.748  -0.413  0.00  0.00    -0.081 HD
ENDBRANCH   1   2
BRANCH   1  14
ATOM     10  C   UNL     1       2.622   3.488  -0.192  0.00  0.00    +0.044 C 
ATOM     11  C   UNL     1       1.265   2.835  -0.126  0.00  0.00    -0.050 A 
ATOM     12  C   UNL     1       1.161   1.457  -0.115  0.00  0.00    +0.003 A 
ATOM     13  C   UNL     1      -0.084   0.859  -0.055  0.00  0.00    +0.002 A 
ATOM     14  C   UNL     1      -1.224   1.638  -0.011  0.00  0.00    -0.059 A 
ATOM     15  C   UNL     1      -1.119   3.017  -0.015  0.00  0.00    +0.002 A 
ATOM     16  C   UNL     1       0.125   3.615  -0.076  0.00  0.00    +0.003 A 
ENDBRANCH   1  14
BRANCH   1  17
ATOM     17  C   UNL     1      -3.090   0.997   1.492  0.00  0.00    +0.094 C 
BRANCH  17  18
ATOM     18  N   UNL     1      -4.317   0.203   1.583  0.00  0.00    -0.310 N 
ATOM     19  C   UNL     1      -5.019   0.177   2.734  0.00  0.00    +0.280 C 
ATOM     20  O   UNL     1      -4.633   0.813   3.696  0.00  0.00    -0.267 OA
ATOM     21  H   UNL     1      -4.667  -0.372   0.713  0.00  0.00    +0.149 HD
BRANCH  19  22
ATOM     22  C   UNL     1      -6.251  -0.620   2.825  0.00  0.00    +0.193 A 
ATOM     23  C   UNL     1      -7.036  -0.720   3.929  0.00  0.00    +0.008 A 
ATOM     24  C   UNL     1      -8.139  -1.608   3.562  0.00  0.00    +0.024 A 
ATOM     25  C   UNL     1      -9.258  -2.101   4.237  0.00  0.00    +0.012 A 
ATOM     26  C   UNL     1     -10.124  -2.938   3.591  0.00  0.00    +0.004 A 
ATOM     27  C   UNL     1      -9.898  -3.301   2.270  0.00  0.00    -0.047 A 
ATOM     28  C   UNL     1      -8.800  -2.825   1.586  0.00  0.00    +0.050 A 
ATOM     29  C   UNL     1      -7.905  -1.972   2.222  0.00  0.00    +0.136 A 
ATOM     30  O   UNL     1      -6.775  -1.357   1.824  0.00  0.00    -0.450 OA
ATOM     31  C   UNL     1     -10.865  -4.226   1.576  0.00  0.00    +0.044 C 
ATOM     32  C   UNL     1      -6.816  -0.052   5.261  0.00  0.00    +0.048 C 
ENDBRANCH  19  22
ENDBRANCH  17  18
ENDBRANCH   1  17
TORSDOF 5
