REMARK  Name = ZINC67590756
REMARK  10 active torsions:
REMARK  status: ('A' for Active; 'I' for Inactive)
REMARK    1  A    between atoms: C_1  and  C_2
REMARK    2  A    between atoms: C_4  and  C_30
REMARK    3  A    between atoms: C_9  and  C_10
REMARK    4  A    between atoms: C_10  and  N_11
REMARK    5  A    between atoms: N_14  and  C_15
REMARK    6  A    between atoms: C_15  and  C_16
REMARK    7  A    between atoms: C_16  and  C_18
REMARK    8  A    between atoms: C_16  and  O_29
REMARK    9  A    between atoms: C_18  and  O_19
REMARK   10  A    between atoms: O_19  and  C_20
REMARK                            x       y       z     vdW  Elec       q    Type
REMARK                         _______ _______ _______ _____ _____    ______ ____
ROOT
ATOM      1  N   UNL     1      -1.348   0.142   2.992  0.00  0.00    -0.295 N 
ATOM      2  C   UNL     1      -1.592   0.762   4.163  0.00  0.00    +0.300 C 
ATOM      3  O   UNL     1      -0.671   1.228   4.807  0.00  0.00    -0.253 OA
ATOM      4  N   UNL     1      -2.855   0.865   4.622  0.00  0.00    -0.297 N 
ATOM      5  H   UNL     1      -2.083  -0.230   2.478  0.00  0.00    +0.151 HD
ATOM      6  H   UNL     1      -3.589   0.493   4.108  0.00  0.00    +0.150 HD
ENDROOT
BRANCH   1   7
ATOM      7  C   UNL     1       0.025   0.030   2.493  0.00  0.00    +0.146 C 
BRANCH   7  16
ATOM      8  C   UNL     1      -0.018   1.503   0.010  0.00  0.00    +0.044 C 
ATOM      9  C   UNL     1       0.002  -0.004   0.002  0.00  0.00    -0.039 A 
ATOM     10  C   UNL     1       0.006  -0.706  -1.212  0.00  0.00    +0.024 A 
ATOM     11  C   UNL     1       0.025  -2.059  -1.209  0.00  0.00    +0.016 A 
ATOM     12  N   UNL     1       0.040  -2.750  -0.040  0.00  0.00    -0.326 N 
ATOM     13  H   UNL     1       0.054  -3.720  -0.057  0.00  0.00    +0.169 HD
ATOM     14  C   UNL     1       0.037  -2.105   1.141  0.00  0.00    +0.254 A 
ATOM     15  O   UNL     1       0.051  -2.740   2.183  0.00  0.00    -0.268 OA
ATOM     16  C   UNL     1       0.023  -0.700   1.175  0.00  0.00    +0.037 A 
ATOM     17  C   UNL     1       0.029  -2.807  -2.517  0.00  0.00    +0.063 C 
ENDBRANCH   7  16
ENDBRANCH   1   7
BRANCH   4  18
ATOM     18  C   UNL     1      -3.119   1.538   5.896  0.00  0.00    +0.140 C 
BRANCH  18  19
ATOM     19  C   UNL     1      -4.622   1.517   6.182  0.00  0.00    +0.169 C 
BRANCH  19  20
ATOM     20  O   UNL     1      -5.052   0.168   6.371  0.00  0.00    -0.387 OA
ATOM     21  H   UNL     1      -4.615  -0.284   7.106  0.00  0.00    +0.210 HD
ENDBRANCH  19  20
BRANCH  19  22
ATOM     22  C   UNL     1      -4.912   2.328   7.447  0.00  0.00    +0.261 C 
BRANCH  22  23
ATOM     23  O   UNL     1      -6.324   2.406   7.649  0.00  0.00    -0.489 OA
BRANCH  23  24
ATOM     24  C   UNL     1      -6.755   3.096   8.738  0.00  0.00    +0.124 A 
ATOM     25  C   UNL     1      -5.835   3.691   9.590  0.00  0.00    +0.049 A 
ATOM     26  C   UNL     1      -6.271   4.393  10.698  0.00  0.00    +0.053 A 
ATOM     27  C   UNL     1      -7.626   4.506  10.961  0.00  0.00    +0.166 A 
ATOM     28  C   UNL     1      -8.551   3.910  10.107  0.00  0.00    +0.170 A 
ATOM     29  C   UNL     1      -8.113   3.211   8.994  0.00  0.00    +0.095 A 
ATOM     30  O   UNL     1      -9.807   4.163  10.579  0.00  0.00    -0.452 OA
ATOM     31  C   UNL     1      -9.628   4.571  11.948  0.00  0.00    +0.466 C 
ATOM     32  O   UNL     1      -8.303   5.133  11.968  0.00  0.00    -0.453 OA
ENDBRANCH  23  24
ENDBRANCH  22  23
ENDBRANCH  19  22
ENDBRANCH  18  19
ENDBRANCH   4  18
TORSDOF 8
