REMARK  Name = ZINC04326723
REMARK  7 active torsions:
REMARK  status: ('A' for Active; 'I' for Inactive)
REMARK    1  A    between atoms: C_1  and  C_2
REMARK    2  A    between atoms: C_2  and  C_3
REMARK    3  A    between atoms: C_3  and  C_4
REMARK    4  A    between atoms: C_4  and  O_5
REMARK    5  A    between atoms: O_5  and  C_6
REMARK    6  A    between atoms: C_6  and  C_8
REMARK    7  A    between atoms: C_9  and  N_28
REMARK                            x       y       z     vdW  Elec       q    Type
REMARK                         _______ _______ _______ _____ _____    ______ ____
ROOT
ATOM      1  C   UNL     1      -4.203  -4.452  -0.004  0.00  0.00    +0.117 C 
ATOM      2  C   UNL     1      -4.362  -5.800  -0.085  0.00  0.00    +0.195 C 
ATOM      3  O   UNL     1      -5.583  -6.355  -0.051  0.00  0.00    -0.446 OA
ATOM      4  C   UNL     1      -6.677  -5.628  -0.349  0.00  0.00    +0.115 C 
ATOM      5  C   UNL     1      -6.656  -4.283  -0.291  0.00  0.00    +0.057 C 
ATOM      6  C   UNL     1      -5.401  -3.557   0.125  0.00  0.00    +0.141 C 
ATOM      7  C   UNL     1      -5.528  -3.028   1.520  0.00  0.00    -0.002 A 
ATOM      8  C   UNL     1      -5.710  -3.669   2.726  0.00  0.00    +0.007 A 
ATOM      9  C   UNL     1      -5.790  -2.869   3.860  0.00  0.00    +0.000 A 
ATOM     10  C   UNL     1      -5.692  -1.495   3.778  0.00  0.00    +0.002 A 
ATOM     11  C   UNL     1      -5.508  -0.843   2.569  0.00  0.00    +0.023 A 
ATOM     12  C   UNL     1      -5.427  -1.635   1.422  0.00  0.00    +0.038 A 
ATOM     13  N   UNL     1      -5.248  -1.257   0.103  0.00  0.00    -0.284 N 
ATOM     14  C   UNL     1      -5.221  -2.319  -0.728  0.00  0.00    +0.237 C 
ATOM     15  O   UNL     1      -5.078  -2.288  -1.932  0.00  0.00    -0.274 OA
ATOM     16  C   UNL     1      -7.794  -3.519  -0.616  0.00  0.00    +0.164 C 
ATOM     17  O   UNL     1      -7.741  -2.308  -0.538  0.00  0.00    -0.292 OA
ATOM     18  C   UNL     1      -9.074  -4.176  -1.057  0.00  0.00    +0.080 C 
ATOM     19  C   UNL     1      -8.740  -5.512  -1.729  0.00  0.00    +0.016 C 
ATOM     20  C   UNL     1      -7.935  -6.363  -0.745  0.00  0.00    +0.075 C 
ATOM     21  H   UNL     1      -5.155  -0.337  -0.189  0.00  0.00    +0.155 HD
ENDROOT
BRANCH   2  22
ATOM     22  N   UNL     1      -3.259  -6.603  -0.202  0.00  0.00    -0.329 N 
ATOM     23  H   UNL     1      -2.371  -6.220  -0.139  0.00  0.00    +0.145 HD
ATOM     24  H   UNL     1      -3.367  -7.556  -0.348  0.00  0.00    +0.145 HD
ENDBRANCH   2  22
BRANCH   1  25
ATOM     25  C   UNL     1      -2.914  -3.896  -0.036  0.00  0.00    +0.342 C 
ATOM     26  O   UNL     1      -2.382  -3.532   0.997  0.00  0.00    -0.245 OA
BRANCH  25  27
ATOM     27  O   UNL     1      -2.265  -3.764  -1.213  0.00  0.00    -0.461 OA
BRANCH  27  28
ATOM     28  C   UNL     1      -0.957  -3.191  -1.172  0.00  0.00    +0.232 C 
BRANCH  28  29
ATOM     29  C   UNL     1      -0.384  -3.123  -2.589  0.00  0.00    +0.041 C 
BRANCH  29  31
ATOM     30  C   UNL     1       1.589  -2.442  -3.962  0.00  0.00    +0.004 C 
ATOM     31  C   UNL     1       1.016  -2.509  -2.544  0.00  0.00    -0.000 C 
ENDBRANCH  29  31
ENDBRANCH  28  29
ENDBRANCH  27  28
ENDBRANCH  25  27
ENDBRANCH   1  25
TORSDOF 6
