REMARK  Name = ZINC54251716
REMARK  5 active torsions:
REMARK  status: ('A' for Active; 'I' for Inactive)
REMARK    1  A    between atoms: C_3  and  N_23
REMARK    2  A    between atoms: C_5  and  O_7
REMARK    3  A    between atoms: O_7  and  C_8
REMARK    4  A    between atoms: C_8  and  C_9
REMARK    5  A    between atoms: N_11  and  C_12
REMARK                            x       y       z     vdW  Elec       q    Type
REMARK                         _______ _______ _______ _____ _____    ______ ____
ROOT
ATOM      1  C   UNL     1       0.192  -4.198  -0.027  0.00  0.00    +0.255 C 
ATOM      2  O   UNL     1       1.320  -4.644  -0.050  0.00  0.00    -0.272 OA
ATOM      3  N   UNL     1      -0.864  -5.036  -0.019  0.00  0.00    -0.283 N 
ATOM      4  H   UNL     1      -1.763  -4.682   0.066  0.00  0.00    +0.155 HD
ENDROOT
BRANCH   3   5
ATOM      5  C   UNL     1      -0.662  -6.417  -0.135  0.00  0.00    +0.034 A 
ATOM      6  C   UNL     1       0.456  -7.008   0.450  0.00  0.00    +0.027 A 
ATOM      7  C   UNL     1       0.668  -8.365   0.344  0.00  0.00    +0.049 A 
ATOM      8  C   UNL     1      -0.237  -9.159  -0.349  0.00  0.00    +0.139 A 
ATOM      9  C   UNL     1      -1.367  -8.568  -0.941  0.00  0.00    +0.019 A 
ATOM     10  C   UNL     1      -1.577  -7.191  -0.825  0.00  0.00    +0.035 A 
ATOM     11  C   UNL     1      -2.313  -9.417  -1.671  0.00  0.00    +0.018 A 
ATOM     12  C   UNL     1      -2.057 -10.748  -1.744  0.00  0.00    +0.092 A 
ATOM     13  C   UNL     1      -0.902 -11.274  -1.125  0.00  0.00    +0.337 A 
ATOM     14  O   UNL     1      -0.683 -12.470  -1.199  0.00  0.00    -0.245 OA
ATOM     15  O   UNL     1      -0.040 -10.491  -0.460  0.00  0.00    -0.422 OA
ENDBRANCH   3   5
BRANCH   1  16
ATOM     16  C   UNL     1      -0.029  -2.708  -0.007  0.00  0.00    +0.324 C 
BRANCH  16  17
ATOM     17  O   UNL     1       1.234  -2.039  -0.019  0.00  0.00    -0.483 OA
BRANCH  17  22
ATOM     18  C   UNL     1      -0.017   1.377   0.037  0.00  0.00    +0.006 A 
ATOM     19  C   UNL     1       1.170   2.086   0.026  0.00  0.00    +0.033 A 
ATOM     20  C   UNL     1       2.378   1.415   0.000  0.00  0.00    +0.130 A 
ATOM     21  C   UNL     1       2.403   0.033  -0.015  0.00  0.00    +0.078 A 
ATOM     22  C   UNL     1       1.213  -0.680  -0.004  0.00  0.00    +0.123 A 
ATOM     23  C   UNL     1       0.002  -0.004   0.022  0.00  0.00    +0.046 A 
BRANCH  20  24
ATOM     24  N   UNL     1       3.647   2.177  -0.011  0.00  0.00    +0.057 N 
ATOM     25  O   UNL     1       3.627   3.385   0.002  0.00  0.00    -0.126 OA
ATOM     26  O   UNL     1       4.704   1.590  -0.034  0.00  0.00    -0.126 OA
ENDBRANCH  20  24
ENDBRANCH  17  22
ENDBRANCH  16  17
ENDBRANCH   1  16
TORSDOF 5
