REMARK  Name = ZINC42889692
REMARK  12 active torsions:
REMARK  status: ('A' for Active; 'I' for Inactive)
REMARK    1  A    between atoms: C_1  and  C_2
REMARK    2  A    between atoms: C_2  and  C_3
REMARK    3  A    between atoms: C_2  and  C_4
REMARK    4  A    between atoms: C_2  and  C_25
REMARK    5  A    between atoms: C_4  and  N_5
REMARK    6  A    between atoms: N_8  and  C_9
REMARK    7  A    between atoms: C_9  and  C_11
REMARK    8  A    between atoms: C_9  and  C_13
REMARK    9  A    between atoms: C_11  and  O_12
REMARK   10  A    between atoms: C_13  and  C_15
REMARK   11  A    between atoms: C_13  and  O_24
REMARK   12  A    between atoms: C_18  and  N_21
REMARK                            x       y       z     vdW  Elec       q    Type
REMARK                         _______ _______ _______ _____ _____    ______ ____
ROOT
ATOM      1  N   UNK A   0      -2.298  -0.080   0.885  0.00  0.00    -0.299 N 
ATOM      2  C   UNK A   0      -3.559  -0.407   1.230  0.00  0.00    +0.300 C 
ATOM      3  O   UNK A   0      -4.235  -1.091   0.486  0.00  0.00    -0.253 OA
ATOM      4  N   UNK A   1      -4.071   0.024   2.400  0.00  0.00    -0.292 N 
ATOM      5  H   UNK A   0      -1.758   0.465   1.478  0.00  0.00    +0.150 HD
ATOM      6  H   UNK A   1      -3.531   0.569   2.994  0.00  0.00    +0.151 HD
ENDROOT
BRANCH   1   7
ATOM      7  C   UNK A   0      -1.742  -0.548  -0.387  0.00  0.00    +0.116 C 
BRANCH   7   9
ATOM      8  C   UNK A   0      -0.300   1.489  -0.507  0.00  0.00    +0.017 C 
ATOM      9  C   UNK A   0      -0.306  -0.041  -0.534  0.00  0.00    +0.006 C 
ATOM     10  C   UNK A   0       0.544  -0.575   0.621  0.00  0.00    +0.017 C 
BRANCH   9  11
ATOM     11  C   UNK A   0       0.266  -0.523  -1.842  0.00  0.00    -0.040 A 
ATOM     12  C   UNK A   0      -0.505  -1.295  -2.691  0.00  0.00    +0.004 A 
ATOM     13  C   UNK A   0       0.020  -1.737  -3.891  0.00  0.00    +0.000 A 
ATOM     14  C   UNK A   0       1.315  -1.406  -4.243  0.00  0.00    +0.000 A 
ATOM     15  C   UNK A   0       2.085  -0.633  -3.395  0.00  0.00    +0.000 A 
ATOM     16  C   UNK A   0       1.559  -0.187  -2.196  0.00  0.00    +0.004 A 
ENDBRANCH   9  11
ENDBRANCH   7   9
ENDBRANCH   1   7
BRANCH   4  17
ATOM     17  C   UNK A   1      -5.441  -0.332   2.775  0.00  0.00    +0.133 C 
BRANCH  17  18
ATOM     18  C   UNK A   1      -5.446  -1.706   3.448  0.00  0.00    +0.181 C 
BRANCH  18  19
ATOM     19  O   UNK A   1      -4.712  -1.640   4.672  0.00  0.00    -0.393 OA
ATOM     20  H   UNK A   1      -4.673  -2.478   5.153  0.00  0.00    +0.209 HD
ENDBRANCH  18  19
ENDBRANCH  17  18
BRANCH  17  21
ATOM     21  C   UNK A   1      -5.991   0.713   3.748  0.00  0.00    +0.167 C 
BRANCH  21  22
ATOM     22  C   UNK A   1      -6.056   2.053   3.062  0.00  0.00    -0.017 A 
ATOM     23  C   UNK A   1      -7.159   2.386   2.297  0.00  0.00    +0.008 A 
ATOM     24  C   UNK A   1      -7.219   3.615   1.668  0.00  0.00    +0.033 A 
ATOM     25  C   UNK A   1      -6.176   4.512   1.802  0.00  0.00    +0.126 A 
ATOM     26  C   UNK A   1      -5.073   4.180   2.567  0.00  0.00    +0.033 A 
ATOM     27  C   UNK A   1      -5.015   2.953   3.201  0.00  0.00    +0.008 A 
BRANCH  25  28
ATOM     28  N   UNK A   1      -6.239   5.828   1.127  0.00  0.00    +0.056 N 
ATOM     29  O   UNK A   1      -7.203   6.118   0.458  0.00  0.00    -0.126 OA
ATOM     30  O   UNK A   1      -5.327   6.612   1.245  0.00  0.00    -0.126 OA
ENDBRANCH  25  28
ENDBRANCH  21  22
BRANCH  21  31
ATOM     31  O   UNK A   1      -7.302   0.330   4.169  0.00  0.00    -0.385 OA
ATOM     32  H   UNK A   1      -7.915   0.160   3.441  0.00  0.00    +0.210 HD
ENDBRANCH  21  31
ENDBRANCH  17  21
ENDBRANCH   4  17
TORSDOF 10
