REMARK  Name = ZINC45697813
REMARK  6 active torsions:
REMARK  status: ('A' for Active; 'I' for Inactive)
REMARK    1  A    between atoms: C_8  and  C_11
REMARK    2  A    between atoms: C_11  and  N_12
REMARK    3  A    between atoms: N_15  and  C_16
REMARK    4  A    between atoms: C_19  and  O_22
REMARK    5  A    between atoms: O_22  and  C_23
REMARK    6  A    between atoms: C_23  and  C_24
REMARK                            x       y       z     vdW  Elec       q    Type
REMARK                         _______ _______ _______ _____ _____    ______ ____
ROOT
ATOM      1  N   UNL     1       5.194  -3.267   0.111  0.00  0.00    -0.296 N 
ATOM      2  C   UNL     1       6.057  -4.169  -0.396  0.00  0.00    +0.304 C 
ATOM      3  O   UNL     1       5.685  -4.956  -1.245  0.00  0.00    -0.253 OA
ATOM      4  N   UNL     1       7.333  -4.200   0.038  0.00  0.00    -0.269 N 
ATOM      5  H   UNL     1       5.492  -2.639   0.789  0.00  0.00    +0.150 HD
ATOM      6  H   UNL     1       7.648  -3.530   0.665  0.00  0.00    +0.156 HD
ENDROOT
BRANCH   4   7
ATOM      7  C   UNL     1       8.204  -5.199  -0.417  0.00  0.00    +0.035 A 
ATOM      8  C   UNL     1       9.165  -5.723   0.436  0.00  0.00    +0.027 A 
ATOM      9  C   UNL     1      10.023  -6.708  -0.013  0.00  0.00    +0.047 A 
ATOM     10  C   UNL     1       9.925  -7.173  -1.316  0.00  0.00    +0.121 A 
ATOM     11  C   UNL     1       8.965  -6.648  -2.170  0.00  0.00    +0.047 A 
ATOM     12  C   UNL     1       8.103  -5.668  -1.720  0.00  0.00    +0.027 A 
BRANCH  10  13
ATOM     13  O   UNL     1      10.770  -8.142  -1.758  0.00  0.00    -0.483 OA
BRANCH  13  14
ATOM     14  C   UNL     1      10.612  -8.573  -3.111  0.00  0.00    +0.324 C 
BRANCH  14  15
ATOM     15  C   UNL     1      11.628  -9.643  -3.419  0.00  0.00    +0.248 C 
ATOM     16  O   UNL     1      12.409 -10.002  -2.563  0.00  0.00    -0.272 OA
ATOM     17  N   UNL     1      11.667 -10.202  -4.644  0.00  0.00    -0.327 N 
ATOM     18  H   UNL     1      11.042  -9.916  -5.329  0.00  0.00    +0.145 HD
ATOM     19  H   UNL     1      12.321 -10.891  -4.843  0.00  0.00    +0.145 HD
ENDBRANCH  14  15
ENDBRANCH  13  14
ENDBRANCH  10  13
ENDBRANCH   4   7
BRANCH   1  20
ATOM     20  C   UNL     1       3.808  -3.233  -0.360  0.00  0.00    +0.150 C 
BRANCH  20  28
ATOM     21  C   UNL     1      -0.008   1.391  -0.021  0.00  0.00    +0.000 A 
ATOM     22  C   UNL     1       1.184   2.092  -0.036  0.00  0.00    +0.004 A 
ATOM     23  C   UNL     1       2.388   1.419  -0.051  0.00  0.00    +0.046 A 
ATOM     24  C   UNL     1       2.414   0.026  -0.052  0.00  0.00    +0.124 A 
ATOM     25  C   UNL     1       1.210  -0.666  -0.031  0.00  0.00    -0.002 A 
ATOM     26  C   UNL     1       0.009   0.007  -0.019  0.00  0.00    +0.007 A 
ATOM     27  C   UNL     1       1.548  -2.145  -0.013  0.00  0.00    +0.085 C 
ATOM     28  C   UNL     1       3.047  -2.125   0.371  0.00  0.00    +0.195 C 
ATOM     29  O   UNL     1       3.474  -0.828  -0.079  0.00  0.00    -0.487 OA
ENDBRANCH  20  28
ENDBRANCH   1  20
TORSDOF 6
