REMARK  Name = ZINC37059010
REMARK  6 active torsions:
REMARK  status: ('A' for Active; 'I' for Inactive)
REMARK    1  A    between atoms: C_1  and  C_2
REMARK    2  A    between atoms: C_3  and  C_8
REMARK    3  A    between atoms: C_4  and  C_7
REMARK    4  A    between atoms: C_8  and  N_9
REMARK    5  A    between atoms: N_9  and  C_10
REMARK    6  A    between atoms: C_15  and  N_16
REMARK                            x       y       z     vdW  Elec       q    Type
REMARK                         _______ _______ _______ _____ _____    ______ ____
ROOT
ATOM      1  N   UNL     1       1.458  -0.650  -3.236  0.00  0.00    -0.338 N 
ATOM      2  H   UNL     1       2.213  -0.848  -2.660  0.00  0.00    +0.146 HD
ENDROOT
BRANCH   1   3
ATOM      3  C   UNL     1       1.657   0.026  -4.442  0.00  0.00    +0.058 A 
ATOM      4  C   UNL     1       0.599   0.203  -5.325  0.00  0.00    +0.025 A 
ATOM      5  C   UNL     1       0.800   0.872  -6.516  0.00  0.00    +0.002 A 
ATOM      6  C   UNL     1       2.053   1.366  -6.831  0.00  0.00    +0.002 A 
ATOM      7  C   UNL     1       3.108   1.190  -5.955  0.00  0.00    +0.034 A 
ATOM      8  C   UNL     1       2.913   0.527  -4.759  0.00  0.00    +0.147 A 
BRANCH   8   9
ATOM      9  N   UNL     1       4.042   0.346  -3.820  0.00  0.00    +0.058 N 
ATOM     10  O   UNL     1       3.855   0.420  -2.628  0.00  0.00    -0.126 OA
ATOM     11  O   UNL     1       5.152   0.123  -4.245  0.00  0.00    -0.126 OA
ENDBRANCH   8   9
ENDBRANCH   1   3
BRANCH   1  12
ATOM     12  C   UNL     1       0.108  -1.060  -2.841  0.00  0.00    +0.142 C 
BRANCH  12  15
ATOM     13  C   UNL     1      -0.149   0.315   0.010  0.00  0.00    +0.069 C 
ATOM     14  C   UNL     1       0.052  -1.156  -0.248  0.00  0.00    +0.085 A 
ATOM     15  C   UNL     1       0.167  -1.765  -1.511  0.00  0.00    +0.034 A 
ATOM     16  C   UNL     1       0.337  -3.088  -1.324  0.00  0.00    +0.139 A 
ATOM     17  O   UNL     1       0.333  -3.324  -0.003  0.00  0.00    -0.359 OA
ATOM     18  N   UNL     1       0.157  -2.085   0.660  0.00  0.00    -0.083 NA
ATOM     19  C   UNL     1       0.502  -4.122  -2.408  0.00  0.00    +0.089 C 
ENDBRANCH  12  15
ENDBRANCH   1  12
TORSDOF 4
