REMARK  Name = ZINC63195388
REMARK  10 active torsions:
REMARK  status: ('A' for Active; 'I' for Inactive)
REMARK    1  A    between atoms: C_1  and  C_2
REMARK    2  A    between atoms: C_2  and  C_4
REMARK    3  A    between atoms: C_2  and  N_23
REMARK    4  A    between atoms: N_10  and  C_11
REMARK    5  A    between atoms: C_11  and  C_12
REMARK    6  A    between atoms: N_17  and  C_18
REMARK    7  A    between atoms: C_18  and  C_19
REMARK    8  A    between atoms: C_19  and  C_20
REMARK    9  A    between atoms: C_20  and  C_21
REMARK   10  A    between atoms: C_20  and  C_22
REMARK                            x       y       z     vdW  Elec       q    Type
REMARK                         _______ _______ _______ _____ _____    ______ ____
ROOT
ATOM      1  C   UNL     1      -2.071   1.220  -1.454  0.00  0.00    +0.181 C 
ENDROOT
BRANCH   1   2
ATOM      2  C   UNL     1      -2.649   1.579  -2.799  0.00  0.00    +0.234 C 
ATOM      3  O   UNL     1      -3.013   0.705  -3.555  0.00  0.00    -0.274 OA
ATOM      4  N   UNL     1      -2.761   2.873  -3.161  0.00  0.00    -0.239 N 
ATOM      5  C   UNL     1      -3.277   3.194  -4.364  0.00  0.00    +0.306 C 
ATOM      6  O   UNL     1      -3.642   2.317  -5.122  0.00  0.00    -0.252 OA
ATOM      7  N   UNL     1      -3.390   4.487  -4.725  0.00  0.00    -0.299 N 
ATOM      8  H   UNL     1      -2.470   3.573  -2.556  0.00  0.00    +0.159 HD
ATOM      9  H   UNL     1      -3.098   5.187  -4.120  0.00  0.00    +0.150 HD
BRANCH   7  10
ATOM     10  C   UNL     1      -3.951   4.836  -6.033  0.00  0.00    +0.106 C 
BRANCH  10  11
ATOM     11  C   UNL     1      -3.966   6.358  -6.192  0.00  0.00    +0.022 C 
BRANCH  11  12
ATOM     12  C   UNL     1      -4.553   6.722  -7.557  0.00  0.00    -0.016 C 
ATOM     13  C   UNL     1      -6.021   6.295  -7.612  0.00  0.00    +0.007 C 
ATOM     14  C   UNL     1      -4.453   8.234  -7.768  0.00  0.00    +0.007 C 
ENDBRANCH  11  12
ENDBRANCH  10  11
ENDBRANCH   7  10
ENDBRANCH   1   2
BRANCH   1  20
ATOM     15  C   UNL     1      -1.170  -0.646  -0.204  0.00  0.00    +0.042 C 
ATOM     16  C   UNL     1      -1.066  -2.173  -0.168  0.00  0.00    +0.017 C 
ATOM     17  C   UNL     1      -2.462  -2.769   0.032  0.00  0.00    +0.003 C 
ATOM     18  C   UNL     1      -3.379  -2.292  -1.098  0.00  0.00    +0.015 C 
ATOM     19  C   UNL     1      -3.416  -0.762  -1.107  0.00  0.00    +0.085 C 
ATOM     20  N   UNL     1      -2.057  -0.241  -1.302  0.00  0.00    -0.293 NA
BRANCH  15  22
ATOM     21  C   UNL     1       1.151  -0.486   0.709  0.00  0.00    -0.013 C 
ATOM     22  C   UNL     1       0.221  -0.046  -0.424  0.00  0.00    -0.061 C 
BRANCH  22  23
ATOM     23  N   UNL     1       0.758  -0.514  -1.708  0.00  0.00    +0.381 N 
ATOM     24  H   UNL     1       0.824  -1.521  -1.699  0.00  0.00    -0.090 HD
ATOM     25  H   UNL     1       0.145  -0.224  -2.455  0.00  0.00    -0.090 HD
ATOM     26  H   UNL     1       1.675  -0.118  -1.853  0.00  0.00    -0.090 HD
ENDBRANCH  22  23
ENDBRANCH  15  22
ENDBRANCH   1  20
TORSDOF 7
