REMARK  Name = ZINC11694119
REMARK  8 active torsions:
REMARK  status: ('A' for Active; 'I' for Inactive)
REMARK    1  A    between atoms: C_1  and  O_2
REMARK    2  A    between atoms: O_2  and  C_3
REMARK    3  A    between atoms: C_6  and  C_11
REMARK    4  A    between atoms: C_8  and  O_9
REMARK    5  A    between atoms: O_9  and  C_10
REMARK    6  A    between atoms: N_21  and  C_25
REMARK    7  A    between atoms: C_25  and  C_26
REMARK    8  A    between atoms: C_26  and  C_27
REMARK                            x       y       z     vdW  Elec       q    Type
REMARK                         _______ _______ _______ _____ _____    ______ ____
ROOT
ATOM      1  C   UNL     1       2.765   2.223  -2.038  0.00  0.00    +0.247 C 
ATOM      2  O   UNL     1       3.640   1.718  -2.715  0.00  0.00    -0.270 OA
ATOM      3  N   UNL     1       1.901   1.440  -1.361  0.00  0.00    -0.297 N 
ATOM      4  C   UNL     1       0.890   2.034  -0.476  0.00  0.00    +0.110 C 
ATOM      5  C   UNL     1      -0.491   1.512  -0.886  0.00  0.00    +0.054 C 
ATOM      6  C   UNL     1      -0.471  -0.013  -0.904  0.00  0.00    +0.115 C 
ATOM      7  C   UNL     1       0.563  -0.529  -1.899  0.00  0.00    +0.054 C 
ATOM      8  C   UNL     1       1.953  -0.022  -1.497  0.00  0.00    +0.110 C 
ATOM      9  C   UNL     1      -1.841  -0.555  -1.239  0.00  0.00    +0.247 C 
ATOM     10  O   UNL     1      -2.472  -0.375  -2.258  0.00  0.00    -0.273 OA
ATOM     11  N   UNL     1      -2.214  -1.281  -0.165  0.00  0.00    -0.224 N 
ATOM     12  C   UNL     1      -1.274  -1.269   0.789  0.00  0.00    +0.309 C 
ATOM     13  O   UNL     1      -1.381  -1.851   1.850  0.00  0.00    -0.252 OA
ATOM     14  N   UNL     1      -0.198  -0.539   0.440  0.00  0.00    -0.285 N 
ATOM     15  H   UNL     1       0.600  -0.390   0.971  0.00  0.00    +0.151 HD
ENDROOT
BRANCH   1  19
ATOM     16  C   UNL     1       2.429   6.454  -1.815  0.00  0.00    +0.162 A 
ATOM     17  C   UNL     1       2.503   5.827  -3.051  0.00  0.00    +0.050 A 
ATOM     18  C   UNL     1       2.617   4.456  -3.127  0.00  0.00    +0.017 A 
ATOM     19  C   UNL     1       2.648   3.692  -1.958  0.00  0.00    +0.041 A 
ATOM     20  C   UNL     1       2.573   4.322  -0.713  0.00  0.00    +0.062 A 
ATOM     21  C   UNL     1       2.464   5.697  -0.644  0.00  0.00    +0.162 A 
BRANCH  16  23
ATOM     22  C   UNL     1       2.291   8.519  -2.983  0.00  0.00    +0.277 C 
ATOM     23  O   UNL     1       2.322   7.805  -1.745  0.00  0.00    -0.491 OA
ENDBRANCH  16  23
BRANCH  21  24
ATOM     24  O   UNL     1       2.391   6.313   0.566  0.00  0.00    -0.491 OA
ATOM     25  C   UNL     1       2.432   5.477   1.724  0.00  0.00    +0.277 C 
ENDBRANCH  21  24
ENDBRANCH   1  19
BRANCH  11  26
ATOM     26  C   UNL     1      -3.489  -1.994  -0.055  0.00  0.00    +0.122 C 
BRANCH  26  27
ATOM     27  C   UNL     1      -4.539  -1.070   0.566  0.00  0.00    +0.054 C 
BRANCH  27  28
ATOM     28  C   UNL     1      -5.850  -1.803   0.678  0.00  0.00    -0.046 A 
ATOM     29  C   UNL     1      -6.762  -1.752  -0.359  0.00  0.00    +0.004 A 
ATOM     30  C   UNL     1      -7.963  -2.429  -0.258  0.00  0.00    +0.000 A 
ATOM     31  C   UNL     1      -8.257  -3.148   0.885  0.00  0.00    +0.000 A 
ATOM     32  C   UNL     1      -7.347  -3.195   1.925  0.00  0.00    +0.000 A 
ATOM     33  C   UNL     1      -6.144  -2.523   1.821  0.00  0.00    +0.004 A 
ENDBRANCH  27  28
ENDBRANCH  26  27
ENDBRANCH  11  26
TORSDOF 6
