REMARK  Name = ZINC21744711
REMARK  10 active torsions:
REMARK  status: ('A' for Active; 'I' for Inactive)
REMARK    1  A    between atoms: C_1  and  C_2
REMARK    2  A    between atoms: C_2  and  O_3
REMARK    3  A    between atoms: O_3  and  C_4
REMARK    4  A    between atoms: C_4  and  C_6
REMARK    5  A    between atoms: C_6  and  C_7
REMARK    6  A    between atoms: C_10  and  S_12
REMARK    7  A    between atoms: S_12  and  C_13
REMARK    8  A    between atoms: C_13  and  C_14
REMARK    9  A    between atoms: N_16  and  N_17
REMARK   10  A    between atoms: C_23  and  C_26
REMARK                            x       y       z     vdW  Elec       q    Type
REMARK                         _______ _______ _______ _____ _____    ______ ____
ROOT
ATOM      1  C   UNL     1      -1.187   1.624   0.017  0.00  0.00    +0.240 C 
ATOM      2  O   UNL     1      -1.204   2.837   0.023  0.00  0.00    -0.273 OA
ATOM      3  N   UNL     1      -0.011   0.966   0.007  0.00  0.00    -0.223 N 
ATOM      4  H   UNL     1       0.004  -0.134   0.006  0.00  0.00    +0.174 HD
ENDROOT
BRANCH   3   5
ATOM      5  N   UNL     1       1.193   1.683  -0.000  0.00  0.00    -0.137 N 
ATOM      6  C   UNL     1       2.002   1.817   1.071  0.00  0.00    +0.263 C 
ATOM      7  O   UNL     1       1.834   1.358   2.180  0.00  0.00    -0.271 OA
ATOM      8  C   UNL     1       3.164   2.659   0.596  0.00  0.00    +0.114 C 
ATOM      9  C   UNL     1       4.469   1.881   0.716  0.00  0.00    +0.035 C 
ATOM     10  C   UNL     1       5.628   2.740   0.204  0.00  0.00    +0.006 C 
ATOM     11  C   UNL     1       5.707   4.029   1.024  0.00  0.00    -0.014 C 
ATOM     12  C   UNL     1       4.400   4.811   0.874  0.00  0.00    +0.006 C 
ATOM     13  C   UNL     1       3.236   3.960   1.388  0.00  0.00    +0.035 C 
ATOM     14  C   UNL     1       6.872   4.883   0.522  0.00  0.00    +0.007 C 
ATOM     15  N   UNL     1       2.854   2.931  -0.814  0.00  0.00    -0.284 N 
ATOM     16  C   UNL     1       1.685   2.315  -1.073  0.00  0.00    +0.326 C 
ATOM     17  O   UNL     1       1.137   2.333  -2.157  0.00  0.00    -0.251 OA
ATOM     18  H   UNL     1       3.541   3.539  -1.420  0.00  0.00    +0.151 HD
ENDBRANCH   3   5
BRANCH   1  19
ATOM     19  C   UNL     1      -2.482   0.853   0.018  0.00  0.00    +0.173 C 
BRANCH  19  20
ATOM     20  S   UNL     1      -3.874   2.010   0.031  0.00  0.00    -0.089 S 
BRANCH  20  24
ATOM     21  C   UNL     1      -7.397   0.138   0.038  0.00  0.00    +0.060 A 
ATOM     22  C   UNL     1      -6.944  -1.138   0.030  0.00  0.00    +0.071 A 
ATOM     23  S   UNL     1      -5.178  -0.865   0.022  0.00  0.00    -0.069 S 
ATOM     24  C   UNL     1      -5.218   0.872   0.032  0.00  0.00    +0.135 A 
ATOM     25  N   UNL     1      -6.515   1.119   0.044  0.00  0.00    -0.237 NA
BRANCH  21  26
ATOM     26  C   UNL     1      -8.876   0.431   0.046  0.00  0.00    +0.176 C 
BRANCH  26  27
ATOM     27  C   UNL     1      -9.205   1.322   1.216  0.00  0.00    +0.313 C 
ATOM     28  O   UNL     1      -8.329   1.682   1.967  0.00  0.00    -0.250 OA
BRANCH  27  29
ATOM     29  O   UNL     1     -10.471   1.715   1.425  0.00  0.00    -0.465 OA
BRANCH  29  31
ATOM     30  C   UNL     1     -12.204   2.914   2.645  0.00  0.00    +0.048 C 
ATOM     31  C   UNL     1     -10.715   2.573   2.571  0.00  0.00    +0.229 C 
ENDBRANCH  29  31
ENDBRANCH  27  29
ENDBRANCH  26  27
ENDBRANCH  21  26
ENDBRANCH  20  24
ENDBRANCH  19  20
ENDBRANCH   1  19
TORSDOF 8
