REMARK  Name = ZINC08317882
REMARK  8 active torsions:
REMARK  status: ('A' for Active; 'I' for Inactive)
REMARK    1  A    between atoms: C_1  and  C_2
REMARK    2  A    between atoms: C_5  and  O_8
REMARK    3  A    between atoms: O_8  and  C_9
REMARK    4  A    between atoms: C_9  and  C_10
REMARK    5  A    between atoms: N_12  and  C_13
REMARK    6  A    between atoms: C_13  and  N_15
REMARK    7  A    between atoms: N_15  and  C_16
REMARK    8  A    between atoms: C_17  and  C_25
REMARK                            x       y       z     vdW  Elec       q    Type
REMARK                         _______ _______ _______ _____ _____    ______ ____
ROOT
ATOM      1  N   UNL     1       4.350  -7.112  -0.076  0.00  0.00    -0.291 N 
ATOM      2  H   UNL     1       5.241  -6.727  -0.083  0.00  0.00    +0.154 HD
ENDROOT
BRANCH   1   3
ATOM      3  C   UNL     1       4.190  -8.488  -0.082  0.00  0.00    +0.084 A 
ATOM      4  C   UNL     1       5.170  -9.471  -0.102  0.00  0.00    +0.068 A 
ATOM      5  C   UNL     1       4.733 -10.856  -0.100  0.00  0.00    -0.023 A 
ATOM      6  C   UNL     1       3.394 -11.037  -0.088  0.00  0.00    -0.004 A 
ATOM      7  S   UNL     1       2.717  -9.401  -0.072  0.00  0.00    -0.077 S 
ATOM      8  C   UNL     1       2.658 -12.341  -0.089  0.00  0.00    +0.043 C 
ATOM      9  C   UNL     1       3.643 -13.451  -0.483  0.00  0.00    +0.005 C 
ATOM     10  C   UNL     1       4.923 -13.291   0.343  0.00  0.00    +0.005 C 
ATOM     11  C   UNL     1       5.684 -12.046  -0.115  0.00  0.00    +0.037 C 
BRANCH   4  12
ATOM     12  C   UNL     1       6.595  -9.123  -0.120  0.00  0.00    +0.244 C 
ATOM     13  O   UNL     1       7.201  -8.986   0.926  0.00  0.00    -0.270 OA
ATOM     14  N   UNL     1       7.232  -8.956  -1.296  0.00  0.00    -0.325 N 
ATOM     15  H   UNL     1       6.749  -9.066  -2.130  0.00  0.00    +0.145 HD
ATOM     16  H   UNL     1       8.174  -8.726  -1.308  0.00  0.00    +0.145 HD
ENDBRANCH   4  12
ENDBRANCH   1   3
BRANCH   1  17
ATOM     17  C   UNL     1       3.269  -6.308  -0.062  0.00  0.00    +0.141 C 
ATOM     18  S   UNL     1       1.697  -6.987  -0.050  0.00  0.00    -0.018 S 
BRANCH  17  21
ATOM     19  C   UNL     1       2.343  -4.165  -0.042  0.00  0.00    +0.256 C 
ATOM     20  O   UNL     1       1.230  -4.646  -0.033  0.00  0.00    -0.272 OA
ATOM     21  N   UNL     1       3.425  -4.969  -0.056  0.00  0.00    -0.265 N 
ATOM     22  H   UNL     1       4.315  -4.584  -0.063  0.00  0.00    +0.157 HD
BRANCH  19  23
ATOM     23  C   UNL     1       2.518  -2.668  -0.036  0.00  0.00    +0.324 C 
BRANCH  23  24
ATOM     24  O   UNL     1       1.234  -2.039  -0.020  0.00  0.00    -0.483 OA
BRANCH  24  29
ATOM     25  C   UNL     1       1.147   3.593   0.011  0.00  0.00    +0.044 C 
ATOM     26  C   UNL     1       1.171   2.086   0.002  0.00  0.00    -0.050 A 
ATOM     27  C   UNL     1      -0.017   1.377   0.010  0.00  0.00    +0.007 A 
ATOM     28  C   UNL     1       0.002  -0.004   0.002  0.00  0.00    +0.046 A 
ATOM     29  C   UNL     1       1.213  -0.680  -0.013  0.00  0.00    +0.121 A 
ATOM     30  C   UNL     1       2.403   0.033  -0.021  0.00  0.00    +0.046 A 
ATOM     31  C   UNL     1       2.379   1.415  -0.013  0.00  0.00    +0.007 A 
ENDBRANCH  24  29
ENDBRANCH  23  24
ENDBRANCH  19  23
ENDBRANCH  17  21
ENDBRANCH   1  17
TORSDOF 7
