REMARK  Name = ZINC05977879
REMARK  7 active torsions:
REMARK  status: ('A' for Active; 'I' for Inactive)
REMARK    1  A    between atoms: C_1  and  C_2
REMARK    2  A    between atoms: C_2  and  C_3
REMARK    3  A    between atoms: C_3  and  N_4
REMARK    4  A    between atoms: N_4  and  C_5
REMARK    5  A    between atoms: C_5  and  C_25
REMARK    6  A    between atoms: C_7  and  C_21
REMARK    7  A    between atoms: C_25  and  C_26
REMARK                            x       y       z     vdW  Elec       q    Type
REMARK                         _______ _______ _______ _____ _____    ______ ____
ROOT
ATOM      1  C   UNL     1       1.472  -2.896  -2.406  0.00  0.00    +0.018 C 
ATOM      2  C   UNL     1       1.409  -4.274  -2.291  0.00  0.00    +0.087 C 
ATOM      3  C   UNL     1       1.831  -5.276  -3.281  0.00  0.00    +0.176 C 
ATOM      4  N   UNL     1       1.599  -6.449  -2.776  0.00  0.00    -0.165 NA
ATOM      5  N   UNL     1       1.042  -6.350  -1.501  0.00  0.00    -0.131 N 
ATOM      6  C   UNL     1       0.910  -5.054  -1.152  0.00  0.00    +0.276 C 
ATOM      7  O   UNL     1       0.464  -4.619  -0.104  0.00  0.00    -0.268 OA
ATOM      8  C   UNL     1       0.684  -7.429  -0.704  0.00  0.00    +0.189 A 
ATOM      9  N   UNL     1       0.153  -7.425   0.496  0.00  0.00    -0.223 NA
ATOM     10  C   UNL     1      -0.148  -8.562   1.160  0.00  0.00    +0.080 A 
ATOM     11  C   UNL     1      -0.718  -8.696   2.447  0.00  0.00    +0.029 A 
ATOM     12  C   UNL     1      -0.960  -9.935   2.980  0.00  0.00    +0.002 A 
ATOM     13  C   UNL     1      -0.658 -11.096   2.283  0.00  0.00    +0.001 A 
ATOM     14  C   UNL     1      -0.100 -11.002   1.021  0.00  0.00    +0.017 A 
ATOM     15  C   UNL     1       0.147  -9.765   0.479  0.00  0.00    +0.041 A 
ATOM     16  S   UNL     1       0.821  -9.176  -1.056  0.00  0.00    -0.050 S 
ENDROOT
BRANCH   3  17
ATOM     17  C   UNL     1       2.426  -4.993  -4.637  0.00  0.00    +0.437 C 
ATOM     18  F   UNL     1       2.637  -6.198  -5.314  0.00  0.00    -0.164 F 
ATOM     19  F   UNL     1       1.547  -4.191  -5.373  0.00  0.00    -0.164 F 
ATOM     20  F   UNL     1       3.646  -4.326  -4.480  0.00  0.00    -0.164 F 
ENDBRANCH   3  17
BRANCH   1  21
ATOM     21  N   UNL     1       1.180  -2.117  -1.345  0.00  0.00    -0.346 N 
ATOM     22  H   UNL     1       0.925  -2.522  -0.501  0.00  0.00    +0.146 HD
BRANCH  21  23
ATOM     23  C   UNL     1       1.248  -0.658  -1.466  0.00  0.00    +0.101 C 
BRANCH  23  25
ATOM     24  C   UNL     1       0.943   1.506  -0.256  0.00  0.00    +0.005 C 
ATOM     25  C   UNL     1       0.872  -0.017  -0.129  0.00  0.00    +0.015 C 
ENDBRANCH  23  25
ENDBRANCH  21  23
ENDBRANCH   1  21
BRANCH   1  26
ATOM     26  C   UNL     1       1.868  -2.267  -3.717  0.00  0.00    +0.048 C 
ATOM     27  C   UNL     1       0.614  -1.800  -4.458  0.00  0.00    +0.010 C 
ENDBRANCH   1  26
TORSDOF 5
