REMARK  Name = ZINC06625602
REMARK  11 active torsions:
REMARK  status: ('A' for Active; 'I' for Inactive)
REMARK    1  A    between atoms: C_1  and  C_2
REMARK    2  A    between atoms: C_2  and  C_3
REMARK    3  A    between atoms: C_3  and  C_4
REMARK    4  A    between atoms: C_4  and  N_5
REMARK    5  A    between atoms: N_5  and  C_6
REMARK    6  A    between atoms: C_7  and  N_19
REMARK    7  A    between atoms: N_8  and  C_15
REMARK    8  A    between atoms: C_15  and  C_16
REMARK    9  A    between atoms: C_16  and  C_17
REMARK   10  A    between atoms: C_16  and  C_18
REMARK   11  A    between atoms: C_20  and  C_22
REMARK                            x       y       z     vdW  Elec       q    Type
REMARK                         _______ _______ _______ _____ _____    ______ ____
ROOT
ATOM      1  C   UNL     1       0.100  -1.258   0.732  0.00  0.00    +0.140 A 
ATOM      2  C   UNL     1       1.414  -1.383   1.138  0.00  0.00    +0.127 A 
ATOM      3  N   UNL     1       2.417  -0.927   0.315  0.00  0.00    -0.280 N 
ATOM      4  C   UNL     1       2.121  -0.363  -0.870  0.00  0.00    +0.331 A 
ATOM      5  O   UNL     1       3.023   0.038  -1.582  0.00  0.00    -0.246 OA
ATOM      6  N   UNL     1       0.848  -0.238  -1.285  0.00  0.00    -0.273 N 
ATOM      7  H   UNL     1       0.656   0.178  -2.174  0.00  0.00    +0.173 HD
ATOM      8  C   UNL     1      -0.172  -0.667  -0.516  0.00  0.00    +0.277 A 
ATOM      9  O   UNL     1      -1.323  -0.545  -0.899  0.00  0.00    -0.266 OA
ENDROOT
BRANCH   1  10
ATOM     10  N   UNL     1      -0.951  -1.715   1.554  0.00  0.00    -0.260 N 
ATOM     11  C   UNL     1      -1.130  -1.182   2.779  0.00  0.00    +0.251 C 
ATOM     12  O   UNL     1      -1.993  -1.621   3.513  0.00  0.00    -0.270 OA
BRANCH  11  13
ATOM     13  C   UNL     1      -0.276  -0.062   3.229  0.00  0.00    +0.040 A 
ATOM     14  C   UNL     1      -0.066   0.155   4.592  0.00  0.00    +0.013 A 
ATOM     15  C   UNL     1       0.732   1.201   5.007  0.00  0.00    +0.004 A 
ATOM     16  C   UNL     1       1.325   2.035   4.076  0.00  0.00    +0.038 A 
ATOM     17  C   UNL     1       1.121   1.826   2.721  0.00  0.00    +0.124 A 
ATOM     18  C   UNL     1       0.328   0.779   2.293  0.00  0.00    +0.051 A 
ATOM     19  F   UNL     1       1.703   2.645   1.818  0.00  0.00    -0.205 F 
ENDBRANCH  11  13
BRANCH  10  20
ATOM     20  C   UNL     1      -1.848  -2.770   1.076  0.00  0.00    +0.114 C 
BRANCH  20  21
ATOM     21  C   UNL     1      -1.350  -4.128   1.576  0.00  0.00    +0.019 C 
BRANCH  21  23
ATOM     22  C   UNL     1      -1.790  -6.588   1.576  0.00  0.00    +0.004 C 
ATOM     23  C   UNL     1      -2.287  -5.230   1.077  0.00  0.00    -0.002 C 
ENDBRANCH  21  23
ENDBRANCH  20  21
ENDBRANCH  10  20
ENDBRANCH   1  10
BRANCH   2  24
ATOM     24  N   UNL     1       1.715  -1.955   2.351  0.00  0.00    -0.343 N 
ATOM     25  H   UNL     1       2.602  -1.849   2.730  0.00  0.00    +0.144 HD
ATOM     26  H   UNL     1       1.042  -2.465   2.827  0.00  0.00    +0.144 HD
ENDBRANCH   2  24
BRANCH   3  27
ATOM     27  C   UNL     1       3.815  -1.053   0.733  0.00  0.00    +0.131 C 
BRANCH  27  28
ATOM     28  C   UNL     1       4.374  -2.393   0.249  0.00  0.00    +0.003 C 
ATOM     29  C   UNL     1       4.405  -2.410  -1.280  0.00  0.00    +0.009 C 
ATOM     30  C   UNL     1       5.792  -2.580   0.791  0.00  0.00    +0.009 C 
ENDBRANCH  27  28
ENDBRANCH   3  27
TORSDOF 8
