REMARK  Name = ZINC10490745
REMARK  6 active torsions:
REMARK  status: ('A' for Active; 'I' for Inactive)
REMARK    1  A    between atoms: C_1  and  C_2
REMARK    2  A    between atoms: C_5  and  S_8
REMARK    3  A    between atoms: S_8  and  N_11
REMARK    4  A    between atoms: N_14  and  S_18
REMARK    5  A    between atoms: S_18  and  C_21
REMARK    6  A    between atoms: C_24  and  C_27
REMARK                            x       y       z     vdW  Elec       q    Type
REMARK                         _______ _______ _______ _____ _____    ______ ____
ROOT
ATOM      1  N   UNL     1       2.954   4.676   2.157  0.00  0.00    -0.117 NA
ATOM      2  C   UNL     1       2.952   3.852   1.160  0.00  0.00    +0.133 C 
ATOM      3  C   UNL     1       2.281   2.501   1.258  0.00  0.00    +0.182 C 
ATOM      4  N   UNL     1       1.553   2.269  -0.001  0.00  0.00    -0.168 NA
ATOM      5  C   UNL     1       2.258   2.508  -1.269  0.00  0.00    +0.128 C 
ATOM      6  C   UNL     1       2.794   3.945  -1.275  0.00  0.00    +0.120 C 
ATOM      7  N   UNL     1       3.558   4.171  -0.039  0.00  0.00    -0.329 N 
ATOM      8  H   UNL     1       4.458   4.532  -0.065  0.00  0.00    +0.147 HD
ENDROOT
BRANCH   1   9
ATOM      9  S   UNL     1       3.694   6.151   2.011  0.00  0.00    +0.100 S 
ATOM     10  O   UNL     1       5.084   5.894   1.865  0.00  0.00    -0.146 OA
ATOM     11  O   UNL     1       2.950   6.885   1.049  0.00  0.00    -0.146 OA
BRANCH   9  16
ATOM     12  C   UNL     1       3.014   9.019   7.275  0.00  0.00    +0.044 C 
ATOM     13  C   UNL     1       3.184   8.303   5.960  0.00  0.00    -0.050 A 
ATOM     14  C   UNL     1       4.287   7.497   5.750  0.00  0.00    +0.005 A 
ATOM     15  C   UNL     1       4.443   6.840   4.543  0.00  0.00    +0.029 A 
ATOM     16  C   UNL     1       3.495   6.988   3.548  0.00  0.00    +0.113 A 
ATOM     17  C   UNL     1       2.394   7.798   3.757  0.00  0.00    +0.029 A 
ATOM     18  C   UNL     1       2.236   8.451   4.965  0.00  0.00    +0.005 A 
ENDBRANCH   9  16
ENDBRANCH   1   9
BRANCH   4  19
ATOM     19  S   UNL     1      -0.022   1.758   0.012  0.00  0.00    +0.061 S 
ATOM     20  O   UNL     1      -0.590   2.163  -1.226  0.00  0.00    -0.153 OA
ATOM     21  O   UNL     1      -0.566   2.150   1.264  0.00  0.00    -0.153 OA
BRANCH  19  22
ATOM     22  C   UNL     1       0.002  -0.004   0.002  0.00  0.00    +0.106 A 
ATOM     23  C   UNL     1      -0.006  -0.689  -1.199  0.00  0.00    +0.029 A 
ATOM     24  C   UNL     1       0.018  -2.071  -1.206  0.00  0.00    +0.005 A 
ATOM     25  C   UNL     1       0.039  -2.768  -0.013  0.00  0.00    -0.050 A 
ATOM     26  C   UNL     1       0.041  -2.084   1.188  0.00  0.00    +0.005 A 
ATOM     27  C   UNL     1       0.023  -0.702   1.195  0.00  0.00    +0.029 A 
ATOM     28  C   UNL     1       0.058  -4.275  -0.021  0.00  0.00    +0.044 C 
ENDBRANCH  19  22
ENDBRANCH   4  19
TORSDOF 4
