REMARK  Name = ZINC37758971
REMARK  3 active torsions:
REMARK  status: ('A' for Active; 'I' for Inactive)
REMARK    1  A    between atoms: C_6  and  N_7
REMARK    2  A    between atoms: C_9  and  C_15
REMARK    3  A    between atoms: C_11  and  N_14
REMARK                            x       y       z     vdW  Elec       q    Type
REMARK                         _______ _______ _______ _____ _____    ______ ____
ROOT
ATOM      1  N   UNL     1      -1.200  -0.721   0.010  0.00  0.00    -0.298 N 
ATOM      2  C   UNL     1      -2.408  -0.048   0.130  0.00  0.00    +0.141 A 
ATOM      3  C   UNL     1      -3.603  -0.777   0.249  0.00  0.00    +0.093 A 
ATOM      4  C   UNL     1      -4.810  -0.080   0.370  0.00  0.00    +0.046 A 
ATOM      5  C   UNL     1      -4.771   1.310   0.366  0.00  0.00    +0.044 A 
ATOM      6  C   UNL     1      -3.548   1.957   0.244  0.00  0.00    +0.135 A 
ATOM      7  N   UNL     1      -2.424   1.275   0.137  0.00  0.00    -0.237 NA
ATOM      8  H   UNL     1      -1.190  -1.687  -0.073  0.00  0.00    +0.154 HD
ENDROOT
BRANCH   1  14
ATOM      9  C   UNL     1       0.121   1.154   0.764  0.00  0.00    +0.027 A 
ATOM     10  C   UNL     1       1.309   1.862   0.764  0.00  0.00    +0.051 A 
ATOM     11  C   UNL     1       2.383   1.418   0.011  0.00  0.00    +0.173 A 
ATOM     12  C   UNL     1       2.267   0.255  -0.749  0.00  0.00    +0.174 A 
ATOM     13  C   UNL     1       1.077  -0.454  -0.747  0.00  0.00    +0.073 A 
ATOM     14  C   UNL     1       0.002  -0.005   0.009  0.00  0.00    +0.036 A 
ATOM     15  O   UNL     1       3.450   0.034  -1.392  0.00  0.00    -0.395 OA
ATOM     16  C   UNL     1       4.154   1.289  -1.344  0.00  0.00    +0.589 C 
ATOM     17  O   UNL     1       3.640   1.925  -0.159  0.00  0.00    -0.395 OA
ATOM     18  F   UNL     1       5.532   1.075  -1.228  0.00  0.00    -0.125 F 
ATOM     19  F   UNL     1       3.868   2.058  -2.477  0.00  0.00    -0.125 F 
ENDBRANCH   1  14
BRANCH   5  20
ATOM     20  N   UNL     1      -5.954   2.050   0.484  0.00  0.00    -0.357 N 
ATOM     21  H   UNL     1      -6.806   1.593   0.569  0.00  0.00    +0.142 HD
ATOM     22  H   UNL     1      -5.922   3.019   0.481  0.00  0.00    +0.142 HD
ENDBRANCH   5  20
BRANCH   3  23
ATOM     23  C   UNL     1      -3.586  -2.209   0.247  0.00  0.00    +0.103 C 
ATOM     24  N   UNL     1      -3.573  -3.345   0.245  0.00  0.00    -0.191 NA
ENDBRANCH   3  23
TORSDOF 3
