REMARK  Name = ZINC19826528
REMARK  9 active torsions:
REMARK  status: ('A' for Active; 'I' for Inactive)
REMARK    1  A    between atoms: C_1  and  C_2
REMARK    2  A    between atoms: C_2  and  N_3
REMARK    3  A    between atoms: N_6  and  C_9
REMARK    4  A    between atoms: C_9  and  C_11
REMARK    5  A    between atoms: C_9  and  C_25
REMARK    6  A    between atoms: C_16  and  C_24
REMARK    7  A    between atoms: C_17  and  C_23
REMARK    8  A    between atoms: N_29  and  C_30
REMARK    9  A    between atoms: C_30  and  C_31
REMARK                            x       y       z     vdW  Elec       q    Type
REMARK                         _______ _______ _______ _____ _____    ______ ____
ROOT
ATOM      1  C   UNL     1       1.926   6.393  -1.845  0.00  0.00    +0.162 C 
ENDROOT
BRANCH   1   2
ATOM      2  C   UNL     1       0.630   6.073  -2.546  0.00  0.00    +0.042 A 
ATOM      3  C   UNL     1       0.392   4.811  -2.982  0.00  0.00    +0.021 A 
ATOM      4  C   UNL     1      -0.877   4.534  -3.659  0.00  0.00    -0.001 A 
ATOM      5  C   UNL     1      -1.180   3.252  -4.130  0.00  0.00    +0.010 A 
ATOM      6  C   UNL     1      -2.372   3.025  -4.757  0.00  0.00    +0.004 A 
ATOM      7  C   UNL     1      -3.286   4.056  -4.931  0.00  0.00    -0.046 A 
ATOM      8  C   UNL     1      -3.008   5.326  -4.475  0.00  0.00    -0.024 A 
ATOM      9  C   UNL     1      -1.801   5.581  -3.833  0.00  0.00    +0.052 A 
ATOM     10  N   UNL     1      -1.498   6.842  -3.366  0.00  0.00    -0.322 N 
ATOM     11  H   UNL     1      -2.213   7.666  -3.502  0.00  0.00    +0.169 HD
ATOM     12  C   UNL     1      -0.333   7.086  -2.740  0.00  0.00    +0.254 A 
ATOM     13  O   UNL     1      -0.100   8.213  -2.336  0.00  0.00    -0.268 OA
ATOM     14  C   UNL     1      -4.009   6.436  -4.671  0.00  0.00    +0.046 C 
ATOM     15  C   UNL     1      -4.595   3.782  -5.625  0.00  0.00    +0.044 C 
ENDBRANCH   1   2
BRANCH   1  19
ATOM     16  N   UNL     1       4.830   8.447  -4.123  0.00  0.00    +0.381 N 
ATOM     17  C   UNL     1       4.619   8.872  -2.732  0.00  0.00    -0.063 C 
ATOM     18  C   UNL     1       3.931   7.746  -1.957  0.00  0.00    +0.067 C 
ATOM     19  N   UNL     1       2.653   7.419  -2.604  0.00  0.00    -0.292 NA
ATOM     20  C   UNL     1       2.864   6.994  -3.995  0.00  0.00    +0.067 C 
ATOM     21  C   UNL     1       3.552   8.120  -4.771  0.00  0.00    -0.063 C 
ATOM     22  H   UNL     1       5.447   7.537  -4.111  0.00  0.00    -0.082 HD
BRANCH  16  24
ATOM     23  C   UNL     1       5.540   9.115  -6.370  0.00  0.00    -0.017 C 
ATOM     24  C   UNL     1       5.557   9.474  -4.883  0.00  0.00    -0.082 C 
ENDBRANCH  16  24
ENDBRANCH   1  19
BRANCH   1  25
ATOM     25  C   UNL     1       2.767   5.146  -1.752  0.00  0.00    +0.173 A 
ATOM     26  N   UNL     1       3.389   4.546  -2.738  0.00  0.00    -0.111 NA
ATOM     27  N   UNL     1       3.998   3.517  -2.257  0.00  0.00    -0.023 NA
ATOM     28  N   UNL     1       3.785   3.449  -0.989  0.00  0.00    -0.044 NA
ATOM     29  N   UNL     1       3.026   4.432  -0.641  0.00  0.00    -0.223 N 
BRANCH  29  30
ATOM     30  C   UNL     1       2.542   4.721   0.712  0.00  0.00    +0.182 C 
BRANCH  30  31
ATOM     31  C   UNL     1       1.292   3.924   0.979  0.00  0.00    -0.026 A 
ATOM     32  C   UNL     1       1.386   2.620   1.428  0.00  0.00    +0.005 A 
ATOM     33  C   UNL     1       0.238   1.889   1.673  0.00  0.00    +0.000 A 
ATOM     34  C   UNL     1      -1.003   2.460   1.463  0.00  0.00    +0.000 A 
ATOM     35  C   UNL     1      -1.097   3.765   1.018  0.00  0.00    +0.000 A 
ATOM     36  C   UNL     1       0.050   4.497   0.774  0.00  0.00    +0.005 A 
ENDBRANCH  30  31
ENDBRANCH  29  30
ENDBRANCH   1  25
TORSDOF 6
