REMARK  Name = ZINC20799993
REMARK  5 active torsions:
REMARK  status: ('A' for Active; 'I' for Inactive)
REMARK    1  A    between atoms: C_1  and  C_2
REMARK    2  A    between atoms: C_4  and  N_30
REMARK    3  A    between atoms: C_7  and  N_8
REMARK    4  A    between atoms: C_9  and  C_11
REMARK    5  A    between atoms: C_19  and  N_29
REMARK                            x       y       z     vdW  Elec       q    Type
REMARK                         _______ _______ _______ _____ _____    ______ ____
ROOT
ATOM      1  C   UNL     1      -0.169   0.052   4.882  0.00  0.00    +0.121 C 
ATOM      2  C   UNL     1       1.058   0.949   5.063  0.00  0.00    +0.113 C 
ATOM      3  C   UNL     1       2.264   0.104   5.378  0.00  0.00    +0.219 C 
ATOM      4  O   UNL     1       3.345   0.407   4.920  0.00  0.00    -0.275 OA
ATOM      5  N   UNL     1       2.155  -0.983   6.162  0.00  0.00    -0.270 N 
ATOM      6  C   UNL     1       0.914  -1.415   6.608  0.00  0.00    +0.136 A 
ATOM      7  C   UNL     1      -0.245  -0.931   6.018  0.00  0.00    +0.045 A 
ATOM      8  C   UNL     1      -1.474  -1.372   6.495  0.00  0.00    +0.127 A 
ATOM      9  N   UNL     1      -1.496  -2.258   7.490  0.00  0.00    -0.199 NA
ATOM     10  C   UNL     1      -0.370  -2.716   8.013  0.00  0.00    +0.221 A 
ATOM     11  N   UNL     1       0.816  -2.312   7.585  0.00  0.00    -0.199 NA
ATOM     12  N   UNL     1      -0.433  -3.644   9.038  0.00  0.00    -0.300 N 
ATOM     13  C   UNL     1       0.795  -4.171   9.648  0.00  0.00    +0.108 C 
ATOM     14  C   UNL     1       0.718  -3.970  11.165  0.00  0.00    +0.019 C 
ATOM     15  C   UNL     1      -0.570  -4.605  11.695  0.00  0.00    +0.003 C 
ATOM     16  C   UNL     1      -1.779  -3.920  11.055  0.00  0.00    +0.019 C 
ATOM     17  C   UNL     1      -1.731  -4.116   9.541  0.00  0.00    +0.108 C 
ATOM     18  H   UNL     1       2.954  -1.471   6.419  0.00  0.00    +0.156 HD
ENDROOT
BRANCH   1  20
ATOM     19  N   UNL     1       0.025  -0.015   2.417  0.00  0.00    -0.285 N 
ATOM     20  C   UNL     1      -0.057  -0.694   3.578  0.00  0.00    +0.225 C 
ATOM     21  O   UNL     1      -0.040  -1.907   3.573  0.00  0.00    -0.275 OA
ATOM     22  H   UNL     1       0.077   0.954   2.425  0.00  0.00    +0.155 HD
BRANCH  19  29
ATOM     23  C   UNL     1      -1.265   1.182   0.181  0.00  0.00    +0.046 C 
ATOM     24  C   UNL     1      -0.584  -0.158   0.084  0.00  0.00    -0.027 A 
ATOM     25  C   UNL     1      -0.569  -0.841  -1.117  0.00  0.00    +0.038 A 
ATOM     26  C   UNL     1       0.056  -2.071  -1.206  0.00  0.00    +0.127 A 
ATOM     27  C   UNL     1       0.668  -2.622  -0.095  0.00  0.00    +0.034 A 
ATOM     28  C   UNL     1       0.656  -1.944   1.109  0.00  0.00    +0.026 A 
ATOM     29  C   UNL     1       0.034  -0.706   1.201  0.00  0.00    +0.036 A 
BRANCH  26  30
ATOM     30  N   UNL     1       0.070  -2.800  -2.494  0.00  0.00    +0.056 N 
ATOM     31  O   UNL     1      -0.464  -2.320  -3.466  0.00  0.00    -0.126 OA
ATOM     32  O   UNL     1       0.617  -3.876  -2.574  0.00  0.00    -0.126 OA
ENDBRANCH  26  30
ENDBRANCH  19  29
ENDBRANCH   1  20
BRANCH   8  33
ATOM     33  N   UNL     1      -2.655  -0.899   5.945  0.00  0.00    -0.343 N 
ATOM     34  H   UNL     1      -2.629  -0.254   5.221  0.00  0.00    +0.144 HD
ATOM     35  H   UNL     1      -3.508  -1.213   6.285  0.00  0.00    +0.144 HD
ENDBRANCH   8  33
TORSDOF 4
