REMARK  Name = ZINC13149258
REMARK  6 active torsions:
REMARK  status: ('A' for Active; 'I' for Inactive)
REMARK    1  A    between atoms: N_8  and  S_9
REMARK    2  A    between atoms: S_9  and  C_12
REMARK    3  A    between atoms: C_21  and  O_29
REMARK    4  A    between atoms: N_25  and  C_26
REMARK    5  A    between atoms: C_26  and  C_27
REMARK    6  A    between atoms: C_27  and  O_28
REMARK                            x       y       z     vdW  Elec       q    Type
REMARK                         _______ _______ _______ _____ _____    ______ ____
ROOT
ATOM      1  C   UNL     1      -0.638   1.129  -0.590  0.00  0.00    +0.001 A 
ATOM      2  C   UNL     1       0.436   1.982  -0.768  0.00  0.00    +0.000 A 
ATOM      3  C   UNL     1       1.734   1.499  -0.745  0.00  0.00    +0.010 A 
ATOM      4  C   UNL     1       1.959   0.159  -0.547  0.00  0.00    +0.026 A 
ATOM      5  C   UNL     1       0.868  -0.710  -0.382  0.00  0.00    +0.011 A 
ATOM      6  C   UNL     1      -0.426  -0.225  -0.395  0.00  0.00    +0.010 A 
ATOM      7  C   UNL     1       1.196  -2.157  -0.223  0.00  0.00    +0.095 C 
ATOM      8  N   UNL     1       0.530  -2.949   0.580  0.00  0.00    -0.128 NA
ATOM      9  C   UNL     1       2.336  -2.625  -1.049  0.00  0.00    +0.054 C 
ATOM     10  C   UNL     1       3.375  -1.762  -1.186  0.00  0.00    +0.073 C 
ATOM     11  C   UNL     1       3.333  -0.439  -0.483  0.00  0.00    +0.235 C 
ATOM     12  O   UNL     1       4.353   0.452  -0.832  0.00  0.00    -0.339 OA
ATOM     13  C   UNL     1       5.116   0.230  -2.000  0.00  0.00    +0.183 C 
ATOM     14  C   UNL     1       5.582  -1.217  -2.105  0.00  0.00    +0.133 C 
ATOM     15  N   UNL     1       4.436  -2.115  -1.977  0.00  0.00    -0.324 N 
ENDROOT
BRANCH   8  16
ATOM     16  S   UNL     1      -0.611  -2.322   1.603  0.00  0.00    +0.099 S 
ATOM     17  O   UNL     1      -0.125  -1.055   2.025  0.00  0.00    -0.146 OA
ATOM     18  O   UNL     1      -1.867  -2.481   0.958  0.00  0.00    -0.146 OA
BRANCH  16  19
ATOM     19  C   UNL     1      -0.646  -3.349   3.035  0.00  0.00    +0.113 A 
ATOM     20  C   UNL     1      -1.494  -4.441   3.081  0.00  0.00    +0.030 A 
ATOM     21  C   UNL     1      -1.522  -5.247   4.203  0.00  0.00    +0.017 A 
ATOM     22  C   UNL     1      -0.702  -4.962   5.280  0.00  0.00    +0.018 A 
ATOM     23  C   UNL     1       0.145  -3.869   5.234  0.00  0.00    +0.017 A 
ATOM     24  C   UNL     1       0.176  -3.067   4.109  0.00  0.00    +0.030 A 
ATOM     25 BR   UNL     1      -0.741  -6.064   6.816  0.00  0.00    -0.050 Br
ENDBRANCH  16  19
ENDBRANCH   8  16
BRANCH  11  26
ATOM     26  O   UNL     1       3.556  -0.733   0.897  0.00  0.00    -0.356 OA
ATOM     27  H   UNL     1       3.516   0.041   1.476  0.00  0.00    +0.213 HD
ENDBRANCH  11  26
BRANCH  15  28
ATOM     28  C   UNL     1       4.421  -3.393  -2.695  0.00  0.00    +0.133 C 
BRANCH  28  29
ATOM     29  C   UNL     1       3.788  -3.195  -4.074  0.00  0.00    +0.174 C 
BRANCH  29  30
ATOM     30  O   UNL     1       4.612  -2.331  -4.858  0.00  0.00    -0.393 OA
ATOM     31  H   UNL     1       4.271  -2.161  -5.746  0.00  0.00    +0.209 HD
ENDBRANCH  29  30
ENDBRANCH  28  29
ENDBRANCH  15  28
TORSDOF 6
