REMARK  Name = ZINC21075675
REMARK  11 active torsions:
REMARK  status: ('A' for Active; 'I' for Inactive)
REMARK    1  A    between atoms: C_1  and  C_2
REMARK    2  A    between atoms: C_2  and  C_3
REMARK    3  A    between atoms: C_2  and  C_4
REMARK    4  A    between atoms: C_4  and  C_5
REMARK    5  A    between atoms: C_5  and  S_6
REMARK    6  A    between atoms: S_6  and  C_7
REMARK    7  A    between atoms: N_13  and  N_14
REMARK    8  A    between atoms: C_15  and  C_16
REMARK    9  A    between atoms: C_18  and  O_23
REMARK   10  A    between atoms: C_21  and  O_22
REMARK   11  A    between atoms: O_23  and  C_24
REMARK                            x       y       z     vdW  Elec       q    Type
REMARK                         _______ _______ _______ _____ _____    ______ ____
ROOT
ATOM      1  C   UNL     1      -2.929  -4.430  -0.269  0.00  0.00    +0.190 A 
ATOM      2  N   UNL     1      -3.942  -5.346  -0.314  0.00  0.00    -0.303 N 
ATOM      3  H   UNL     1      -4.891  -5.150  -0.263  0.00  0.00    +0.171 HD
ATOM      4  C   UNL     1      -3.383  -6.587  -0.443  0.00  0.00    +0.235 A 
ATOM      5  N   UNL     1      -2.081  -6.444  -0.476  0.00  0.00    -0.111 NA
ATOM      6  N   UNL     1      -1.793  -5.077  -0.371  0.00  0.00    -0.121 NA
ATOM      7  N   UNL     1      -4.074  -7.788  -0.524  0.00  0.00    -0.205 N 
ATOM      8  H   UNL     1      -5.043  -7.793  -0.491  0.00  0.00    +0.177 HD
ENDROOT
BRANCH   7   9
ATOM      9  N   UNL     1      -3.371  -8.993  -0.656  0.00  0.00    -0.187 NA
ATOM     10  C   UNL     1      -4.018 -10.117  -0.732  0.00  0.00    +0.142 C 
BRANCH  10  11
ATOM     11  C   UNL     1      -3.279 -11.384  -0.870  0.00  0.00    +0.039 A 
ATOM     12  C   UNL     1      -3.971 -12.594  -0.958  0.00  0.00    +0.058 A 
ATOM     13  C   UNL     1      -3.270 -13.780  -1.087  0.00  0.00    +0.121 A 
ATOM     14  C   UNL     1      -1.882 -13.769  -1.130  0.00  0.00    +0.049 A 
ATOM     15  C   UNL     1      -1.190 -12.576  -1.043  0.00  0.00    +0.049 A 
ATOM     16  C   UNL     1      -1.878 -11.380  -0.919  0.00  0.00    +0.126 A 
BRANCH  16  17
ATOM     17  O   UNL     1      -1.197 -10.207  -0.840  0.00  0.00    -0.506 OA
ATOM     18  H   UNL     1      -0.968  -9.945   0.062  0.00  0.00    +0.292 HD
ENDBRANCH  16  17
BRANCH  13  19
ATOM     19  O   UNL     1      -3.942 -14.959  -1.173  0.00  0.00    -0.495 OA
ATOM     20  C   UNL     1      -3.157 -16.145  -1.305  0.00  0.00    +0.277 C 
ENDBRANCH  13  19
ENDBRANCH  10  11
ENDBRANCH   7   9
BRANCH   1  21
ATOM     21  S   UNL     1      -3.118  -2.686  -0.108  0.00  0.00    -0.086 S 
BRANCH  21  22
ATOM     22  C   UNL     1      -1.416  -2.058  -0.121  0.00  0.00    +0.078 C 
BRANCH  22  23
ATOM     23  C   UNL     1      -1.433  -0.534   0.013  0.00  0.00    +0.014 C 
BRANCH  23  25
ATOM     24  C   UNL     1      -0.019   1.526   0.010  0.00  0.00    +0.007 C 
ATOM     25  C   UNL     1       0.002  -0.004   0.002  0.00  0.00    -0.016 C 
ATOM     26  C   UNL     1       0.742  -0.511   1.242  0.00  0.00    +0.007 C 
ENDBRANCH  23  25
ENDBRANCH  22  23
ENDBRANCH  21  22
ENDBRANCH   1  21
TORSDOF 8
