REMARK  Name = ZINC44348631
REMARK  3 active torsions:
REMARK  status: ('A' for Active; 'I' for Inactive)
REMARK    1  A    between atoms: C_1  and  C_2
REMARK    2  A    between atoms: C_7  and  N_10
REMARK    3  A    between atoms: N_10  and  C_11
REMARK                            x       y       z     vdW  Elec       q    Type
REMARK                         _______ _______ _______ _____ _____    ______ ____
ROOT
ATOM      1  N   UNL     1       1.448  -2.513   0.028  0.00  0.00    -0.325 N 
ATOM      2  H   UNL     1       1.482  -1.952  -0.763  0.00  0.00    +0.148 HD
ENDROOT
BRANCH   1   3
ATOM      3  C   UNL     1       2.049  -3.760   0.017  0.00  0.00    +0.143 A 
ATOM      4  C   UNL     1       2.001  -4.556   1.125  0.00  0.00    +0.154 A 
ATOM      5  N   UNL     1       2.573  -5.757   1.131  0.00  0.00    -0.256 NA
ATOM      6  C   UNL     1       3.203  -6.222   0.077  0.00  0.00    +0.161 A 
ATOM      7  C   UNL     1       3.282  -5.441  -1.090  0.00  0.00    +0.199 A 
ATOM      8  N   UNL     1       2.689  -4.205  -1.101  0.00  0.00    -0.176 N 
ATOM      9  N   UNL     1       2.930  -3.689  -2.378  0.00  0.00    -0.037 NA
ATOM     10  N   UNL     1       3.603  -4.581  -3.024  0.00  0.00    -0.022 NA
ATOM     11  N   UNL     1       3.825  -5.610  -2.285  0.00  0.00    -0.107 NA
ENDBRANCH   1   3
BRANCH   1  17
ATOM     12  C   UNL     1      -0.019   1.526   0.010  0.00  0.00    +0.007 C 
ATOM     13  C   UNL     1       0.002  -0.004   0.002  0.00  0.00    -0.012 C 
ATOM     14  C   UNL     1      -1.433  -0.534   0.013  0.00  0.00    +0.003 C 
ATOM     15  C   UNL     1      -1.413  -2.063   0.004  0.00  0.00    +0.002 C 
ATOM     16  C   UNL     1      -0.673  -2.570   1.244  0.00  0.00    +0.022 C 
ATOM     17  C   UNL     1       0.763  -2.041   1.233  0.00  0.00    +0.072 C 
ATOM     18  C   UNL     1       0.742  -0.511   1.242  0.00  0.00    +0.025 C 
ENDBRANCH   1  17
TORSDOF 2
