REMARK  Name = ZINC16431508
REMARK  12 active torsions:
REMARK  status: ('A' for Active; 'I' for Inactive)
REMARK    1  A    between atoms: C_4  and  N_26
REMARK    2  A    between atoms: N_13  and  N_16
REMARK    3  A    between atoms: C_17  and  C_18
REMARK    4  A    between atoms: C_21  and  O_25
REMARK    5  A    between atoms: C_23  and  O_24
REMARK    6  A    between atoms: N_26  and  C_27
REMARK    7  A    between atoms: C_27  and  C_28
REMARK    8  A    between atoms: C_27  and  C_30
REMARK    9  A    between atoms: C_27  and  C_32
REMARK   10  A    between atoms: C_28  and  O_29
REMARK   11  A    between atoms: C_30  and  O_31
REMARK   12  A    between atoms: C_32  and  O_33
REMARK                            x       y       z     vdW  Elec       q    Type
REMARK                         _______ _______ _______ _____ _____    ______ ____
ROOT
ATOM      1  C   UNL     1      -4.032   1.805   0.142  0.00  0.00    +0.001 A 
ATOM      2  C   UNL     1      -3.961   3.177   0.056  0.00  0.00    +0.010 A 
ATOM      3  C   UNL     1      -2.764   3.794  -0.334  0.00  0.00    +0.004 A 
ATOM      4  C   UNL     1      -2.643   5.200  -0.437  0.00  0.00    +0.036 A 
ATOM      5  C   UNL     1      -1.435   5.760  -0.828  0.00  0.00    +0.024 A 
ATOM      6  C   UNL     1      -0.338   4.970  -1.121  0.00  0.00    +0.015 A 
ATOM      7  C   UNL     1      -0.424   3.584  -1.030  0.00  0.00    +0.048 A 
ATOM      8  C   UNL     1      -1.645   2.990  -0.633  0.00  0.00    +0.008 A 
ATOM      9  C   UNL     1      -1.736   1.582  -0.545  0.00  0.00    +0.047 A 
ATOM     10  C   UNL     1      -2.936   1.005  -0.151  0.00  0.00    +0.014 A 
ATOM     11  C   UNL     1      -0.548   0.778  -0.859  0.00  0.00    +0.274 C 
ATOM     12  O   UNL     1      -0.602  -0.436  -0.786  0.00  0.00    -0.268 OA
ATOM     13  N   UNL     1       0.599   1.376  -1.234  0.00  0.00    -0.119 N 
ATOM     14  C   UNL     1       0.716   2.713  -1.332  0.00  0.00    +0.274 C 
ATOM     15  O   UNL     1       1.776   3.203  -1.675  0.00  0.00    -0.268 OA
ENDROOT
BRANCH  13  16
ATOM     16  N   UNL     1       1.711   0.577  -1.531  0.00  0.00    -0.177 NA
ATOM     17  C   UNL     1       1.679  -0.225  -2.552  0.00  0.00    +0.142 C 
BRANCH  17  18
ATOM     18  C   UNL     1       2.800  -1.148  -2.797  0.00  0.00    +0.036 A 
ATOM     19  C   UNL     1       2.769  -2.013  -3.895  0.00  0.00    +0.016 A 
ATOM     20  C   UNL     1       3.820  -2.875  -4.121  0.00  0.00    +0.046 A 
ATOM     21  C   UNL     1       4.912  -2.888  -3.261  0.00  0.00    +0.120 A 
ATOM     22  C   UNL     1       4.952  -2.033  -2.169  0.00  0.00    +0.091 A 
ATOM     23  C   UNL     1       3.905  -1.159  -1.934  0.00  0.00    +0.129 A 
BRANCH  23  24
ATOM     24  O   UNL     1       3.946  -0.318  -0.869  0.00  0.00    -0.506 OA
ATOM     25  H   UNL     1       3.563  -0.687  -0.062  0.00  0.00    +0.292 HD
ENDBRANCH  23  24
BRANCH  21  26
ATOM     26  O   UNL     1       5.944  -3.740  -3.491  0.00  0.00    -0.507 OA
ATOM     27  H   UNL     1       6.640  -3.373  -4.053  0.00  0.00    +0.292 HD
ENDBRANCH  21  26
ENDBRANCH  17  18
ENDBRANCH  13  16
BRANCH   4  28
ATOM     28  N   UNL     1      -3.723   6.013  -0.151  0.00  0.00    -0.332 N 
ATOM     29  H   UNL     1      -4.564   5.620   0.131  0.00  0.00    +0.147 HD
BRANCH  28  30
ATOM     30  C   UNL     1      -3.599   7.467  -0.273  0.00  0.00    +0.101 C 
BRANCH  30  31
ATOM     31  C   UNL     1      -2.512   7.968   0.680  0.00  0.00    +0.186 C 
BRANCH  31  32
ATOM     32  O   UNL     1      -2.896   7.691   2.029  0.00  0.00    -0.393 OA
ATOM     33  H   UNL     1      -2.252   7.981   2.689  0.00  0.00    +0.209 HD
ENDBRANCH  31  32
ENDBRANCH  30  31
BRANCH  30  34
ATOM     34  C   UNL     1      -3.221   7.828  -1.711  0.00  0.00    +0.186 C 
BRANCH  34  35
ATOM     35  O   UNL     1      -4.250   7.385  -2.599  0.00  0.00    -0.393 OA
ATOM     36  H   UNL     1      -4.077   7.581  -3.530  0.00  0.00    +0.209 HD
ENDBRANCH  34  35
ENDBRANCH  30  34
BRANCH  30  37
ATOM     37  C   UNL     1      -4.933   8.125   0.084  0.00  0.00    +0.186 C 
BRANCH  37  38
ATOM     38  O   UNL     1      -4.812   9.544  -0.035  0.00  0.00    -0.393 OA
ATOM     39  H   UNL     1      -5.622  10.027   0.177  0.00  0.00    +0.209 HD
ENDBRANCH  37  38
ENDBRANCH  30  37
ENDBRANCH  28  30
ENDBRANCH   4  28
TORSDOF 12
