REMARK  Name = ZINC39778041
REMARK  7 active torsions:
REMARK  status: ('A' for Active; 'I' for Inactive)
REMARK    1  A    between atoms: C_1  and  C_2
REMARK    2  A    between atoms: C_2  and  C_3
REMARK    3  A    between atoms: C_10  and  C_14
REMARK    4  A    between atoms: C_14  and  S_15
REMARK    5  A    between atoms: S_15  and  C_16
REMARK    6  A    between atoms: C_20  and  C_22
REMARK    7  A    between atoms: C_25  and  C_28
REMARK                            x       y       z     vdW  Elec       q    Type
REMARK                         _______ _______ _______ _____ _____    ______ ____
ROOT
ATOM      1  C   UNL     1      -5.583  -4.038  -3.258  0.00  0.00    +0.133 C 
ENDROOT
BRANCH   1   8
ATOM      2  C   UNL     1      -1.433  -0.534   0.013  0.00  0.00    +0.152 C 
ATOM      3  N   UNL     1      -1.469  -2.019   0.010  0.00  0.00    -0.266 N 
ATOM      4  N   UNL     1      -2.496  -2.572  -0.702  0.00  0.00    -0.206 N 
ATOM      5  C   UNL     1      -3.001  -3.829  -0.505  0.00  0.00    +0.272 A 
ATOM      6  O   UNL     1      -2.567  -4.526   0.397  0.00  0.00    -0.266 OA
ATOM      7  C   UNL     1      -4.014  -4.314  -1.338  0.00  0.00    +0.096 A 
ATOM      8  C   UNL     1      -4.506  -3.525  -2.338  0.00  0.00    +0.060 A 
ATOM      9  N   UNL     1      -4.017  -2.295  -2.487  0.00  0.00    -0.226 NA
ATOM     10  C   UNL     1      -3.078  -1.835  -1.701  0.00  0.00    +0.191 A 
ATOM     11  S   UNL     1      -2.278  -0.241  -1.601  0.00  0.00    -0.062 S 
ATOM     12  H   UNL     1      -0.581  -2.402  -0.279  0.00  0.00    +0.168 HD
BRANCH   2  14
ATOM     13  C   UNL     1      -0.019   1.526   0.010  0.00  0.00    +0.006 C 
ATOM     14  C   UNL     1       0.002  -0.004   0.002  0.00  0.00    +0.032 C 
ENDBRANCH   2  14
ENDBRANCH   1   8
BRANCH   1  15
ATOM     15  S   UNL     1      -7.169  -3.276  -2.817  0.00  0.00    -0.080 S 
BRANCH  15  16
ATOM     16  C   UNL     1      -8.310  -3.968  -3.967  0.00  0.00    +0.185 A 
ATOM     17  N   UNL     1      -9.632  -3.695  -4.037  0.00  0.00    -0.253 N 
ATOM     18  H   UNL     1     -10.130  -3.086  -3.469  0.00  0.00    +0.191 HD
ATOM     19  N   UNL     1     -10.143  -4.464  -5.094  0.00  0.00    -0.152 NA
ATOM     20  C   UNL     1      -9.136  -5.143  -5.595  0.00  0.00    +0.182 A 
ATOM     21  N   UNL     1      -8.023  -4.836  -4.912  0.00  0.00    -0.201 NA
BRANCH  20  22
ATOM     22  C   UNL     1      -9.215  -6.091  -6.734  0.00  0.00    +0.021 A 
ATOM     23  C   UNL     1      -8.072  -6.758  -7.170  0.00  0.00    +0.012 A 
ATOM     24  C   UNL     1      -8.152  -7.638  -8.229  0.00  0.00    +0.004 A 
ATOM     25  C   UNL     1      -9.364  -7.860  -8.858  0.00  0.00    -0.050 A 
ATOM     26  C   UNL     1     -10.502  -7.201  -8.429  0.00  0.00    +0.004 A 
ATOM     27  C   UNL     1     -10.435  -6.322  -7.367  0.00  0.00    +0.012 A 
ATOM     28  C   UNL     1      -9.445  -8.822 -10.015  0.00  0.00    +0.044 C 
ENDBRANCH  20  22
ENDBRANCH  15  16
ENDBRANCH   1  15
TORSDOF 5
