REMARK  Name = ZINC36515386
REMARK  19 active torsions:
REMARK  status: ('A' for Active; 'I' for Inactive)
REMARK    1  A    between atoms: C_1  and  C_2
REMARK    2  A    between atoms: C_2  and  C_3
REMARK    3  A    between atoms: C_3  and  C_4
REMARK    4  A    between atoms: C_4  and  C_5
REMARK    5  A    between atoms: C_5  and  C_6
REMARK    6  A    between atoms: C_6  and  N_7
REMARK    7  A    between atoms: N_7  and  C_8
REMARK    8  A    between atoms: C_8  and  C_10
REMARK    9  A    between atoms: C_8  and  C_19
REMARK   10  A    between atoms: C_11  and  O_18
REMARK   11  A    between atoms: C_13  and  O_17
REMARK   12  A    between atoms: C_15  and  O_16
REMARK   13  A    between atoms: N_21  and  C_22
REMARK   14  A    between atoms: C_22  and  C_23
REMARK   15  A    between atoms: C_22  and  C_24
REMARK   16  A    between atoms: C_22  and  C_25
REMARK   17  A    between atoms: C_26  and  C_28
REMARK   18  A    between atoms: C_28  and  C_29
REMARK   19  A    between atoms: C_29  and  S_30
REMARK                            x       y       z     vdW  Elec       q    Type
REMARK                         _______ _______ _______ _____ _____    ______ ____
ROOT
ATOM      1  C   UNL     1       3.571  -4.583  -3.680  0.00  0.00    +0.199 C 
ENDROOT
BRANCH   1   2
ATOM      2  C   UNL     1       3.085  -5.760  -4.485  0.00  0.00    +0.065 A 
ATOM      3  C   UNL     1       3.991  -6.548  -5.178  0.00  0.00    +0.129 A 
ATOM      4  C   UNL     1       3.543  -7.631  -5.919  0.00  0.00    +0.091 A 
ATOM      5  C   UNL     1       2.189  -7.927  -5.967  0.00  0.00    +0.124 A 
ATOM      6  C   UNL     1       1.283  -7.140  -5.273  0.00  0.00    +0.091 A 
ATOM      7  C   UNL     1       1.731  -6.059  -4.528  0.00  0.00    +0.129 A 
BRANCH   7   8
ATOM      8  O   UNL     1       0.843  -5.290  -3.845  0.00  0.00    -0.506 OA
ATOM      9  H   UNL     1       0.420  -4.606  -4.381  0.00  0.00    +0.292 HD
ENDBRANCH   7   8
BRANCH   5  10
ATOM     10  O   UNL     1       1.751  -8.988  -6.694  0.00  0.00    -0.507 OA
ATOM     11  H   UNL     1       1.713  -9.817  -6.197  0.00  0.00    +0.292 HD
ENDBRANCH   5  10
BRANCH   3  12
ATOM     12  O   UNL     1       5.318  -6.258  -5.132  0.00  0.00    -0.506 OA
ATOM     13  H   UNL     1       5.806  -6.755  -4.460  0.00  0.00    +0.292 HD
ENDBRANCH   3  12
ENDBRANCH   1   2
BRANCH   1  14
ATOM     14  C   UNL     1       4.607  -3.827  -4.471  0.00  0.00    +0.239 C 
ATOM     15  O   UNL     1       4.273  -3.161  -5.428  0.00  0.00    -0.273 OA
ATOM     16  N   UNL     1       5.906  -3.891  -4.115  0.00  0.00    -0.309 N 
ATOM     17  H   UNL     1       6.188  -4.503  -3.416  0.00  0.00    +0.149 HD
BRANCH  16  18
ATOM     18  C   UNL     1       6.891  -3.038  -4.783  0.00  0.00    +0.026 C 
ATOM     19  C   UNL     1       6.522  -1.569  -4.570  0.00  0.00    +0.031 C 
ATOM     20  C   UNL     1       8.279  -3.306  -4.196  0.00  0.00    +0.031 C 
ATOM     21  C   UNL     1       6.903  -3.349  -6.281  0.00  0.00    +0.031 C 
ENDBRANCH  16  18
ENDBRANCH   1  14
BRANCH   1  22
ATOM     22  N   UNL     1       2.443  -3.697  -3.380  0.00  0.00    -0.286 N 
ATOM     23  C   UNL     1       1.761  -3.112  -4.384  0.00  0.00    +0.217 C 
ATOM     24  O   UNL     1       1.947  -3.464  -5.530  0.00  0.00    -0.276 OA
BRANCH  22  25
ATOM     25  C   UNL     1       2.058  -3.447  -1.989  0.00  0.00    +0.109 C 
BRANCH  25  26
ATOM     26  C   UNL     1       2.822  -2.232  -1.459  0.00  0.00    +0.019 C 
BRANCH  26  27
ATOM     27  C   UNL     1       2.420  -1.970  -0.006  0.00  0.00    +0.002 C 
BRANCH  27  28
ATOM     28  C   UNL     1       3.184  -0.755   0.524  0.00  0.00    -0.000 C 
BRANCH  28  30
ATOM     29  C   UNL     1       3.546   0.721   2.507  0.00  0.00    +0.004 C 
ATOM     30  C   UNL     1       2.781  -0.494   1.977  0.00  0.00    -0.003 C 
ENDBRANCH  28  30
ENDBRANCH  27  28
ENDBRANCH  26  27
ENDBRANCH  25  26
ENDBRANCH  22  25
BRANCH  23  31
ATOM     31  C   UNL     1       0.766  -2.021  -4.083  0.00  0.00    +0.106 C 
BRANCH  31  32
ATOM     32  C   UNL     1       0.135  -1.532  -5.389  0.00  0.00    +0.075 C 
BRANCH  32  33
ATOM     33  S   UNL     1      -1.062  -0.218  -5.027  0.00  0.00    -0.178 S 
ATOM     34  H   UNL     1      -1.543   0.126  -6.235  0.00  0.00    +0.102 HD
ENDBRANCH  32  33
ENDBRANCH  31  32
ENDBRANCH  23  31
ENDBRANCH   1  22
TORSDOF 15
