REMARK  Name = ZINC39695543
REMARK  7 active torsions:
REMARK  status: ('A' for Active; 'I' for Inactive)
REMARK    1  A    between atoms: C_1  and  C_2
REMARK    2  A    between atoms: C_2  and  N_3
REMARK    3  A    between atoms: C_7  and  C_9
REMARK    4  A    between atoms: C_9  and  N_10
REMARK    5  A    between atoms: C_11  and  C_13
REMARK    6  A    between atoms: C_24  and  C_26
REMARK    7  A    between atoms: C_30  and  C_32
REMARK                            x       y       z     vdW  Elec       q    Type
REMARK                         _______ _______ _______ _____ _____    ______ ____
ROOT
ATOM      1  C   UNL     1       5.127  -0.928   0.513  0.00  0.00    +0.100 C 
ATOM      2  C   UNL     1       5.134   0.614   0.614  0.00  0.00    +0.121 C 
ATOM      3  N   UNL     1       6.474   0.948   1.152  0.00  0.00    -0.296 N 
ATOM      4  C   UNL     1       7.391   0.004   0.469  0.00  0.00    +0.115 C 
ATOM      5  C   UNL     1       6.610  -1.324   0.416  0.00  0.00    -0.004 C 
ATOM      6  C   UNL     1       6.881  -2.043  -0.902  0.00  0.00    -0.010 C 
ATOM      7  C   UNL     1       8.348  -2.478  -0.949  0.00  0.00    -0.082 C 
ATOM      8  N   UNL     1       8.633  -3.367   0.184  0.00  0.00    +0.379 N 
ATOM      9  C   UNL     1       8.460  -2.640   1.447  0.00  0.00    -0.082 C 
ATOM     10  C   UNL     1       6.998  -2.211   1.595  0.00  0.00    -0.010 C 
ATOM     11  C   UNL     1       6.788   1.895   2.058  0.00  0.00    +0.247 C 
ATOM     12  O   UNL     1       5.905   2.507   2.628  0.00  0.00    -0.270 OA
ATOM     13  H   UNL     1       8.001  -4.153   0.161  0.00  0.00    -0.086 HD
ATOM     14  H   UNL     1       9.583  -3.701   0.117  0.00  0.00    -0.086 HD
ENDROOT
BRANCH  11  15
ATOM     15  C   UNL     1       8.204   2.189   2.360  0.00  0.00    +0.037 A 
ATOM     16  C   UNL     1       9.203   1.835   1.449  0.00  0.00    +0.014 A 
ATOM     17  C   UNL     1      10.523   2.112   1.736  0.00  0.00    +0.016 A 
ATOM     18  C   UNL     1      10.859   2.739   2.924  0.00  0.00    +0.021 A 
ATOM     19  C   UNL     1       9.874   3.092   3.831  0.00  0.00    -0.036 A 
ATOM     20  C   UNL     1       8.550   2.826   3.553  0.00  0.00    +0.017 A 
ATOM     21  C   UNL     1      10.249   3.774   5.121  0.00  0.00    +0.045 C 
ATOM     22 BR   UNL     1      12.672   3.114   3.310  0.00  0.00    -0.050 Br
ENDBRANCH  11  15
BRANCH   1  24
ATOM     23  N   UNL     1       3.736  -2.550  -0.733  0.00  0.00    -0.317 N 
ATOM     24  C   UNL     1       4.385  -1.369  -0.723  0.00  0.00    +0.218 C 
ATOM     25  O   UNL     1       4.372  -0.661  -1.707  0.00  0.00    -0.275 OA
ATOM     26  H   UNL     1       3.747  -3.116   0.055  0.00  0.00    +0.149 HD
BRANCH  23  27
ATOM     27  C   UNL     1       3.015  -2.979  -1.934  0.00  0.00    +0.089 C 
BRANCH  27  32
ATOM     28  N   UNL     1       1.519  -4.283  -0.480  0.00  0.00    +0.382 N 
ATOM     29  C   UNL     1       0.134  -4.629  -0.868  0.00  0.00    -0.078 C 
ATOM     30  C   UNL     1       0.052  -4.299  -2.379  0.00  0.00    -0.020 C 
ATOM     31  C   UNL     1       1.462  -4.723  -2.869  0.00  0.00    -0.016 C 
ATOM     32  C   UNL     1       2.371  -4.344  -1.682  0.00  0.00    -0.051 C 
ATOM     33  H   UNL     1       1.539  -3.350  -0.097  0.00  0.00    -0.081 HD
BRANCH  28  35
ATOM     34  C   UNL     1       1.197  -5.087   1.810  0.00  0.00    -0.017 C 
ATOM     35  C   UNL     1       2.006  -5.241   0.521  0.00  0.00    -0.082 C 
ENDBRANCH  28  35
ENDBRANCH  27  32
ENDBRANCH  23  27
ENDBRANCH   1  24
TORSDOF 5
