REMARK  Name = ZINC08635525
REMARK  12 active torsions:
REMARK  status: ('A' for Active; 'I' for Inactive)
REMARK    1  A    between atoms: C_1  and  N_2
REMARK    2  A    between atoms: C_3  and  C_17
REMARK    3  A    between atoms: C_5  and  C_7
REMARK    4  A    between atoms: C_10  and  O_15
REMARK    5  A    between atoms: C_11  and  O_13
REMARK    6  A    between atoms: O_13  and  C_14
REMARK    7  A    between atoms: O_15  and  C_16
REMARK    8  A    between atoms: C_25  and  C_27
REMARK    9  A    between atoms: C_27  and  N_28
REMARK   10  A    between atoms: N_28  and  C_29
REMARK   11  A    between atoms: C_29  and  N_31
REMARK   12  A    between atoms: N_31  and  C_32
REMARK                            x       y       z     vdW  Elec       q    Type
REMARK                         _______ _______ _______ _____ _____    ______ ____
ROOT
ATOM      1  C   UNL     1       5.990  -5.182   1.877  0.00  0.00    +0.024 C 
ATOM      2  C   UNL     1       4.658  -4.432   1.952  0.00  0.00    -0.068 C 
ATOM      3  C   UNL     1       3.616  -6.017   0.447  0.00  0.00    -0.078 C 
ATOM      4  C   UNL     1       4.919  -6.813   0.329  0.00  0.00    -0.015 C 
ATOM      5  C   UNL     1       6.103  -5.854   0.503  0.00  0.00    -0.007 C 
ATOM      6  C   UNL     1       6.020  -4.771  -0.580  0.00  0.00    -0.010 C 
ATOM      7  C   UNL     1       4.686  -4.032  -0.437  0.00  0.00    -0.051 C 
ATOM      8  N   UNL     1       3.905  -4.588   0.689  0.00  0.00    +0.383 N 
ATOM      9  H   UNL     1       3.018  -4.076   0.764  0.00  0.00    -0.081 HD
ENDROOT
BRANCH   1  12
ATOM     10  C   UNL     1       8.787  -5.347   0.560  0.00  0.00    +0.172 C 
ATOM     11  N   UNL     1       8.344  -4.295   1.478  0.00  0.00    -0.271 N 
ATOM     12  C   UNL     1       7.128  -4.211   2.059  0.00  0.00    +0.041 A 
ATOM     13  C   UNL     1       7.113  -3.107   2.837  0.00  0.00    +0.053 A 
ATOM     14  C   UNL     1       8.370  -2.482   2.725  0.00  0.00    +0.093 A 
ATOM     15  N   UNL     1       9.107  -3.199   1.902  0.00  0.00    -0.171 NA
BRANCH  14  16
ATOM     16  C   UNL     1       8.791  -1.236   3.412  0.00  0.00    +0.006 A 
ATOM     17  C   UNL     1       7.903  -0.571   4.256  0.00  0.00    +0.014 A 
ATOM     18  C   UNL     1       8.297   0.585   4.899  0.00  0.00    +0.050 A 
ATOM     19  C   UNL     1       9.571   1.094   4.699  0.00  0.00    +0.162 A 
ATOM     20  C   UNL     1      10.460   0.437   3.852  0.00  0.00    +0.162 A 
ATOM     21  C   UNL     1      10.071  -0.725   3.209  0.00  0.00    +0.059 A 
BRANCH  20  22
ATOM     22  O   UNL     1      11.709   0.938   3.656  0.00  0.00    -0.491 OA
ATOM     23  C   UNL     1      12.568   0.212   2.774  0.00  0.00    +0.277 C 
ENDBRANCH  20  22
BRANCH  19  24
ATOM     24  O   UNL     1       9.953   2.236   5.330  0.00  0.00    -0.491 OA
ATOM     25  C   UNL     1       8.991   2.858   6.184  0.00  0.00    +0.277 C 
ENDBRANCH  19  24
ENDBRANCH  14  16
ENDBRANCH   1  12
BRANCH   7  26
ATOM     26  C   UNL     1       4.952  -2.548  -0.173  0.00  0.00    +0.088 C 
BRANCH  26  27
ATOM     27  N   UNL     1       3.682  -1.863   0.083  0.00  0.00    -0.328 N 
ATOM     28  H   UNL     1       2.850  -2.361   0.065  0.00  0.00    +0.148 HD
BRANCH  27  29
ATOM     29  C   UNL     1       3.671  -0.540   0.342  0.00  0.00    +0.134 C 
ATOM     30  S   UNL     1       5.140   0.339   0.373  0.00  0.00    -0.019 S 
BRANCH  29  31
ATOM     31  N   UNL     1       2.503   0.090   0.576  0.00  0.00    -0.296 N 
ATOM     32  H   UNL     1       1.680  -0.420   0.638  0.00  0.00    +0.154 HD
BRANCH  31  33
ATOM     33  C   UNL     1       2.478   1.477   0.731  0.00  0.00    +0.040 A 
ATOM     34  C   UNL     1       3.226   2.284  -0.099  0.00  0.00    +0.024 A 
ATOM     35  C   UNL     1       3.207   3.667   0.047  0.00  0.00    +0.002 A 
ATOM     36  C   UNL     1       2.451   4.263   1.010  0.00  0.00    +0.008 A 
ATOM     37  C   UNL     1       1.674   3.476   1.878  0.00  0.00    -0.016 A 
ATOM     38  C   UNL     1       1.685   2.067   1.739  0.00  0.00    +0.003 A 
ATOM     39  C   UNL     1       0.908   1.283   2.606  0.00  0.00    +0.010 A 
ATOM     40  C   UNL     1       0.150   1.886   3.564  0.00  0.00    +0.001 A 
ATOM     41  C   UNL     1       0.144   3.272   3.705  0.00  0.00    +0.001 A 
ATOM     42  C   UNL     1       0.885   4.063   2.882  0.00  0.00    +0.008 A 
ENDBRANCH  31  33
ENDBRANCH  29  31
ENDBRANCH  27  29
ENDBRANCH  26  27
ENDBRANCH   7  26
TORSDOF 9
