REMARK  Name = ZINC14531482
REMARK  9 active torsions:
REMARK  status: ('A' for Active; 'I' for Inactive)
REMARK    1  A    between atoms: C_1  and  C_2
REMARK    2  A    between atoms: C_2  and  C_3
REMARK    3  A    between atoms: C_2  and  C_4
REMARK    4  A    between atoms: C_4  and  C_5
REMARK    5  A    between atoms: C_5  and  C_6
REMARK    6  A    between atoms: C_9  and  C_11
REMARK    7  A    between atoms: C_21  and  C_23
REMARK    8  A    between atoms: C_23  and  C_24
REMARK    9  A    between atoms: C_24  and  C_25
REMARK                            x       y       z     vdW  Elec       q    Type
REMARK                         _______ _______ _______ _____ _____    ______ ____
ROOT
ATOM      1  C   UNL     1      -2.829  -2.579  -0.111  0.00  0.00    +0.038 A 
ATOM      2  C   UNL     1      -3.643  -2.675  -1.168  0.00  0.00    +0.057 A 
ATOM      3  N   UNL     1      -4.829  -3.202  -0.723  0.00  0.00    -0.330 N 
ATOM      4  C   UNL     1      -4.699  -3.404   0.600  0.00  0.00    +0.093 A 
ATOM      5  N   UNL     1      -3.497  -3.037   0.963  0.00  0.00    -0.346 N 
ATOM      6  C   UNL     1      -5.989  -3.479  -1.572  0.00  0.00    +0.142 C 
ATOM      7  C   UNL     1      -5.856  -2.689  -2.879  0.00  0.00    +0.130 C 
ATOM      8  N   UNL     1      -4.491  -2.838  -3.404  0.00  0.00    -0.294 N 
ATOM      9  C   UNL     1      -3.376  -2.297  -2.604  0.00  0.00    +0.162 C 
ATOM     10  C   UNL     1      -4.265  -3.453  -4.582  0.00  0.00    +0.216 C 
ATOM     11  O   UNL     1      -3.131  -3.567  -4.999  0.00  0.00    -0.276 OA
ATOM     12  H   UNL     1      -3.144  -3.085   1.865  0.00  0.00    +0.167 HD
ENDROOT
BRANCH   4  13
ATOM     13  C   UNL     1      -5.760  -3.965   1.512  0.00  0.00    +0.081 C 
ATOM     14  C   UNL     1      -5.652  -3.333   2.922  0.00  0.00    +0.041 C 
ATOM     15  C   UNL     1      -5.911  -4.552   3.844  0.00  0.00    +0.160 C 
ATOM     16  O   UNL     1      -5.259  -5.640   3.155  0.00  0.00    -0.379 OA
ATOM     17  C   UNL     1      -5.526  -5.469   1.750  0.00  0.00    +0.171 C 
ENDBRANCH   4  13
BRANCH   1  18
ATOM     18  C   UNL     1      -1.416  -2.058  -0.121  0.00  0.00    +0.055 C 
BRANCH  18  19
ATOM     19  C   UNL     1      -1.433  -0.534   0.013  0.00  0.00    +0.009 C 
BRANCH  19  21
ATOM     20  C   UNL     1      -0.019   1.526   0.010  0.00  0.00    +0.007 C 
ATOM     21  C   UNL     1       0.002  -0.004   0.002  0.00  0.00    -0.017 C 
ATOM     22  C   UNL     1       0.742  -0.511   1.242  0.00  0.00    +0.007 C 
ENDBRANCH  19  21
ENDBRANCH  18  19
ENDBRANCH   1  18
BRANCH  10  23
ATOM     23  C   UNL     1      -5.420  -3.999  -5.381  0.00  0.00    +0.103 C 
BRANCH  23  24
ATOM     24  C   UNL     1      -4.893  -4.641  -6.666  0.00  0.00    +0.083 C 
BRANCH  24  25
ATOM     25  C   UNL     1      -6.048  -5.187  -7.465  0.00  0.00    +0.109 A 
ATOM     26  N   UNL     1      -6.314  -4.876  -8.763  0.00  0.00    -0.342 N 
ATOM     27  H   UNL     1      -5.802  -4.274  -9.327  0.00  0.00    +0.167 HD
ATOM     28  C   UNL     1      -7.447  -5.575  -9.129  0.00  0.00    +0.069 A 
ATOM     29  C   UNL     1      -8.189  -5.668 -10.299  0.00  0.00    +0.066 A 
ATOM     30  C   UNL     1      -9.304  -6.481 -10.337  0.00  0.00    +0.125 A 
ATOM     31  C   UNL     1      -9.685  -7.206  -9.214  0.00  0.00    +0.040 A 
ATOM     32  C   UNL     1      -8.965  -7.125  -8.056  0.00  0.00    +0.032 A 
ATOM     33  C   UNL     1      -7.833  -6.308  -7.995  0.00  0.00    +0.089 A 
ATOM     34  N   UNL     1      -6.932  -6.029  -7.017  0.00  0.00    -0.232 NA
ATOM     35  F   UNL     1     -10.028  -6.574 -11.474  0.00  0.00    -0.205 F 
ENDBRANCH  24  25
ENDBRANCH  23  24
ENDBRANCH  10  23
TORSDOF 7
