REMARK  Name = ZINC64636354
REMARK  7 active torsions:
REMARK  status: ('A' for Active; 'I' for Inactive)
REMARK    1  A    between atoms: C_1  and  N_2
REMARK    2  A    between atoms: N_2  and  C_3
REMARK    3  A    between atoms: N_2  and  C_9
REMARK    4  A    between atoms: C_3  and  C_4
REMARK    5  A    between atoms: C_9  and  C_10
REMARK    6  A    between atoms: N_12  and  C_25
REMARK    7  A    between atoms: C_14  and  C_16
REMARK                            x       y       z     vdW  Elec       q    Type
REMARK                         _______ _______ _______ _____ _____    ______ ____
ROOT
ATOM      1  C   UNL     1       0.356  -0.010  -2.560  0.00  0.00    -0.018 C 
ATOM      2  C   UNL     1       0.418   1.109  -3.254  0.00  0.00    +0.096 C 
ATOM      3  N   UNL     1      -0.382   1.058  -4.379  0.00  0.00    -0.242 N 
ATOM      4  N   UNL     1      -1.024  -0.144  -4.471  0.00  0.00    -0.225 NA
ATOM      5  C   UNL     1      -0.590  -0.932  -3.300  0.00  0.00    +0.132 C 
ATOM      6  H   UNL     1      -0.786  -0.617  -5.329  0.00  0.00    +0.146 HD
ENDROOT
BRANCH   5   7
ATOM      7  C   UNL     1       0.128  -2.182  -3.739  0.00  0.00    -0.021 A 
ATOM      8  C   UNL     1       0.923  -2.159  -4.869  0.00  0.00    +0.009 A 
ATOM      9  C   UNL     1       1.584  -3.304  -5.276  0.00  0.00    +0.050 A 
ATOM     10  C   UNL     1       1.450  -4.476  -4.551  0.00  0.00    +0.166 A 
ATOM     11  C   UNL     1       0.648  -4.499  -3.412  0.00  0.00    +0.167 A 
ATOM     12  C   UNL     1      -0.007  -3.347  -3.008  0.00  0.00    +0.055 A 
ATOM     13  O   UNL     1       0.679  -5.757  -2.882  0.00  0.00    -0.453 OA
ATOM     14  C   UNL     1       1.178  -6.605  -3.933  0.00  0.00    +0.466 C 
ATOM     15  O   UNL     1       1.983  -5.720  -4.734  0.00  0.00    -0.453 OA
ENDBRANCH   5   7
BRANCH   3  16
ATOM     16  C   UNL     1      -0.515   2.098  -5.302  0.00  0.00    +0.049 A 
ATOM     17  C   UNL     1      -1.352   1.950  -6.401  0.00  0.00    +0.025 A 
ATOM     18  C   UNL     1      -1.482   2.981  -7.311  0.00  0.00    +0.002 A 
ATOM     19  C   UNL     1      -0.780   4.159  -7.129  0.00  0.00    +0.000 A 
ATOM     20  C   UNL     1       0.053   4.309  -6.036  0.00  0.00    +0.002 A 
ATOM     21  C   UNL     1       0.183   3.285  -5.119  0.00  0.00    +0.025 A 
ENDBRANCH   3  16
BRANCH   1  22
ATOM     22  C   UNL     1       1.090  -0.316  -1.280  0.00  0.00    +0.118 C 
BRANCH  22  24
ATOM     23  C   UNL     1      -0.060   1.417  -0.041  0.00  0.00    +0.105 C 
ATOM     24  N   UNL     1       0.220  -0.022  -0.134  0.00  0.00    -0.294 NA
BRANCH  24  25
ATOM     25  C   UNL     1       0.806  -0.526   1.115  0.00  0.00    +0.156 C 
BRANCH  25  26
ATOM     26  C   UNL     1       0.704  -2.029   1.148  0.00  0.00    +0.099 A 
ATOM     27  N   UNL     1      -0.195  -2.754   0.501  0.00  0.00    -0.349 N 
ATOM     28  C   UNL     1       0.034  -4.055   0.776  0.00  0.00    +0.101 A 
ATOM     29  C   UNL     1       1.094  -4.109   1.607  0.00  0.00    +0.101 A 
ATOM     30  N   UNL     1       1.501  -2.841   1.823  0.00  0.00    -0.349 N 
ATOM     31  H   UNL     1       2.248  -2.571   2.380  0.00  0.00    +0.166 HD
ATOM     32  H   UNL     1      -0.897  -2.409  -0.072  0.00  0.00    +0.166 HD
ENDBRANCH  25  26
ENDBRANCH  24  25
ENDBRANCH  22  24
ENDBRANCH   1  22
TORSDOF 6
