REMARK  Name = ZINC52095112
REMARK  2 active torsions:
REMARK  status: ('A' for Active; 'I' for Inactive)
REMARK    1  A    between atoms: C_6  and  C_7
REMARK    2  A    between atoms: C_7  and  C_9
REMARK                            x       y       z     vdW  Elec       q    Type
REMARK                         _______ _______ _______ _____ _____    ______ ____
ROOT
ATOM      1  C   UNL     1      -1.458  -1.485   1.337  0.00  0.00    -0.009 A 
ATOM      2  C   UNL     1      -2.244  -0.908   2.316  0.00  0.00    +0.034 A 
ATOM      3  C   UNL     1      -2.405  -1.545   3.536  0.00  0.00    +0.067 A 
ATOM      4  C   UNL     1      -1.773  -2.768   3.772  0.00  0.00    +0.068 A 
ATOM      5  C   UNL     1      -0.987  -3.340   2.785  0.00  0.00    +0.043 A 
ATOM      6  C   UNL     1      -0.835  -2.701   1.569  0.00  0.00    +0.025 A 
ATOM      7 BR   UNL     1       0.231  -3.485   0.219  0.00  0.00    -0.050 Br
ATOM      8  N   UNL     1      -2.117  -3.156   5.065  0.00  0.00    -0.306 N 
ATOM      9  H   UNL     1      -1.827  -3.967   5.511  0.00  0.00    +0.170 HD
ATOM     10  C   UNL     1      -2.922  -2.213   5.591  0.00  0.00    +0.325 A 
ATOM     11  O   UNL     1      -3.401  -2.245   6.709  0.00  0.00    -0.247 OA
ATOM     12  N   UNL     1      -3.114  -1.228   4.694  0.00  0.00    -0.306 N 
ATOM     13  H   UNL     1      -3.654  -0.433   4.829  0.00  0.00    +0.170 HD
ENDROOT
BRANCH   1  14
ATOM     14  C   UNL     1      -1.282  -0.793   0.011  0.00  0.00    +0.141 C 
ATOM     15 CL   UNL     1      -1.511   0.983   0.224  0.00  0.00    -0.112 Cl
BRANCH  14  21
ATOM     16  C   UNL     1      -1.905  -2.007  -2.104  0.00  0.00    +0.025 A 
ATOM     17  C   UNL     1      -2.868  -2.473  -2.979  0.00  0.00    +0.111 A 
ATOM     18  N   UNL     1      -4.149  -2.267  -2.744  0.00  0.00    -0.263 NA
ATOM     19  C   UNL     1      -4.562  -1.616  -1.674  0.00  0.00    +0.111 A 
ATOM     20  C   UNL     1      -3.657  -1.121  -0.754  0.00  0.00    +0.025 A 
ATOM     21  C   UNL     1      -2.301  -1.317  -0.968  0.00  0.00    -0.023 A 
ENDBRANCH  14  21
ENDBRANCH   1  14
TORSDOF 2
