REMARK  Name = ZINC39689453
REMARK  8 active torsions:
REMARK  status: ('A' for Active; 'I' for Inactive)
REMARK    1  A    between atoms: C_1  and  C_2
REMARK    2  A    between atoms: C_6  and  C_8
REMARK    3  A    between atoms: C_8  and  C_9
REMARK    4  A    between atoms: C_9  and  N_10
REMARK    5  A    between atoms: C_11  and  C_13
REMARK    6  A    between atoms: C_24  and  C_26
REMARK    7  A    between atoms: C_30  and  O_31
REMARK    8  A    between atoms: O_31  and  C_32
REMARK                            x       y       z     vdW  Elec       q    Type
REMARK                         _______ _______ _______ _____ _____    ______ ____
ROOT
ATOM      1  C   UNL     1       2.697  -4.914   6.076  0.00  0.00    +0.100 C 
ATOM      2  C   UNL     1       1.951  -6.258   5.921  0.00  0.00    +0.121 C 
ATOM      3  N   UNL     1       3.014  -7.243   5.611  0.00  0.00    -0.296 N 
ATOM      4  C   UNL     1       4.150  -6.845   6.476  0.00  0.00    +0.115 C 
ATOM      5  C   UNL     1       4.139  -5.303   6.443  0.00  0.00    -0.004 C 
ATOM      6  C   UNL     1       5.111  -4.792   5.384  0.00  0.00    -0.010 C 
ATOM      7  C   UNL     1       6.542  -5.142   5.799  0.00  0.00    -0.082 C 
ATOM      8  N   UNL     1       6.839  -4.530   7.100  0.00  0.00    +0.379 N 
ATOM      9  C   UNL     1       5.962  -5.096   8.132  0.00  0.00    -0.082 C 
ATOM     10  C   UNL     1       4.505  -4.744   7.815  0.00  0.00    -0.010 C 
ATOM     11  C   UNL     1       2.959  -8.270   4.739  0.00  0.00    +0.251 C 
ATOM     12  O   UNL     1       1.984  -8.411   4.025  0.00  0.00    -0.270 OA
ATOM     13  H   UNL     1       7.802  -4.711   7.343  0.00  0.00    -0.086 HD
ATOM     14  H   UNL     1       6.691  -3.534   7.043  0.00  0.00    -0.086 HD
ENDROOT
BRANCH  11  15
ATOM     15  C   UNL     1       4.079  -9.219   4.650  0.00  0.00    +0.087 A 
ATOM     16  C   UNL     1       4.811  -9.578   5.761  0.00  0.00    +0.063 A 
ATOM     17  S   UNL     1       5.953 -10.657   5.174  0.00  0.00    -0.081 S 
ATOM     18  C   UNL     1       5.510 -10.674   3.450  0.00  0.00    +0.120 A 
ATOM     19  C   UNL     1       4.460  -9.824   3.394  0.00  0.00    +0.158 A 
ATOM     20 CL   UNL     1       6.243 -11.570   2.156  0.00  0.00    -0.072 Cl
BRANCH  19  21
ATOM     21  O   UNL     1       3.809  -9.551   2.230  0.00  0.00    -0.492 OA
ATOM     22  C   UNL     1       4.298  -8.456   1.454  0.00  0.00    +0.277 C 
ENDBRANCH  19  21
ENDBRANCH  11  15
BRANCH   1  24
ATOM     23  N   UNL     1       2.686  -2.801   4.791  0.00  0.00    -0.315 N 
ATOM     24  C   UNL     1       2.675  -4.149   4.779  0.00  0.00    +0.218 C 
ATOM     25  O   UNL     1       2.647  -4.745   3.723  0.00  0.00    -0.275 OA
ATOM     26  H   UNL     1       2.708  -2.324   5.635  0.00  0.00    +0.149 HD
BRANCH  23  27
ATOM     27  C   UNL     1       2.664  -2.057   3.529  0.00  0.00    +0.109 C 
BRANCH  27  28
ATOM     28  C   UNL     1       2.682  -0.555   3.822  0.00  0.00    +0.054 C 
BRANCH  28  34
ATOM     29  C   UNL     1       5.119   1.629   0.036  0.00  0.00    +0.044 C 
ATOM     30  C   UNL     1       3.825   1.256   0.713  0.00  0.00    -0.050 A 
ATOM     31  C   UNL     1       2.618   1.616   0.144  0.00  0.00    +0.003 A 
ATOM     32  C   UNL     1       1.431   1.273   0.765  0.00  0.00    +0.001 A 
ATOM     33  C   UNL     1       1.452   0.571   1.956  0.00  0.00    +0.004 A 
ATOM     34  C   UNL     1       2.659   0.210   2.524  0.00  0.00    -0.046 A 
ATOM     35  C   UNL     1       3.846   0.549   1.901  0.00  0.00    +0.007 A 
ENDBRANCH  28  34
ENDBRANCH  27  28
ENDBRANCH  23  27
ENDBRANCH   1  24
TORSDOF 6
