REMARK  Name = ZINC20568332
REMARK  6 active torsions:
REMARK  status: ('A' for Active; 'I' for Inactive)
REMARK    1  A    between atoms: C_1  and  C_2
REMARK    2  A    between atoms: C_2  and  C_27
REMARK    3  A    between atoms: C_17  and  N_23
REMARK    4  A    between atoms: C_18  and  C_19
REMARK    5  A    between atoms: C_19  and  O_21
REMARK    6  A    between atoms: O_21  and  C_22
REMARK                            x       y       z     vdW  Elec       q    Type
REMARK                         _______ _______ _______ _____ _____    ______ ____
ROOT
ATOM      1  C   UNL     1       4.635  -1.815  -2.064  0.00  0.00    +0.012 C 
ATOM      2  C   UNL     1       3.187  -2.307  -2.101  0.00  0.00    -0.021 C 
ATOM      3  C   UNL     1       2.640  -2.381  -0.671  0.00  0.00    +0.081 C 
ATOM      4  C   UNL     1       2.606  -0.975  -0.104  0.00  0.00    +0.118 C 
ATOM      5  C   UNL     1       2.477   0.110  -0.910  0.00  0.00    +0.059 C 
ATOM      6  C   UNL     1       2.362   0.031  -2.308  0.00  0.00    +0.165 C 
ATOM      7  O   UNL     1       2.278   1.035  -2.988  0.00  0.00    -0.292 OA
ATOM      8  C   UNL     1       2.346  -1.343  -2.941  0.00  0.00    +0.086 C 
ATOM      9  C   UNL     1       2.487   1.312  -0.011  0.00  0.00    +0.160 C 
ATOM     10  C   UNL     1       3.663   2.195  -0.314  0.00  0.00    -0.000 A 
ATOM     11  C   UNL     1       4.889   1.626  -0.609  0.00  0.00    +0.007 A 
ATOM     12  C   UNL     1       5.980   2.427  -0.886  0.00  0.00    +0.000 A 
ATOM     13  C   UNL     1       5.854   3.804  -0.869  0.00  0.00    +0.002 A 
ATOM     14  C   UNL     1       4.634   4.380  -0.577  0.00  0.00    +0.023 A 
ATOM     15  C   UNL     1       3.535   3.577  -0.300  0.00  0.00    +0.037 A 
ATOM     16  N   UNL     1       2.301   4.166  -0.009  0.00  0.00    -0.302 N 
ATOM     17  C   UNL     1       1.149   3.431  -0.101  0.00  0.00    +0.097 C 
ATOM     18  C   UNL     1       1.192   2.060  -0.104  0.00  0.00    +0.098 C 
ATOM     19  C   UNL     1       2.638   0.705   1.370  0.00  0.00    +0.332 C 
ATOM     20  O   UNL     1       2.698   1.296   2.423  0.00  0.00    -0.249 OA
ATOM     21  O   UNL     1       2.693  -0.625   1.183  0.00  0.00    -0.429 OA
ATOM     22  C   UNL     1       3.140  -3.699  -2.734  0.00  0.00    +0.012 C 
ATOM     23  H   UNL     1       2.254   5.223   0.294  0.00  0.00    +0.153 HD
ENDROOT
BRANCH  17  24
ATOM     24  N   UNL     1      -0.059   4.072  -0.184  0.00  0.00    -0.346 N 
ATOM     25  H   UNL     1      -0.988   3.488  -0.257  0.00  0.00    +0.143 HD
ATOM     26  H   UNL     1      -0.101   5.172  -0.177  0.00  0.00    +0.143 HD
ENDBRANCH  17  24
BRANCH  18  27
ATOM     27  C   UNL     1      -0.005   1.340  -0.204  0.00  0.00    +0.340 C 
ATOM     28  O   UNL     1      -1.054   1.927  -0.402  0.00  0.00    -0.245 OA
BRANCH  27  29
ATOM     29  O   UNL     1       0.004  -0.005  -0.085  0.00  0.00    -0.465 OA
ATOM     30  C   UNL     1      -1.254  -0.675  -0.197  0.00  0.00    +0.280 C 
ENDBRANCH  27  29
ENDBRANCH  18  27
TORSDOF 3
