REMARK  Name = ZINC51840862
REMARK  8 active torsions:
REMARK  status: ('A' for Active; 'I' for Inactive)
REMARK    1  A    between atoms: C_1  and  C_2
REMARK    2  A    between atoms: C_2  and  C_4
REMARK    3  A    between atoms: C_2  and  O_20
REMARK    4  A    between atoms: C_4  and  N_5
REMARK    5  A    between atoms: N_5  and  C_6
REMARK    6  A    between atoms: N_9  and  C_10
REMARK    7  A    between atoms: N_9  and  C_11
REMARK    8  A    between atoms: C_16  and  C_17
REMARK                            x       y       z     vdW  Elec       q    Type
REMARK                         _______ _______ _______ _____ _____    ______ ____
ROOT
ATOM      1  N   UNL     1      -1.454  -2.084   1.607  0.00  0.00    -0.286 N 
ATOM      2  C   UNL     1      -2.385  -2.991   2.283  0.00  0.00    +0.133 C 
ATOM      3  C   UNL     1      -0.328  -2.569   1.047  0.00  0.00    +0.309 C 
ATOM      4  O   UNL     1       0.524  -1.806   0.635  0.00  0.00    -0.252 OA
ATOM      5  N   UNL     1      -0.146  -3.901   0.944  0.00  0.00    -0.258 N 
ATOM      6  C   UNL     1       1.142  -4.431   0.489  0.00  0.00    +0.140 C 
ENDROOT
BRANCH   5   7
ATOM      7  C   UNL     1      -1.181  -4.772   1.271  0.00  0.00    +0.052 A 
ATOM      8  C   UNL     1      -2.248  -4.945   0.400  0.00  0.00    +0.024 A 
ATOM      9  C   UNL     1      -3.273  -5.809   0.726  0.00  0.00    +0.002 A 
ATOM     10  C   UNL     1      -3.248  -6.510   1.922  0.00  0.00    +0.001 A 
ATOM     11  C   UNL     1      -2.199  -6.351   2.799  0.00  0.00    +0.017 A 
ATOM     12  C   UNL     1      -1.149  -5.484   2.481  0.00  0.00    +0.085 A 
BRANCH  12  13
ATOM     13  C   UNL     1      -0.021  -5.315   3.410  0.00  0.00    +0.388 C 
ATOM     14  O   UNL     1       0.003  -5.937   4.463  0.00  0.00    -0.241 OA
ATOM     15  O   UNL     1       0.893  -4.551   3.130  0.00  0.00    -0.241 OA
ENDBRANCH  12  13
ENDBRANCH   5   7
BRANCH   1  16
ATOM     16  C   UNL     1      -1.746  -0.650   1.539  0.00  0.00    +0.140 C 
BRANCH  16  18
ATOM     17  C   UNL     1      -1.554   1.525   2.753  0.00  0.00    +0.039 C 
ATOM     18  C   UNL     1      -1.143   0.051   2.758  0.00  0.00    +0.129 C 
BRANCH  18  19
ATOM     19  O   UNL     1       0.281  -0.047   2.708  0.00  0.00    -0.391 OA
ATOM     20  H   UNL     1       0.731   0.377   3.451  0.00  0.00    +0.210 HD
ENDBRANCH  18  19
ENDBRANCH  16  18
ENDBRANCH   1  16
TORSDOF 5
