REMARK  Name = ZINC61678220
REMARK  6 active torsions:
REMARK  status: ('A' for Active; 'I' for Inactive)
REMARK    1  A    between atoms: C_1  and  C_2
REMARK    2  A    between atoms: C_2  and  C_3
REMARK    3  A    between atoms: C_3  and  C_5
REMARK    4  A    between atoms: C_3  and  N_8
REMARK    5  A    between atoms: C_11  and  N_14
REMARK    6  A    between atoms: C_18  and  C_19
REMARK                            x       y       z     vdW  Elec       q    Type
REMARK                         _______ _______ _______ _____ _____    ______ ____
ROOT
ATOM      1  N   UNL     1      -1.866   0.140   1.342  0.00  0.00    +0.387 N 
ATOM      2  C   UNL     1      -1.476   1.552   1.244  0.00  0.00    -0.076 C 
ATOM      3  C   UNL     1      -1.745   2.253   2.577  0.00  0.00    +0.006 C 
ATOM      4  C   UNL     1      -3.237   2.156   2.907  0.00  0.00    +0.084 C 
ATOM      5  C   UNL     1      -3.649   0.681   2.934  0.00  0.00    +0.006 C 
ATOM      6  C   UNL     1      -3.310   0.038   1.587  0.00  0.00    -0.076 C 
ATOM      7  H   UNL     1      -1.365  -0.293   2.104  0.00  0.00    -0.081 HD
ENDROOT
BRANCH   4   8
ATOM      8  N   UNL     1      -3.489   2.759   4.218  0.00  0.00    -0.339 N 
ATOM      9  C   UNL     1      -2.940   2.362   5.384  0.00  0.00    +0.087 A 
ATOM     10  C   UNL     1      -3.405   3.152   6.383  0.00  0.00    +0.020 A 
ATOM     11  C   UNL     1      -4.282   4.082   5.822  0.00  0.00    +0.034 A 
ATOM     12  C   UNL     1      -4.322   3.829   4.463  0.00  0.00    +0.131 A 
BRANCH  12  13
ATOM     13  C   UNL     1      -5.106   4.560   3.470  0.00  0.00    +0.403 C 
ATOM     14  O   UNL     1      -5.057   4.234   2.291  0.00  0.00    -0.239 OA
ATOM     15  O   UNL     1      -5.812   5.499   3.817  0.00  0.00    -0.239 OA
ENDBRANCH  12  13
ENDBRANCH   4   8
BRANCH   1  16
ATOM     16  C   UNL     1      -1.534  -0.546   0.087  0.00  0.00    +0.019 C 
BRANCH  16  17
ATOM     17  C   UNL     1      -2.176   0.179  -1.067  0.00  0.00    +0.197 C 
ATOM     18  O   UNL     1      -3.056   0.988  -0.861  0.00  0.00    -0.278 OA
ATOM     19  N   UNL     1      -1.772  -0.070  -2.329  0.00  0.00    -0.331 N 
ATOM     20  H   UNL     1      -1.069  -0.717  -2.494  0.00  0.00    +0.145 HD
ATOM     21  H   UNL     1      -2.186   0.397  -3.072  0.00  0.00    +0.145 HD
ENDBRANCH  16  17
BRANCH  16  23
ATOM     22  C   UNL     1      -1.358  -2.739   1.272  0.00  0.00    +0.002 C 
ATOM     23  C   UNL     1      -2.056  -1.984   0.139  0.00  0.00    -0.010 C 
ENDBRANCH  16  23
ENDBRANCH   1  16
TORSDOF 5
