REMARK  Name = ZINC58548645
REMARK  10 active torsions:
REMARK  status: ('A' for Active; 'I' for Inactive)
REMARK    1  A    between atoms: C_1  and  C_2
REMARK    2  A    between atoms: C_2  and  C_3
REMARK    3  A    between atoms: C_2  and  N_19
REMARK    4  A    between atoms: C_3  and  N_4
REMARK    5  A    between atoms: N_7  and  C_8
REMARK    6  A    between atoms: C_13  and  S_14
REMARK    7  A    between atoms: S_14  and  C_15
REMARK    8  A    between atoms: C_15  and  C_16
REMARK    9  A    between atoms: N_19  and  C_20
REMARK   10  A    between atoms: N_19  and  C_21
REMARK                            x       y       z     vdW  Elec       q    Type
REMARK                         _______ _______ _______ _____ _____    ______ ____
ROOT
ATOM      1  N   UNL     1       0.811  -2.214   1.315  0.00  0.00    -0.297 N 
ATOM      2  C   UNL     1       1.428  -2.912   2.289  0.00  0.00    +0.304 C 
ATOM      3  O   UNL     1       1.879  -2.333   3.259  0.00  0.00    -0.253 OA
ATOM      4  N   UNL     1       1.544  -4.250   2.189  0.00  0.00    -0.268 N 
ATOM      5  H   UNL     1       0.451  -2.675   0.541  0.00  0.00    +0.150 HD
ATOM      6  H   UNL     1       1.261  -4.703   1.379  0.00  0.00    +0.156 HD
ENDROOT
BRANCH   4   7
ATOM      7  C   UNL     1       2.076  -4.990   3.255  0.00  0.00    +0.048 A 
ATOM      8  C   UNL     1       1.845  -4.589   4.562  0.00  0.00    +0.024 A 
ATOM      9  C   UNL     1       2.370  -5.319   5.612  0.00  0.00    +0.002 A 
ATOM     10  C   UNL     1       3.126  -6.450   5.363  0.00  0.00    +0.001 A 
ATOM     11  C   UNL     1       3.361  -6.858   4.064  0.00  0.00    +0.016 A 
ATOM     12  C   UNL     1       2.833  -6.134   3.004  0.00  0.00    +0.030 A 
BRANCH  12  13
ATOM     13  S   UNL     1       3.124  -6.655   1.346  0.00  0.00    -0.114 S 
BRANCH  13  14
ATOM     14  C   UNL     1       4.132  -8.153   1.527  0.00  0.00    +0.169 C 
BRANCH  14  15
ATOM     15  C   UNL     1       4.456  -8.708   0.164  0.00  0.00    +0.221 C 
ATOM     16  O   UNL     1       4.047  -8.149  -0.831  0.00  0.00    -0.275 OA
ATOM     17  N   UNL     1       5.200  -9.826   0.051  0.00  0.00    -0.329 N 
ATOM     18  H   UNL     1       5.527 -10.273   0.848  0.00  0.00    +0.145 HD
ATOM     19  H   UNL     1       5.409 -10.183  -0.826  0.00  0.00    +0.145 HD
ENDBRANCH  14  15
ENDBRANCH  13  14
ENDBRANCH  12  13
ENDBRANCH   4   7
BRANCH   1  20
ATOM     20  C   UNL     1       0.684  -0.758   1.424  0.00  0.00    +0.127 C 
BRANCH  20  22
ATOM     21  C   UNL     1      -0.073   1.312   0.249  0.00  0.00    +0.029 C 
ATOM     22  C   UNL     1      -0.050  -0.217   0.196  0.00  0.00    +0.087 C 
BRANCH  22  23
ATOM     23  N   UNL     1       0.642  -0.653  -1.019  0.00  0.00    -0.329 N 
ATOM     24  C   UNL     1       2.002  -0.182  -1.297  0.00  0.00    +0.129 C 
BRANCH  23  25
ATOM     25  C   UNL     1       0.007  -1.519  -1.912  0.00  0.00    +0.030 A 
ATOM     26  C   UNL     1      -1.237  -2.051  -1.600  0.00  0.00    +0.023 A 
ATOM     27  C   UNL     1      -1.863  -2.906  -2.486  0.00  0.00    +0.002 A 
ATOM     28  C   UNL     1      -1.252  -3.233  -3.683  0.00  0.00    +0.000 A 
ATOM     29  C   UNL     1      -0.013  -2.705  -3.997  0.00  0.00    +0.002 A 
ATOM     30  C   UNL     1       0.616  -1.845  -3.118  0.00  0.00    +0.023 A 
ENDBRANCH  23  25
ENDBRANCH  22  23
ENDBRANCH  20  22
ENDBRANCH   1  20
TORSDOF 8
