REMARK  Name = ZINC06915752
REMARK  6 active torsions:
REMARK  status: ('A' for Active; 'I' for Inactive)
REMARK    1  A    between atoms: C_1  and  C_2
REMARK    2  A    between atoms: C_5  and  N_8
REMARK    3  A    between atoms: C_9  and  C_11
REMARK    4  A    between atoms: C_11  and  S_12
REMARK    5  A    between atoms: S_12  and  C_13
REMARK    6  A    between atoms: C_15  and  C_24
REMARK                            x       y       z     vdW  Elec       q    Type
REMARK                         _______ _______ _______ _____ _____    ______ ____
ROOT
ATOM      1  C   UNL     1       3.864  -6.549  -0.522  0.00  0.00    +0.192 A 
ATOM      2  N   UNL     1       2.633  -7.035  -0.494  0.00  0.00    -0.202 NA
ATOM      3  C   UNL     1       2.415  -8.350  -0.587  0.00  0.00    +0.168 A 
ATOM      4  N   UNL     1       3.421  -9.206  -0.711  0.00  0.00    -0.208 NA
ATOM      5  C   UNL     1       4.680  -8.759  -0.744  0.00  0.00    +0.162 A 
ATOM      6  N   UNL     1       4.920  -7.403  -0.654  0.00  0.00    -0.210 N 
ATOM      7  N   UNL     1       6.304  -7.208  -0.708  0.00  0.00    -0.256 N 
ATOM      8  H   UNL     1       6.758  -6.351  -0.664  0.00  0.00    +0.191 HD
ATOM      9  C   UNL     1       6.900  -8.409  -0.837  0.00  0.00    +0.267 A 
ATOM     10  O   UNL     1       8.102  -8.604  -0.918  0.00  0.00    -0.266 OA
ATOM     11  C   UNL     1       5.910  -9.393  -0.862  0.00  0.00    +0.119 A 
ENDROOT
BRANCH   3  12
ATOM     12  C   UNL     1       1.026  -8.861  -0.552  0.00  0.00    +0.054 A 
ATOM     13  C   UNL     1       0.780 -10.230  -0.655  0.00  0.00    +0.014 A 
ATOM     14  C   UNL     1      -0.515 -10.701  -0.616  0.00  0.00    +0.001 A 
ATOM     15  C   UNL     1      -1.573  -9.818  -0.488  0.00  0.00    +0.003 A 
ATOM     16  C   UNL     1      -1.340  -8.459  -0.391  0.00  0.00    +0.039 A 
ATOM     17  C   UNL     1      -0.045  -7.973  -0.423  0.00  0.00    +0.134 A 
ATOM     18  F   UNL     1       0.183  -6.645  -0.329  0.00  0.00    -0.205 F 
ENDBRANCH   3  12
BRANCH   1  19
ATOM     19  S   UNL     1       4.135  -4.812  -0.398  0.00  0.00    -0.077 S 
BRANCH  19  20
ATOM     20  C   UNL     1       2.425  -4.236  -0.258  0.00  0.00    +0.173 C 
BRANCH  20  22
ATOM     21  N   UNL     1       1.237  -2.079  -0.020  0.00  0.00    -0.285 N 
ATOM     22  C   UNL     1       2.410  -2.734  -0.137  0.00  0.00    +0.227 C 
ATOM     23  O   UNL     1       3.452  -2.114  -0.144  0.00  0.00    -0.275 OA
ATOM     24  H   UNL     1       0.409  -2.578   0.062  0.00  0.00    +0.155 HD
BRANCH  21  29
ATOM     25  C   UNL     1       1.143   3.593  -0.015  0.00  0.00    +0.044 C 
ATOM     26  C   UNL     1       1.168   2.086  -0.017  0.00  0.00    -0.050 A 
ATOM     27  C   UNL     1       2.111   1.412  -0.771  0.00  0.00    +0.005 A 
ATOM     28  C   UNL     1       2.137   0.031  -0.774  0.00  0.00    +0.023 A 
ATOM     29  C   UNL     1       1.214  -0.680  -0.019  0.00  0.00    +0.033 A 
ATOM     30  C   UNL     1       0.268  -0.001   0.737  0.00  0.00    +0.023 A 
ATOM     31  C   UNL     1       0.248   1.380   0.736  0.00  0.00    +0.005 A 
ENDBRANCH  21  29
ENDBRANCH  20  22
ENDBRANCH  19  20
ENDBRANCH   1  19
TORSDOF 5
