REMARK  Name = ZINC06797398
REMARK  9 active torsions:
REMARK  status: ('A' for Active; 'I' for Inactive)
REMARK    1  A    between atoms: C_1  and  C_2
REMARK    2  A    between atoms: C_3  and  C_20
REMARK    3  A    between atoms: N_9  and  C_10
REMARK    4  A    between atoms: C_10  and  C_11
REMARK    5  A    between atoms: C_11  and  C_13
REMARK    6  A    between atoms: C_11  and  C_14
REMARK    7  A    between atoms: C_23  and  C_26
REMARK    8  A    between atoms: C_26  and  C_27
REMARK    9  A    between atoms: C_26  and  C_28
REMARK                            x       y       z     vdW  Elec       q    Type
REMARK                         _______ _______ _______ _____ _____    ______ ____
ROOT
ATOM      1  C   UNL     1      -2.514   1.842  -0.049  0.00  0.00    +0.049 C 
ATOM      2  C   UNL     1      -1.085   2.319  -0.011  0.00  0.00    +0.018 C 
ATOM      3  C   UNL     1      -0.035   1.470   0.070  0.00  0.00    +0.126 C 
ATOM      4  S   UNL     1       1.349   2.591   0.069  0.00  0.00    +0.101 S 
ATOM      5  O   UNL     1       1.964   2.521   1.349  0.00  0.00    -0.146 OA
ATOM      6  O   UNL     1       2.054   2.409  -1.151  0.00  0.00    -0.146 OA
ATOM      7  N   UNL     1       0.533   4.049  -0.025  0.00  0.00    -0.113 NA
ATOM      8  C   UNL     1      -0.729   3.724  -0.056  0.00  0.00    +0.145 C 
ATOM      9  N   UNL     1      -1.706   4.696  -0.134  0.00  0.00    -0.327 N 
ATOM     10  H   UNL     1      -2.642   4.443  -0.157  0.00  0.00    +0.148 HD
ENDROOT
BRANCH   3  11
ATOM     11  C   UNL     1      -0.036  -0.002   0.134  0.00  0.00    +0.002 A 
ATOM     12  C   UNL     1       0.825  -0.741  -0.682  0.00  0.00    +0.010 A 
ATOM     13  C   UNL     1       0.821  -2.119  -0.613  0.00  0.00    +0.004 A 
ATOM     14  C   UNL     1      -0.038  -2.769   0.255  0.00  0.00    -0.045 A 
ATOM     15  C   UNL     1      -0.897  -2.044   1.063  0.00  0.00    +0.004 A 
ATOM     16  C   UNL     1      -0.901  -0.666   1.008  0.00  0.00    +0.010 A 
BRANCH  14  17
ATOM     17  C   UNL     1      -0.039  -4.274   0.321  0.00  0.00    +0.013 C 
ATOM     18  C   UNL     1      -0.396  -4.845  -1.052  0.00  0.00    +0.012 C 
ATOM     19  C   UNL     1       1.349  -4.768   0.733  0.00  0.00    +0.012 C 
ENDBRANCH  14  17
ENDBRANCH   3  11
BRANCH   9  20
ATOM     20  C   UNL     1      -1.329   6.111  -0.183  0.00  0.00    +0.111 C 
BRANCH  20  21
ATOM     21  C   UNL     1      -2.591   6.973  -0.267  0.00  0.00    +0.033 C 
ATOM     22  C   UNL     1      -3.308   6.699  -1.591  0.00  0.00    +0.014 C 
BRANCH  21  23
ATOM     23  C   UNL     1      -2.211   8.429  -0.194  0.00  0.00    -0.043 A 
ATOM     24  C   UNL     1      -1.366   8.972  -1.144  0.00  0.00    +0.004 A 
ATOM     25  C   UNL     1      -1.021  10.309  -1.079  0.00  0.00    +0.000 A 
ATOM     26  C   UNL     1      -1.512  11.101  -0.059  0.00  0.00    +0.000 A 
ATOM     27  C   UNL     1      -2.353  10.557   0.895  0.00  0.00    +0.000 A 
ATOM     28  C   UNL     1      -2.702   9.221   0.827  0.00  0.00    +0.004 A 
ENDBRANCH  21  23
ENDBRANCH  20  21
ENDBRANCH   9  20
TORSDOF 5
