REMARK  Name = ZINC11807350
REMARK  3 active torsions:
REMARK  status: ('A' for Active; 'I' for Inactive)
REMARK    1  A    between atoms: C_1  and  C_2
REMARK    2  A    between atoms: C_4  and  C_21
REMARK    3  A    between atoms: C_12  and  C_14
REMARK                            x       y       z     vdW  Elec       q    Type
REMARK                         _______ _______ _______ _____ _____    ______ ____
ROOT
ATOM      1  C   UNL     1       6.674   9.035   1.072  0.00  0.00    +0.044 C 
ATOM      2  C   UNL     1       5.247   8.557   1.000  0.00  0.00    -0.049 A 
ATOM      3  C   UNL     1       4.199   9.454   1.150  0.00  0.00    +0.009 A 
ATOM      4  C   UNL     1       2.893   9.046   1.089  0.00  0.00    -0.024 A 
ATOM      5  C   UNL     1       2.570   7.686   0.870  0.00  0.00    +0.083 A 
ATOM      6  C   UNL     1       3.662   6.802   0.722  0.00  0.00    +0.041 A 
ATOM      7  C   UNL     1       4.968   7.220   0.785  0.00  0.00    +0.020 A 
ATOM      8  S   UNL     1       2.853   5.239   0.480  0.00  0.00    -0.052 S 
ATOM      9  C   UNL     1       1.172   5.838   0.577  0.00  0.00    +0.166 A 
ATOM     10  N   UNL     1       1.345   7.123   0.784  0.00  0.00    -0.224 NA
ATOM     11  N   UNL     1      -0.011   5.128   0.468  0.00  0.00    -0.259 N 
ATOM     12  C   UNL     1       0.019   3.798   0.253  0.00  0.00    +0.271 C 
ATOM     13  O   UNL     1       1.085   3.222   0.154  0.00  0.00    -0.268 OA
ATOM     14  C   UNL     1       1.787  10.056   1.257  0.00  0.00    +0.046 C 
ATOM     15  H   UNL     1      -0.861   5.588   0.546  0.00  0.00    +0.157 HD
ENDROOT
BRANCH  12  16
ATOM     16  C   UNL     1      -1.243   3.040   0.136  0.00  0.00    +0.165 A 
ATOM     17  C   UNL     1      -1.219   1.678  -0.205  0.00  0.00    +0.147 A 
ATOM     18  N   UNL     1      -2.360   1.005  -0.301  0.00  0.00    -0.237 NA
ATOM     19  C   UNL     1      -3.509   1.618  -0.082  0.00  0.00    +0.132 A 
ATOM     20  C   UNL     1      -3.532   2.965   0.249  0.00  0.00    +0.131 A 
ATOM     21  N   UNL     1      -2.408   3.646   0.348  0.00  0.00    -0.246 NA
ATOM     22  N   UNL     1      -0.015   1.039  -0.434  0.00  0.00    -0.341 N 
ATOM     23  H   UNL     1       0.765   1.554  -0.693  0.00  0.00    +0.144 HD
ATOM     24  H   UNL     1       0.052   0.077  -0.331  0.00  0.00    +0.144 HD
ENDBRANCH  12  16
TORSDOF 1
