REMARK  Name = ZINC52094693
REMARK  7 active torsions:
REMARK  status: ('A' for Active; 'I' for Inactive)
REMARK    1  A    between atoms: C_1  and  C_2
REMARK    2  A    between atoms: C_2  and  C_3
REMARK    3  A    between atoms: C_3  and  N_4
REMARK    4  A    between atoms: N_4  and  C_5
REMARK    5  A    between atoms: C_5  and  C_7
REMARK    6  A    between atoms: C_5  and  C_12
REMARK    7  A    between atoms: C_7  and  C_8
REMARK                            x       y       z     vdW  Elec       q    Type
REMARK                         _______ _______ _______ _____ _____    ______ ____
ROOT
ATOM      1  C   UNL     1      -3.020  -4.115   0.290  0.00  0.00    -0.045 A 
ATOM      2  C   UNL     1      -1.834  -4.824   0.266  0.00  0.00    +0.031 A 
ATOM      3  C   UNL     1      -1.846  -6.196   0.471  0.00  0.00    +0.067 A 
ATOM      4  C   UNL     1      -3.056  -6.854   0.700  0.00  0.00    +0.068 A 
ATOM      5  C   UNL     1      -4.241  -6.135   0.723  0.00  0.00    +0.043 A 
ATOM      6  C   UNL     1      -4.219  -4.768   0.523  0.00  0.00    +0.022 A 
ATOM      7 BR   UNL     1      -5.834  -3.784   0.562  0.00  0.00    -0.050 Br
ATOM      8  N   UNL     1      -2.754  -8.204   0.868  0.00  0.00    -0.306 N 
ATOM      9  H   UNL     1      -3.394  -8.912   1.042  0.00  0.00    +0.170 HD
ATOM     10  C   UNL     1      -1.422  -8.359   0.745  0.00  0.00    +0.325 A 
ATOM     11  O   UNL     1      -0.828  -9.417   0.837  0.00  0.00    -0.247 OA
ATOM     12  N   UNL     1      -0.847  -7.165   0.506  0.00  0.00    -0.306 N 
ATOM     13  H   UNL     1       0.102  -7.008   0.379  0.00  0.00    +0.170 HD
ENDROOT
BRANCH   1  14
ATOM     14  C   UNL     1      -3.007  -2.625   0.068  0.00  0.00    -0.031 C 
BRANCH  14  15
ATOM     15  N   UNL     1      -1.657  -2.104   0.319  0.00  0.00    +0.384 N 
ATOM     16  H   UNL     1      -1.627  -1.122   0.088  0.00  0.00    -0.085 HD
ATOM     17  H   UNL     1      -0.992  -2.604  -0.252  0.00  0.00    -0.085 HD
BRANCH  15  18
ATOM     18  C   UNL     1      -1.318  -2.284   1.737  0.00  0.00    -0.082 C 
BRANCH  18  20
ATOM     19  C   UNL     1       0.483  -2.041   3.451  0.00  0.00    +0.002 C 
ATOM     20  C   UNL     1       0.131  -1.853   1.974  0.00  0.00    -0.022 C 
ENDBRANCH  18  20
ENDBRANCH  15  18
ENDBRANCH  14  15
BRANCH  14  21
ATOM     21  C   UNL     1      -3.410  -2.321  -1.376  0.00  0.00    +0.102 C 
BRANCH  21  22
ATOM     22  C   UNL     1      -3.539  -0.808  -1.563  0.00  0.00    +0.389 C 
ATOM     23  F   UNL     1      -2.281  -0.212  -1.417  0.00  0.00    -0.171 F 
ATOM     24  F   UNL     1      -4.039  -0.536  -2.841  0.00  0.00    -0.171 F 
ATOM     25  F   UNL     1      -4.413  -0.292  -0.600  0.00  0.00    -0.171 F 
ENDBRANCH  21  22
ENDBRANCH  14  21
ENDBRANCH   1  14
TORSDOF 6
