REMARK  Name = ZINC22017485
REMARK  3 active torsions:
REMARK  status: ('A' for Active; 'I' for Inactive)
REMARK    1  A    between atoms: C_3  and  O_21
REMARK    2  A    between atoms: C_4  and  C_8
REMARK    3  A    between atoms: C_16  and  O_20
REMARK                            x       y       z     vdW  Elec       q    Type
REMARK                         _______ _______ _______ _____ _____    ______ ____
ROOT
ATOM      1  C   UNL     1      -2.740   1.346   0.285  0.00  0.00    -0.031 C 
ATOM      2  C   UNL     1      -3.083   0.931   1.717  0.00  0.00    +0.011 C 
ATOM      3  C   UNL     1      -3.225   2.171   2.601  0.00  0.00    +0.005 C 
ATOM      4  C   UNL     1      -3.575   1.737   4.026  0.00  0.00    +0.000 C 
ATOM      5  C   UNL     1      -2.468   0.838   4.577  0.00  0.00    +0.003 C 
ATOM      6  C   UNL     1      -2.315  -0.399   3.685  0.00  0.00    +0.035 C 
ATOM      7  C   UNL     1      -1.960   0.044   2.265  0.00  0.00    +0.066 C 
ATOM      8  C   UNL     1      -1.802  -1.179   1.360  0.00  0.00    +0.016 C 
ATOM      9  C   UNL     1      -1.500  -0.710  -0.066  0.00  0.00    -0.079 C 
ATOM     10  N   UNL     1      -2.592   0.144  -0.548  0.00  0.00    +0.384 N 
ATOM     11  H   UNL     1      -3.526  -0.436  -0.523  0.00  0.00    -0.085 HD
ATOM     12  H   UNL     1      -2.373   0.441  -1.584  0.00  0.00    -0.085 HD
ENDROOT
BRANCH   1  16
ATOM     13  C   UNL     1       0.927   3.545   0.270  0.00  0.00    +0.019 A 
ATOM     14  C   UNL     1      -0.255   4.176  -0.069  0.00  0.00    +0.047 A 
ATOM     15  C   UNL     1      -1.446   3.466  -0.061  0.00  0.00    +0.119 A 
ATOM     16  C   UNL     1      -1.448   2.122   0.282  0.00  0.00    -0.019 A 
ATOM     17  C   UNL     1      -0.265   1.496   0.625  0.00  0.00    +0.020 A 
ATOM     18  C   UNL     1       0.922   2.207   0.617  0.00  0.00    +0.018 A 
ATOM     19 BR   UNL     1       2.541   1.345   1.080  0.00  0.00    -0.050 Br
BRANCH  15  20
ATOM     20  O   UNL     1      -2.609   4.085  -0.395  0.00  0.00    -0.507 OA
ATOM     21  H   UNL     1      -3.554   3.521  -0.388  0.00  0.00    +0.292 HD
ENDBRANCH  15  20
ENDBRANCH   1  16
BRANCH   7  22
ATOM     22  O   UNL     1      -0.737   0.783   2.288  0.00  0.00    -0.388 OA
ATOM     23  H   UNL     1       0.185   0.308   2.653  0.00  0.00    +0.210 HD
ENDBRANCH   7  22
TORSDOF 3
