REMARK  Name = ZINC19325516
REMARK  5 active torsions:
REMARK  status: ('A' for Active; 'I' for Inactive)
REMARK    1  A    between atoms: C_1  and  C_2
REMARK    2  A    between atoms: C_2  and  C_3
REMARK    3  A    between atoms: C_9  and  C_28
REMARK    4  A    between atoms: N_17  and  C_20
REMARK    5  A    between atoms: C_20  and  C_21
REMARK                            x       y       z     vdW  Elec       q    Type
REMARK                         _______ _______ _______ _____ _____    ______ ____
ROOT
ATOM      1  C   UNL     1      -1.412  -0.526   0.013  0.00  0.00    -0.047 A 
ATOM      2  C   UNL     1      -2.046  -0.764   1.230  0.00  0.00    +0.006 A 
ATOM      3  C   UNL     1      -3.324  -1.235   1.277  0.00  0.00    +0.029 A 
ATOM      4  C   UNL     1      -4.014  -1.485   0.081  0.00  0.00    +0.076 A 
ATOM      5  C   UNL     1      -3.367  -1.242  -1.158  0.00  0.00    +0.022 A 
ATOM      6  C   UNL     1      -2.053  -0.752  -1.168  0.00  0.00    +0.015 A 
ATOM      7  C   UNL     1      -4.078  -1.498  -2.345  0.00  0.00    +0.051 A 
ATOM      8  N   UNL     1      -5.310  -1.952  -2.252  0.00  0.00    -0.219 NA
ATOM      9  C   UNL     1      -5.886  -2.169  -1.072  0.00  0.00    +0.222 A 
ATOM     10  N   UNL     1      -5.270  -1.947   0.072  0.00  0.00    -0.214 NA
ATOM     11  N   UNL     1      -7.188  -2.648  -1.045  0.00  0.00    -0.256 N 
ATOM     12  C   UNL     1      -7.811  -2.883   0.162  0.00  0.00    +0.184 C 
ATOM     13  N   UNL     1      -7.173  -2.647   1.264  0.00  0.00    -0.240 NA
ATOM     14  C   UNL     1      -7.751  -2.884   2.583  0.00  0.00    +0.233 C 
ATOM     15  N   UNL     1      -9.217  -2.930   2.507  0.00  0.00    -0.264 NA
ATOM     16  C   UNL     1      -9.644  -3.863   1.448  0.00  0.00    +0.193 C 
ATOM     17  N   UNL     1      -9.103  -3.358   0.175  0.00  0.00    -0.304 N 
ATOM     18  C   UNL     1      -3.443  -1.258  -3.690  0.00  0.00    +0.066 C 
ATOM     19  H   UNL     1      -7.660  -2.818  -1.876  0.00  0.00    +0.158 HD
ATOM     20  H   UNL     1      -9.641  -3.362  -0.632  0.00  0.00    +0.150 HD
ENDROOT
BRANCH   1  22
ATOM     21  C   UNL     1      -0.019   1.526   0.010  0.00  0.00    +0.009 C 
ATOM     22  C   UNL     1       0.002  -0.004   0.002  0.00  0.00    +0.032 C 
ENDBRANCH   1  22
BRANCH  15  23
ATOM     23  C   UNL     1      -9.799  -3.303   3.804  0.00  0.00    +0.122 C 
BRANCH  23  24
ATOM     24  C   UNL     1      -9.526  -2.214   4.809  0.00  0.00    -0.033 A 
ATOM     25  C   UNL     1      -8.373  -2.250   5.571  0.00  0.00    +0.006 A 
ATOM     26  C   UNL     1      -8.123  -1.251   6.493  0.00  0.00    +0.020 A 
ATOM     27  C   UNL     1      -9.025  -0.215   6.653  0.00  0.00    +0.041 A 
ATOM     28  C   UNL     1     -10.179  -0.179   5.890  0.00  0.00    +0.020 A 
ATOM     29  C   UNL     1     -10.426  -1.176   4.964  0.00  0.00    +0.006 A 
ATOM     30 CL   UNL     1      -8.711   1.039   7.811  0.00  0.00    -0.084 Cl
ENDBRANCH  23  24
ENDBRANCH  15  23
TORSDOF 3
