REMARK  Name = ZINC13591933
REMARK  6 active torsions:
REMARK  status: ('A' for Active; 'I' for Inactive)
REMARK    1  A    between atoms: C_1  and  C_2
REMARK    2  A    between atoms: C_2  and  C_3
REMARK    3  A    between atoms: C_2  and  C_4
REMARK    4  A    between atoms: C_4  and  C_5
REMARK    5  A    between atoms: N_13  and  C_16
REMARK    6  A    between atoms: C_16  and  C_17
REMARK                            x       y       z     vdW  Elec       q    Type
REMARK                         _______ _______ _______ _____ _____    ______ ____
ROOT
ATOM      1  C   UNL     1       2.187  -0.073  -1.207  0.00  0.00    +0.068 C 
ATOM      2  C   UNL     1       2.950  -0.634  -2.426  0.00  0.00    +0.107 C 
ATOM      3  C   UNL     1       3.951   0.487  -2.820  0.00  0.00    +0.122 C 
ATOM      4  C   UNL     1       5.300  -0.134  -2.536  0.00  0.00    +0.228 C 
ATOM      5  O   UNL     1       6.371   0.410  -2.702  0.00  0.00    -0.275 OA
ATOM      6  N   UNL     1       5.129  -1.377  -2.072  0.00  0.00    -0.239 N 
ATOM      7  C   UNL     1       3.838  -1.772  -1.974  0.00  0.00    +0.227 C 
ATOM      8  O   UNL     1       3.449  -2.853  -1.588  0.00  0.00    -0.275 OA
ATOM      9  C   UNL     1       3.668   1.624  -1.831  0.00  0.00    +0.136 C 
ATOM     10  N   UNL     1       2.304   1.404  -1.330  0.00  0.00    -0.295 NA
ATOM     11  C   UNL     1       3.824   2.970  -2.479  0.00  0.00    +0.005 A 
ATOM     12  C   UNL     1       3.219   3.580  -3.555  0.00  0.00    +0.027 A 
ATOM     13  C   UNL     1       3.585   4.864  -3.920  0.00  0.00    +0.041 A 
ATOM     14  C   UNL     1       4.559   5.533  -3.200  0.00  0.00    +0.022 A 
ATOM     15  C   UNL     1       5.167   4.926  -2.121  0.00  0.00    +0.025 A 
ATOM     16  C   UNL     1       4.805   3.633  -1.748  0.00  0.00    +0.039 A 
ATOM     17  N   UNL     1       5.268   2.818  -0.712  0.00  0.00    -0.283 N 
ATOM     18  C   UNL     1       4.652   1.621  -0.693  0.00  0.00    +0.243 C 
ATOM     19  O   UNL     1       4.850   0.716   0.090  0.00  0.00    -0.273 OA
ATOM     20 CL   UNL     1       2.825   5.634  -5.278  0.00  0.00    -0.084 Cl
ATOM     21  H   UNL     1       1.626   1.767  -1.984  0.00  0.00    +0.123 HD
ATOM     22  H   UNL     1       5.954   3.084  -0.080  0.00  0.00    +0.155 HD
ENDROOT
BRANCH   1  23
ATOM     23  C   UNL     1       0.718  -0.497  -1.257  0.00  0.00    +0.022 C 
BRANCH  23  25
ATOM     24  C   UNL     1      -0.019   1.526   0.010  0.00  0.00    +0.007 C 
ATOM     25  C   UNL     1       0.002  -0.004   0.002  0.00  0.00    -0.016 C 
ATOM     26  C   UNL     1      -1.433  -0.534   0.013  0.00  0.00    +0.007 C 
ENDBRANCH  23  25
ENDBRANCH   1  23
BRANCH   6  27
ATOM     27  C   UNL     1       6.248  -2.247  -1.705  0.00  0.00    +0.148 C 
BRANCH  27  28
ATOM     28  C   UNL     1       6.592  -2.041  -0.228  0.00  0.00    +0.136 C 
ATOM     29  C   UNL     1       7.798  -2.927   0.173  0.00  0.00    +0.035 C 
ATOM     30  C   UNL     1       8.357  -2.133   1.384  0.00  0.00    +0.031 C 
ATOM     31  C   UNL     1       8.071  -0.671   0.979  0.00  0.00    +0.160 C 
ATOM     32  O   UNL     1       7.024  -0.690  -0.001  0.00  0.00    -0.375 OA
ENDBRANCH  27  28
ENDBRANCH   6  27
TORSDOF 4
