REMARK  Name = ZINC65617556
REMARK  5 active torsions:
REMARK  status: ('A' for Active; 'I' for Inactive)
REMARK    1  A    between atoms: C_6  and  N_7
REMARK    2  A    between atoms: C_8  and  C_10
REMARK    3  A    between atoms: C_10  and  N_11
REMARK    4  A    between atoms: C_12  and  C_14
REMARK    5  A    between atoms: C_19  and  O_20
REMARK                            x       y       z     vdW  Elec       q    Type
REMARK                         _______ _______ _______ _____ _____    ______ ____
ROOT
ATOM      1  C   UNL     1      -3.662  -0.839   0.248  0.00  0.00    +0.200 C 
ENDROOT
BRANCH   1   3
ATOM      2  N   UNL     1      -1.202  -0.720   0.010  0.00  0.00    -0.284 N 
ATOM      3  C   UNL     1      -2.374  -0.065   0.126  0.00  0.00    +0.234 C 
ATOM      4  O   UNL     1      -2.393   1.148   0.133  0.00  0.00    -0.274 OA
ATOM      5  H   UNL     1      -1.192  -1.687  -0.063  0.00  0.00    +0.155 HD
BRANCH   2  11
ATOM      6  C   UNL     1       1.138  -0.544   0.584  0.00  0.00    +0.025 A 
ATOM      7  C   UNL     1       2.328   0.157   0.572  0.00  0.00    +0.029 A 
ATOM      8  C   UNL     1       2.390   1.404  -0.031  0.00  0.00    +0.067 A 
ATOM      9  C   UNL     1       1.250   1.950  -0.625  0.00  0.00    +0.069 A 
ATOM     10  C   UNL     1       0.057   1.244  -0.610  0.00  0.00    +0.051 A 
ATOM     11  C   UNL     1       0.002  -0.003  -0.006  0.00  0.00    +0.036 A 
ATOM     12  N   UNL     1       1.618   3.191  -1.138  0.00  0.00    -0.306 N 
ATOM     13  H   UNL     1       1.034   3.807  -1.608  0.00  0.00    +0.170 HD
ATOM     14  C   UNL     1       2.922   3.392  -0.869  0.00  0.00    +0.325 A 
ATOM     15  O   UNL     1       3.557   4.382  -1.181  0.00  0.00    -0.247 OA
ATOM     16  N   UNL     1       3.416   2.332  -0.202  0.00  0.00    -0.306 N 
ATOM     17  H   UNL     1       4.330   2.232   0.107  0.00  0.00    +0.170 HD
ENDBRANCH   2  11
ENDBRANCH   1   3
BRANCH   1  18
ATOM     18  N   UNL     1      -4.785   0.095   0.360  0.00  0.00    -0.303 N 
ATOM     19  C   UNL     1      -6.042  -0.375   0.480  0.00  0.00    +0.248 C 
ATOM     20  O   UNL     1      -6.245  -1.574   0.495  0.00  0.00    -0.270 OA
ATOM     21  H   UNL     1      -4.623   1.051   0.349  0.00  0.00    +0.150 HD
BRANCH  19  22
ATOM     22  C   UNL     1      -7.173   0.566   0.594  0.00  0.00    +0.078 A 
ATOM     23  C   UNL     1      -6.949   1.941   0.572  0.00  0.00    +0.020 A 
ATOM     24  C   UNL     1      -8.008   2.828   0.676  0.00  0.00    -0.043 A 
ATOM     25  C   UNL     1      -9.297   2.350   0.800  0.00  0.00    -0.041 A 
ATOM     26  C   UNL     1      -9.531   0.983   0.826  0.00  0.00    +0.050 A 
ATOM     27  C   UNL     1      -8.483   0.085   0.719  0.00  0.00    +0.129 A 
ATOM     28  C   UNL     1     -10.492   3.263   0.901  0.00  0.00    +0.035 C 
ATOM     29  C   UNL     1     -10.058   4.675   1.289  0.00  0.00    +0.005 C 
ATOM     30  C   UNL     1      -8.940   5.117   0.337  0.00  0.00    +0.005 C 
ATOM     31  C   UNL     1      -7.689   4.301   0.653  0.00  0.00    +0.035 C 
BRANCH  27  32
ATOM     32  O   UNL     1      -8.723  -1.251   0.740  0.00  0.00    -0.506 OA
ATOM     33  H   UNL     1      -8.708  -1.639   1.625  0.00  0.00    +0.292 HD
ENDBRANCH  27  32
ENDBRANCH  19  22
ENDBRANCH   1  18
TORSDOF 5
