REMARK  Name = ZINC02263123
REMARK  12 active torsions:
REMARK  status: ('A' for Active; 'I' for Inactive)
REMARK    1  A    between atoms: C_1  and  C_2
REMARK    2  A    between atoms: C_2  and  O_3
REMARK    3  A    between atoms: O_3  and  C_4
REMARK    4  A    between atoms: C_4  and  C_6
REMARK    5  A    between atoms: C_7  and  N_29
REMARK    6  A    between atoms: C_9  and  C_28
REMARK    7  A    between atoms: C_10  and  C_22
REMARK    8  A    between atoms: N_18  and  C_21
REMARK    9  A    between atoms: C_22  and  O_24
REMARK   10  A    between atoms: O_24  and  C_25
REMARK   11  A    between atoms: C_25  and  C_26
REMARK   12  A    between atoms: C_25  and  C_27
REMARK                            x       y       z     vdW  Elec       q    Type
REMARK                         _______ _______ _______ _____ _____    ______ ____
ROOT
ATOM      1  C   UNL     1      -3.030   3.115  -4.542  0.00  0.00    +0.117 C 
ATOM      2  C   UNL     1      -4.372   3.076  -4.326  0.00  0.00    +0.195 C 
ATOM      3  O   UNL     1      -4.886   3.073  -3.085  0.00  0.00    -0.446 OA
ATOM      4  C   UNL     1      -4.110   2.734  -2.045  0.00  0.00    +0.116 C 
ATOM      5  C   UNL     1      -2.771   2.752  -2.116  0.00  0.00    +0.098 C 
ATOM      6  C   UNL     1      -2.075   3.159  -3.382  0.00  0.00    +0.145 C 
ATOM      7  C   UNL     1      -1.479   4.537  -3.236  0.00  0.00    -0.002 A 
ATOM      8  C   UNL     1      -2.024   5.777  -2.989  0.00  0.00    +0.007 A 
ATOM      9  C   UNL     1      -1.205   6.888  -2.907  0.00  0.00    +0.000 A 
ATOM     10  C   UNL     1       0.161   6.750  -3.075  0.00  0.00    +0.002 A 
ATOM     11  C   UNL     1       0.711   5.510  -3.323  0.00  0.00    +0.024 A 
ATOM     12  C   UNL     1      -0.107   4.385  -3.406  0.00  0.00    +0.041 A 
ATOM     13  N   UNL     1       0.204   3.045  -3.643  0.00  0.00    -0.273 N 
ATOM     14  C   UNL     1      -0.889   2.262  -3.645  0.00  0.00    +0.240 C 
ATOM     15  O   UNL     1      -0.918   1.063  -3.824  0.00  0.00    -0.274 OA
ATOM     16  C   UNL     1       1.565   2.549  -3.864  0.00  0.00    +0.138 C 
ATOM     17  C   UNL     1      -4.765   2.320  -0.752  0.00  0.00    +0.087 C 
ENDROOT
BRANCH   2  18
ATOM     18  N   UNL     1      -5.220   3.037  -5.400  0.00  0.00    -0.329 N 
ATOM     19  H   UNL     1      -6.179   3.087  -5.262  0.00  0.00    +0.145 HD
ATOM     20  H   UNL     1      -4.862   2.960  -6.298  0.00  0.00    +0.145 HD
ENDBRANCH   2  18
BRANCH   1  21
ATOM     21  C   UNL     1      -2.535   3.120  -5.855  0.00  0.00    +0.342 C 
ATOM     22  O   UNL     1      -2.152   4.162  -6.359  0.00  0.00    -0.245 OA
BRANCH  21  23
ATOM     23  O   UNL     1      -2.482   1.970  -6.561  0.00  0.00    -0.462 OA
BRANCH  23  25
ATOM     24  C   UNL     1      -1.984   0.657  -8.529  0.00  0.00    +0.048 C 
ATOM     25  C   UNL     1      -1.966   2.049  -7.892  0.00  0.00    +0.229 C 
ENDBRANCH  23  25
ENDBRANCH  21  23
ENDBRANCH   1  21
BRANCH   5  26
ATOM     26  C   UNL     1      -2.005   2.386  -0.982  0.00  0.00    +0.340 C 
ATOM     27  O   UNL     1      -1.530   3.247  -0.266  0.00  0.00    -0.245 OA
BRANCH  26  28
ATOM     28  O   UNL     1      -1.802   1.083  -0.697  0.00  0.00    -0.459 OA
BRANCH  28  29
ATOM     29  C   UNL     1      -1.020   0.787   0.462  0.00  0.00    +0.171 C 
ATOM     30  C   UNL     1      -1.937   0.671   1.681  0.00  0.00    +0.052 C 
ATOM     31  C   UNL     1      -0.280  -0.536   0.253  0.00  0.00    +0.052 C 
ENDBRANCH  28  29
ENDBRANCH  26  28
ENDBRANCH   5  26
TORSDOF 7
