REMARK  Name = ZINC13117913
REMARK  10 active torsions:
REMARK  status: ('A' for Active; 'I' for Inactive)
REMARK    1  A    between atoms: C_1  and  C_2
REMARK    2  A    between atoms: C_2  and  N_3
REMARK    3  A    between atoms: N_3  and  C_4
REMARK    4  A    between atoms: C_5  and  N_20
REMARK    5  A    between atoms: N_6  and  C_13
REMARK    6  A    between atoms: C_13  and  C_14
REMARK    7  A    between atoms: C_21  and  C_23
REMARK    8  A    between atoms: C_23  and  N_24
REMARK    9  A    between atoms: N_24  and  C_25
REMARK   10  A    between atoms: C_30  and  N_31
REMARK                            x       y       z     vdW  Elec       q    Type
REMARK                         _______ _______ _______ _____ _____    ______ ____
ROOT
ATOM      1  N   UNL     1       2.359   3.681   0.046  0.00  0.00    -0.263 N 
ATOM      2  C   UNL     1       2.319   5.023  -0.093  0.00  0.00    +0.237 C 
ATOM      3  O   UNL     1       1.252   5.598  -0.129  0.00  0.00    -0.274 OA
ENDROOT
BRANCH   1   4
ATOM      4  C   UNL     1       1.160   2.937   0.046  0.00  0.00    +0.140 A 
ATOM      5  C   UNL     1       0.749   2.269   1.181  0.00  0.00    +0.128 A 
ATOM      6  N   UNL     1      -0.425   1.551   1.149  0.00  0.00    -0.276 N 
ATOM      7  C   UNL     1      -1.165   1.506   0.027  0.00  0.00    +0.331 A 
ATOM      8  O   UNL     1      -2.201   0.870   0.021  0.00  0.00    -0.246 OA
ATOM      9  N   UNL     1      -0.777   2.146  -1.090  0.00  0.00    -0.273 N 
ATOM     10  H   UNL     1      -1.342   2.090  -1.914  0.00  0.00    +0.173 HD
ATOM     11  C   UNL     1       0.364   2.863  -1.113  0.00  0.00    +0.277 A 
ATOM     12  O   UNL     1       0.704   3.443  -2.130  0.00  0.00    -0.266 OA
BRANCH   5  13
ATOM     13  N   UNL     1       1.502   2.319   2.329  0.00  0.00    -0.343 N 
ATOM     14  H   UNL     1       2.349   2.792   2.333  0.00  0.00    +0.144 HD
ATOM     15  H   UNL     1       1.187   1.883   3.136  0.00  0.00    +0.144 HD
ENDBRANCH   5  13
BRANCH   6  16
ATOM     16  C   UNL     1      -0.874   0.837   2.347  0.00  0.00    +0.163 C 
BRANCH  16  17
ATOM     17  C   UNL     1      -1.744   1.746   3.177  0.00  0.00    -0.028 A 
ATOM     18  C   UNL     1      -1.177   2.544   4.153  0.00  0.00    +0.005 A 
ATOM     19  C   UNL     1      -1.975   3.381   4.911  0.00  0.00    +0.000 A 
ATOM     20  C   UNL     1      -3.341   3.412   4.699  0.00  0.00    +0.000 A 
ATOM     21  C   UNL     1      -3.908   2.610   3.727  0.00  0.00    +0.000 A 
ATOM     22  C   UNL     1      -3.110   1.777   2.965  0.00  0.00    +0.005 A 
ENDBRANCH  16  17
ENDBRANCH   6  16
ENDBRANCH   1   4
BRANCH   1  24
ATOM     23  C   UNL     1       4.247   2.731  -1.183  0.00  0.00    +0.025 C 
ATOM     24  C   UNL     1       3.646   2.998   0.198  0.00  0.00    +0.110 C 
ENDBRANCH   1  24
BRANCH   2  25
ATOM     25  C   UNL     1       3.602   5.807  -0.205  0.00  0.00    +0.198 C 
BRANCH  25  26
ATOM     26  N   UNL     1       3.292   7.232  -0.347  0.00  0.00    -0.334 N 
ATOM     27  H   UNL     1       2.369   7.529  -0.357  0.00  0.00    +0.147 HD
BRANCH  26  28
ATOM     28  C   UNL     1       4.329   8.165  -0.468  0.00  0.00    +0.049 A 
ATOM     29  C   UNL     1       5.650   7.742  -0.449  0.00  0.00    +0.025 A 
ATOM     30  C   UNL     1       6.672   8.665  -0.573  0.00  0.00    +0.002 A 
ATOM     31  C   UNL     1       6.383  10.010  -0.707  0.00  0.00    +0.002 A 
ATOM     32  C   UNL     1       5.069  10.440  -0.723  0.00  0.00    +0.025 A 
ATOM     33  C   UNL     1       4.037   9.521  -0.603  0.00  0.00    +0.051 A 
BRANCH  33  34
ATOM     34  N   UNL     1       2.706   9.955  -0.618  0.00  0.00    -0.328 N 
ATOM     35  C   UNL     1       2.361  10.553  -1.914  0.00  0.00    +0.105 C 
ATOM     36  C   UNL     1       0.867  10.881  -1.945  0.00  0.00    +0.019 C 
ATOM     37  C   UNL     1       0.539  11.855  -0.809  0.00  0.00    +0.003 C 
ATOM     38  C   UNL     1       0.952  11.227   0.525  0.00  0.00    +0.019 C 
ATOM     39  C   UNL     1       2.444  10.889   0.484  0.00  0.00    +0.105 C 
ENDBRANCH  33  34
ENDBRANCH  26  28
ENDBRANCH  25  26
ENDBRANCH   2  25
TORSDOF 9
