REMARK  Name = ZINC07884091
REMARK  9 active torsions:
REMARK  status: ('A' for Active; 'I' for Inactive)
REMARK    1  A    between atoms: C_1  and  C_2
REMARK    2  A    between atoms: C_2  and  O_3
REMARK    3  A    between atoms: O_3  and  C_4
REMARK    4  A    between atoms: C_7  and  N_10
REMARK    5  A    between atoms: C_11  and  C_22
REMARK    6  A    between atoms: C_24  and  O_31
REMARK    7  A    between atoms: C_25  and  O_30
REMARK    8  A    between atoms: C_26  and  O_28
REMARK    9  A    between atoms: O_28  and  C_29
REMARK                            x       y       z     vdW  Elec       q    Type
REMARK                         _______ _______ _______ _____ _____    ______ ____
ROOT
ATOM      1  N   UNL     1       1.140   1.908   0.001  0.00  0.00    -0.244 N 
ATOM      2  C   UNL     1       1.132   3.371   0.036  0.00  0.00    +0.198 C 
ATOM      3  N   UNL     1      -0.122   3.886  -0.526  0.00  0.00    -0.321 N 
ATOM      4  C   UNL     1      -1.318   3.271  -0.173  0.00  0.00    +0.041 A 
ATOM      5  C   UNL     1      -2.516   3.965  -0.154  0.00  0.00    +0.024 A 
ATOM      6  C   UNL     1      -3.681   3.308   0.194  0.00  0.00    +0.002 A 
ATOM      7  C   UNL     1      -3.660   1.962   0.522  0.00  0.00    +0.001 A 
ATOM      8  C   UNL     1      -2.474   1.257   0.511  0.00  0.00    +0.015 A 
ATOM      9  C   UNL     1      -1.291   1.907   0.161  0.00  0.00    +0.058 A 
ATOM     10  C   UNL     1       0.002   1.201   0.151  0.00  0.00    +0.254 C 
ATOM     11  O   UNL     1       0.042  -0.009   0.271  0.00  0.00    -0.270 OA
ATOM     12  H   UNL     1      -0.116   4.643  -1.133  0.00  0.00    +0.148 HD
ENDROOT
BRANCH   1  16
ATOM     13  C   UNL     1       4.745  -0.107  -0.568  0.00  0.00    +0.121 A 
ATOM     14  C   UNL     1       3.986  -0.352   0.567  0.00  0.00    +0.047 A 
ATOM     15  C   UNL     1       2.791   0.315   0.756  0.00  0.00    +0.027 A 
ATOM     16  C   UNL     1       2.351   1.231  -0.190  0.00  0.00    +0.039 A 
ATOM     17  C   UNL     1       3.109   1.472  -1.328  0.00  0.00    +0.027 A 
ATOM     18  C   UNL     1       4.306   0.808  -1.513  0.00  0.00    +0.047 A 
BRANCH  13  19
ATOM     19  O   UNL     1       5.921  -0.764  -0.753  0.00  0.00    -0.492 OA
BRANCH  19  21
ATOM     20  C   UNL     1       7.937  -1.292  -1.977  0.00  0.00    +0.048 C 
ATOM     21  C   UNL     1       6.652  -0.462  -1.944  0.00  0.00    +0.225 C 
ENDBRANCH  19  21
ENDBRANCH  13  19
ENDBRANCH   1  16
BRANCH   2  22
ATOM     22  C   UNL     1       1.267   3.837   1.463  0.00  0.00    -0.002 A 
ATOM     23  C   UNL     1       1.959   3.065   2.378  0.00  0.00    +0.056 A 
ATOM     24  C   UNL     1       2.091   3.493   3.690  0.00  0.00    +0.162 A 
ATOM     25  C   UNL     1       1.516   4.694   4.088  0.00  0.00    +0.201 A 
ATOM     26  C   UNL     1       0.816   5.464   3.167  0.00  0.00    +0.165 A 
ATOM     27  C   UNL     1       0.694   5.032   1.855  0.00  0.00    +0.056 A 
BRANCH  26  28
ATOM     28  O   UNL     1       0.252   6.640   3.552  0.00  0.00    -0.491 OA
ATOM     29  C   UNL     1      -0.452   7.380   2.552  0.00  0.00    +0.277 C 
ENDBRANCH  26  28
BRANCH  25  30
ATOM     30  O   UNL     1       1.638   5.115   5.377  0.00  0.00    -0.501 OA
ATOM     31  H   UNL     1       0.928   4.810   5.959  0.00  0.00    +0.292 HD
ENDBRANCH  25  30
BRANCH  24  32
ATOM     32  O   UNL     1       2.776   2.736   4.587  0.00  0.00    -0.503 OA
ATOM     33  H   UNL     1       2.230   2.091   5.057  0.00  0.00    +0.292 HD
ENDBRANCH  24  32
ENDBRANCH   2  22
TORSDOF 7
