REMARK  Name = ZINC20973469
REMARK  10 active torsions:
REMARK  status: ('A' for Active; 'I' for Inactive)
REMARK    1  A    between atoms: C_1  and  C_2
REMARK    2  A    between atoms: C_2  and  C_4
REMARK    3  A    between atoms: C_2  and  N_14
REMARK    4  A    between atoms: C_15  and  C_17
REMARK    5  A    between atoms: C_17  and  O_18
REMARK    6  A    between atoms: O_18  and  C_19
REMARK    7  A    between atoms: C_19  and  C_21
REMARK    8  A    between atoms: C_21  and  C_22
REMARK    9  A    between atoms: C_22  and  C_24
REMARK   10  A    between atoms: C_22  and  N_31
REMARK                            x       y       z     vdW  Elec       q    Type
REMARK                         _______ _______ _______ _____ _____    ______ ____
ROOT
ATOM      1  O   UNL     1       4.353  -4.853  -4.075  0.00  0.00    -0.455 OA
ENDROOT
BRANCH   1   2
ATOM      2  C   UNL     1       4.769  -6.126  -4.163  0.00  0.00    +0.310 C 
ATOM      3  O   UNL     1       4.162  -7.001  -3.593  0.00  0.00    -0.251 OA
BRANCH   2   4
ATOM      4  C   UNL     1       5.995  -6.463  -4.972  0.00  0.00    +0.147 C 
BRANCH   4   5
ATOM      5  C   UNL     1       6.250  -7.970  -4.907  0.00  0.00    +0.115 C 
BRANCH   5   6
ATOM      6  C   UNL     1       7.401  -8.324  -5.814  0.00  0.00    -0.027 A 
ATOM      7  C   UNL     1       7.699  -7.521  -6.898  0.00  0.00    +0.007 A 
ATOM      8  C   UNL     1       8.758  -7.842  -7.726  0.00  0.00    +0.020 A 
ATOM      9  C   UNL     1       9.513  -8.974  -7.476  0.00  0.00    +0.041 A 
ATOM     10  C   UNL     1       9.211  -9.781  -6.394  0.00  0.00    +0.020 A 
ATOM     11  C   UNL     1       8.155  -9.456  -5.563  0.00  0.00    +0.007 A 
ATOM     12 CL   UNL     1      10.838  -9.382  -8.520  0.00  0.00    -0.084 Cl
ENDBRANCH   5   6
BRANCH   5  13
ATOM     13  N   UNL     1       6.577  -8.352  -3.531  0.00  0.00    -0.292 N 
ATOM     14  C   UNL     1       7.692  -7.873  -2.946  0.00  0.00    +0.298 C 
ATOM     15  O   UNL     1       8.377  -7.052  -3.523  0.00  0.00    -0.253 OA
ATOM     16  N   UNL     1       8.048  -8.305  -1.720  0.00  0.00    -0.313 N 
ATOM     17  H   UNL     1       5.912  -9.030  -2.976  0.00  0.00    +0.151 HD
ATOM     18  H   UNL     1       8.958  -7.914  -1.241  0.00  0.00    +0.146 HD
ATOM     19  H   UNL     1       7.428  -9.048  -1.197  0.00  0.00    +0.146 HD
ENDBRANCH   5  13
ENDBRANCH   4   5
ENDBRANCH   2   4
ENDBRANCH   1   2
BRANCH   1  20
ATOM     20  C   UNL     1       3.164  -4.602  -3.279  0.00  0.00    +0.327 C 
BRANCH  20  22
ATOM     21  N   UNL     1       1.783  -2.659  -2.620  0.00  0.00    -0.309 N 
ATOM     22  C   UNL     1       2.851  -3.128  -3.296  0.00  0.00    +0.251 C 
ATOM     23  O   UNL     1       3.558  -2.365  -3.917  0.00  0.00    -0.272 OA
ATOM     24  H   UNL     1       1.141  -3.351  -2.056  0.00  0.00    +0.149 HD
BRANCH  21  26
ATOM     25  C   UNL     1       0.651  -0.895  -3.880  0.00  0.00    +0.028 C 
ATOM     26  C   UNL     1       1.478  -1.226  -2.636  0.00  0.00    +0.076 C 
BRANCH  26  27
ATOM     27  C   UNL     1       0.681  -0.860  -1.382  0.00  0.00    -0.010 C 
ATOM     28  C   UNL     1      -0.623  -1.659  -1.355  0.00  0.00    +0.012 C 
ATOM     29  C   UNL     1      -1.419  -1.292  -0.101  0.00  0.00    -0.010 C 
ATOM     30  C   UNL     1      -1.738   0.204  -0.119  0.00  0.00    +0.007 C 
ATOM     31  C   UNL     1      -0.434   1.003  -0.146  0.00  0.00    -0.010 C 
ATOM     32  C   UNL     1       0.363   0.637  -1.399  0.00  0.00    +0.012 C 
ATOM     33  C   UNL     1       0.393   0.672   1.099  0.00  0.00    +0.007 C 
ATOM     34  C   UNL     1       0.712  -0.824   1.116  0.00  0.00    -0.010 C 
ATOM     35  C   UNL     1      -0.593  -1.623   1.143  0.00  0.00    +0.007 C 
ATOM     36  C   UNL     1       1.508  -1.191  -0.138  0.00  0.00    +0.012 C 
ENDBRANCH  26  27
ENDBRANCH  21  26
ENDBRANCH  20  22
ENDBRANCH   1  20
TORSDOF 9
