REMARK  Name = ZINC48797797
REMARK  6 active torsions:
REMARK  status: ('A' for Active; 'I' for Inactive)
REMARK    1  A    between atoms: C_3  and  C_8
REMARK    2  A    between atoms: C_8  and  O_9
REMARK    3  A    between atoms: O_9  and  C_10
REMARK    4  A    between atoms: C_11  and  C_17
REMARK    5  A    between atoms: C_17  and  C_18
REMARK    6  A    between atoms: C_18  and  N_19
REMARK                            x       y       z     vdW  Elec       q    Type
REMARK                         _______ _______ _______ _____ _____    ______ ____
ROOT
ATOM      1  C   UNL     1       5.197   3.203   1.396  0.00  0.00    +0.138 A 
ATOM      2  C   UNL     1       6.450   2.620   1.514  0.00  0.00    -0.006 A 
ATOM      3  C   UNL     1       7.554   3.407   1.780  0.00  0.00    +0.007 A 
ATOM      4  C   UNL     1       7.411   4.775   1.927  0.00  0.00    +0.002 A 
ATOM      5  C   UNL     1       6.164   5.358   1.810  0.00  0.00    +0.019 A 
ATOM      6  C   UNL     1       5.056   4.576   1.538  0.00  0.00    +0.060 A 
ATOM      7 BR   UNL     1       3.351   5.376   1.370  0.00  0.00    -0.047 Br
ENDROOT
BRANCH   1   8
ATOM      8  O   UNL     1       4.109   2.431   1.135  0.00  0.00    -0.486 OA
BRANCH   8   9
ATOM      9  C   UNL     1       3.368   1.953   2.259  0.00  0.00    +0.264 C 
BRANCH   9  12
ATOM     10  C   UNL     1       1.082  -0.816   1.092  0.00  0.00    +0.001 A 
ATOM     11  C   UNL     1       2.205  -0.141   1.533  0.00  0.00    +0.007 A 
ATOM     12  C   UNL     1       2.143   1.218   1.778  0.00  0.00    -0.009 A 
ATOM     13  C   UNL     1       0.959   1.903   1.581  0.00  0.00    +0.022 A 
ATOM     14  C   UNL     1      -0.165   1.229   1.139  0.00  0.00    +0.018 A 
ATOM     15  C   UNL     1      -0.103  -0.132   0.895  0.00  0.00    +0.015 A 
ATOM     16 BR   UNL     1      -1.786   2.165   0.871  0.00  0.00    -0.050 Br
ENDBRANCH   9  12
ENDBRANCH   8   9
ENDBRANCH   1   8
BRANCH   2  17
ATOM     17  C   UNL     1       6.607   1.130   1.354  0.00  0.00    +0.019 C 
BRANCH  17  18
ATOM     18  C   UNL     1       6.760   0.790  -0.130  0.00  0.00    -0.082 C 
BRANCH  18  19
ATOM     19  N   UNL     1       7.026  -0.647  -0.278  0.00  0.00    +0.378 N 
ATOM     20  H   UNL     1       7.877  -0.884   0.211  0.00  0.00    -0.090 HD
ATOM     21  H   UNL     1       6.258  -1.173   0.110  0.00  0.00    -0.090 HD
ATOM     22  H   UNL     1       7.127  -0.871  -1.256  0.00  0.00    -0.090 HD
ENDBRANCH  18  19
ENDBRANCH  17  18
ENDBRANCH   2  17
TORSDOF 6
