REMARK  Name = ZINC40852736
REMARK  8 active torsions:
REMARK  status: ('A' for Active; 'I' for Inactive)
REMARK    1  A    between atoms: C_1  and  C_2
REMARK    2  A    between atoms: C_3  and  C_22
REMARK    3  A    between atoms: C_5  and  N_11
REMARK    4  A    between atoms: C_6  and  C_7
REMARK    5  A    between atoms: C_7  and  O_9
REMARK    6  A    between atoms: O_9  and  C_10
REMARK    7  A    between atoms: C_12  and  C_14
REMARK    8  A    between atoms: C_17  and  O_21
REMARK                            x       y       z     vdW  Elec       q    Type
REMARK                         _______ _______ _______ _____ _____    ______ ____
ROOT
ATOM      1  N   UNL     1       0.055  -3.118   2.081  0.00  0.00    -0.281 N 
ATOM      2  C   UNL     1       0.072  -4.427   1.760  0.00  0.00    +0.204 C 
ATOM      3  O   UNL     1       0.072  -4.765   0.595  0.00  0.00    -0.277 OA
ATOM      4  H   UNL     1       0.055  -2.848   3.013  0.00  0.00    +0.155 HD
ENDROOT
BRANCH   1   9
ATOM      5  C   UNL     1      -0.018   1.503   0.010  0.00  0.00    +0.045 C 
ATOM      6  C   UNL     1       0.002  -0.004   0.002  0.00  0.00    -0.025 A 
ATOM      7  C   UNL     1       0.007  -0.712  -1.142  0.00  0.00    -0.008 A 
ATOM      8  S   UNL     1       0.033  -2.400  -0.580  0.00  0.00    -0.078 S 
ATOM      9  C   UNL     1       0.037  -2.159   1.081  0.00  0.00    +0.086 A 
ATOM     10  C   UNL     1       0.024  -0.778   1.223  0.00  0.00    +0.091 A 
ATOM     11  C   UNL     1      -0.007  -0.199  -2.559  0.00  0.00    +0.052 C 
BRANCH  10  12
ATOM     12  C   UNL     1       0.028  -0.139   2.540  0.00  0.00    +0.342 C 
ATOM     13  O   UNL     1      -1.024   0.112   3.097  0.00  0.00    -0.245 OA
BRANCH  12  14
ATOM     14  O   UNL     1       1.198   0.171   3.136  0.00  0.00    -0.464 OA
ATOM     15  C   UNL     1       1.127   0.793   4.420  0.00  0.00    +0.280 C 
ENDBRANCH  12  14
ENDBRANCH  10  12
ENDBRANCH   1   9
BRANCH   2  16
ATOM     16  C   UNL     1       0.092  -5.470   2.847  0.00  0.00    +0.019 C 
ATOM     17  C   UNL     1       1.527  -5.637   3.389  0.00  0.00    +0.023 C 
ATOM     18  C   UNL     1       1.634  -7.166   3.631  0.00  0.00    +0.097 C 
ATOM     19  C   UNL     1       0.796  -7.728   2.455  0.00  0.00    -0.050 C 
ATOM     20  N   UNL     1      -0.327  -6.774   2.300  0.00  0.00    +0.388 N 
ATOM     21  H   UNL     1      -1.133  -7.110   2.804  0.00  0.00    -0.085 HD
ATOM     22  H   UNL     1      -0.555  -6.674   1.322  0.00  0.00    -0.085 HD
BRANCH  18  23
ATOM     23  O   UNL     1       2.991  -7.604   3.549  0.00  0.00    -0.394 OA
ATOM     24  H   UNL     1       3.108  -8.553   3.693  0.00  0.00    +0.210 HD
ENDBRANCH  18  23
ENDBRANCH   2  16
TORSDOF 5
