REMARK  Name = ZINC33006414
REMARK  7 active torsions:
REMARK  status: ('A' for Active; 'I' for Inactive)
REMARK    1  A    between atoms: C_1  and  N_2
REMARK    2  A    between atoms: C_17  and  C_20
REMARK    3  A    between atoms: N_22  and  C_23
REMARK    4  A    between atoms: C_23  and  C_24
REMARK    5  A    between atoms: C_24  and  S_25
REMARK    6  A    between atoms: S_25  and  C_26
REMARK    7  A    between atoms: C_26  and  C_27
REMARK                            x       y       z     vdW  Elec       q    Type
REMARK                         _______ _______ _______ _____ _____    ______ ____
ROOT
ATOM      1  C   UNL     1       1.177   0.810 -15.046  0.00  0.00    +0.154 C 
ATOM      2  N   UNL     1       0.506   1.132 -13.784  0.00  0.00    -0.292 N 
ATOM      3  C   UNL     1      -0.622   1.929 -13.777  0.00  0.00    +0.162 A 
ATOM      4  C   UNL     1      -1.258   2.231 -12.559  0.00  0.00    +0.109 A 
ATOM      5  C   UNL     1      -2.403   3.043 -12.575  0.00  0.00    +0.033 A 
ATOM      6  C   UNL     1      -2.856   3.510 -13.793  0.00  0.00    +0.022 A 
ATOM      7  C   UNL     1      -2.176   3.169 -14.951  0.00  0.00    +0.113 A 
ATOM      8  N   UNL     1      -1.103   2.407 -14.917  0.00  0.00    -0.236 NA
ATOM      9  N   UNL     1      -0.785   1.750 -11.392  0.00  0.00    -0.224 NA
ATOM     10  C   UNL     1       0.285   0.996 -11.360  0.00  0.00    +0.188 A 
ATOM     11  C   UNL     1       0.982   0.655 -12.615  0.00  0.00    +0.293 A 
ATOM     12  O   UNL     1       1.974  -0.050 -12.596  0.00  0.00    -0.264 OA
ATOM     13  N   UNL     1       0.758   0.516 -10.152  0.00  0.00    -0.310 N 
ATOM     14  C   UNL     1       0.748  -0.952 -10.129  0.00  0.00    +0.107 C 
ATOM     15  C   UNL     1       1.411  -1.448  -8.842  0.00  0.00    +0.020 C 
ATOM     16  C   UNL     1       0.649  -0.895  -7.635  0.00  0.00    +0.016 C 
ATOM     17  C   UNL     1       0.632   0.634  -7.709  0.00  0.00    +0.092 C 
ATOM     18  C   UNL     1      -0.008   1.070  -9.029  0.00  0.00    +0.119 C 
ENDROOT
BRANCH  17  19
ATOM     19  C   UNL     1      -0.168   1.185  -6.556  0.00  0.00    +0.218 C 
ATOM     20  O   UNL     1      -1.152   1.861  -6.769  0.00  0.00    -0.275 OA
ATOM     21  N   UNL     1       0.211   0.926  -5.289  0.00  0.00    -0.314 N 
ATOM     22  H   UNL     1       1.103   0.313  -5.096  0.00  0.00    +0.149 HD
BRANCH  21  23
ATOM     23  C   UNL     1      -0.567   1.461  -4.168  0.00  0.00    +0.115 C 
BRANCH  23  24
ATOM     24  C   UNL     1       0.072   1.024  -2.849  0.00  0.00    +0.088 C 
BRANCH  24  25
ATOM     25  S   UNL     1      -0.890   1.687  -1.462  0.00  0.00    -0.151 S 
BRANCH  25  26
ATOM     26  C   UNL     1      -0.013   1.086   0.008  0.00  0.00    +0.143 C 
BRANCH  26  27
ATOM     27  C   UNL     1      -0.718   1.572   1.248  0.00  0.00    +0.115 A 
ATOM     28  C   UNL     1      -1.704   0.926   1.896  0.00  0.00    +0.045 A 
ATOM     29  C   UNL     1      -2.070   1.736   2.996  0.00  0.00    +0.041 A 
ATOM     30  C   UNL     1      -1.286   2.828   2.954  0.00  0.00    +0.195 A 
ATOM     31  O   UNL     1      -0.465   2.720   1.896  0.00  0.00    -0.467 OA
ENDBRANCH  26  27
ENDBRANCH  25  26
ENDBRANCH  24  25
ENDBRANCH  23  24
ENDBRANCH  21  23
ENDBRANCH  17  19
TORSDOF 6
