REMARK  Name = ZINC00422906
REMARK  3 active torsions:
REMARK  status: ('A' for Active; 'I' for Inactive)
REMARK    1  A    between atoms: C_1  and  C_2
REMARK    2  A    between atoms: C_8  and  N_10
REMARK    3  A    between atoms: C_11  and  C_13
REMARK                            x       y       z     vdW  Elec       q    Type
REMARK                         _______ _______ _______ _____ _____    ______ ____
ROOT
ATOM      1  C   UNL     1      -2.176   4.379   0.043  0.00  0.00    +0.080 A 
ATOM      2  C   UNL     1      -2.024   5.760   0.030  0.00  0.00    +0.018 A 
ATOM      3  C   UNL     1      -0.740   6.309   0.019  0.00  0.00    +0.019 A 
ATOM      4  C   UNL     1       0.355   5.516   0.020  0.00  0.00    +0.096 A 
ATOM      5  N   UNL     1       0.257   4.158   0.032  0.00  0.00    -0.267 N 
ATOM      6  C   UNL     1      -0.969   3.541   0.044  0.00  0.00    +0.153 A 
ATOM      7  N   UNL     1      -1.093   2.231   0.051  0.00  0.00    -0.228 NA
ATOM      8  C   UNL     1      -0.016   1.401   0.057  0.00  0.00    +0.086 A 
ATOM      9  C   UNL     1       0.003  -0.003   0.069  0.00  0.00    +0.036 A 
ATOM     10  C   UNL     1       1.178  -0.667   0.068  0.00  0.00    +0.048 A 
ATOM     11  S   UNL     1       2.379   0.654   0.051  0.00  0.00    -0.090 S 
ATOM     12  C   UNL     1       1.249   2.022   0.045  0.00  0.00    +0.102 A 
ATOM     13  C   UNL     1       1.381   3.404   0.033  0.00  0.00    +0.273 A 
ATOM     14  O   UNL     1       2.483   3.926   0.024  0.00  0.00    -0.266 OA
ENDROOT
BRANCH   1  16
ATOM     15  N   UNL     1      -3.648   2.432  -0.054  0.00  0.00    -0.308 N 
ATOM     16  C   UNL     1      -3.515   3.769   0.054  0.00  0.00    +0.248 C 
ATOM     17  O   UNL     1      -4.503   4.472   0.161  0.00  0.00    -0.270 OA
ATOM     18  H   UNL     1      -2.861   1.866  -0.064  0.00  0.00    +0.149 HD
BRANCH  15  25
ATOM     19  C   UNL     1      -4.306   0.686  -2.269  0.00  0.00    +0.009 C 
ATOM     20  C   UNL     1      -4.882   0.483  -0.866  0.00  0.00    +0.006 C 
ATOM     21  C   UNL     1      -3.965  -0.447  -0.068  0.00  0.00    +0.005 C 
ATOM     22  C   UNL     1      -4.541  -0.650   1.335  0.00  0.00    +0.000 C 
ATOM     23  C   UNL     1      -4.641   0.701   2.046  0.00  0.00    +0.002 C 
ATOM     24  C   UNL     1      -5.557   1.631   1.248  0.00  0.00    +0.022 C 
ATOM     25  C   UNL     1      -4.982   1.834  -0.155  0.00  0.00    +0.076 C 
ENDBRANCH  15  25
ENDBRANCH   1  16
TORSDOF 2
