REMARK  Name = ZINC03450477
REMARK  10 active torsions:
REMARK  status: ('A' for Active; 'I' for Inactive)
REMARK    1  A    between atoms: C_1  and  C_2
REMARK    2  A    between atoms: C_5  and  C_25
REMARK    3  A    between atoms: C_6  and  N_8
REMARK    4  A    between atoms: C_9  and  C_11
REMARK    5  A    between atoms: C_11  and  O_12
REMARK    6  A    between atoms: O_12  and  C_13
REMARK    7  A    between atoms: C_13  and  C_15
REMARK    8  A    between atoms: C_18  and  N_23
REMARK    9  A    between atoms: C_20  and  O_21
REMARK   10  A    between atoms: O_21  and  C_22
REMARK                            x       y       z     vdW  Elec       q    Type
REMARK                         _______ _______ _______ _____ _____    ______ ____
ROOT
ATOM      1  O   UNL     1      -2.420   0.987   0.035  0.00  0.00    -0.452 OA
ENDROOT
BRANCH   1   2
ATOM      2  C   UNL     1      -3.673   1.485   0.054  0.00  0.00    +0.343 C 
ATOM      3  O   UNL     1      -3.848   2.688   0.069  0.00  0.00    -0.245 OA
BRANCH   2   4
ATOM      4  C   UNL     1      -4.827   0.574   0.057  0.00  0.00    +0.102 A 
ATOM      5  C   UNL     1      -4.628  -0.812   0.040  0.00  0.00    +0.040 A 
ATOM      6  C   UNL     1      -5.700  -1.657   0.042  0.00  0.00    +0.063 A 
ATOM      7  C   UNL     1      -6.998  -1.148   0.062  0.00  0.00    +0.047 A 
ATOM      8  C   UNL     1      -7.212   0.224   0.079  0.00  0.00    +0.070 A 
ATOM      9  C   UNL     1      -6.132   1.090   0.082  0.00  0.00    +0.136 A 
ATOM     10 CL   UNL     1      -5.445  -3.374   0.021  0.00  0.00    -0.082 Cl
BRANCH   7  11
ATOM     11  N   UNL     1      -8.084  -2.018   0.064  0.00  0.00    -0.357 N 
ATOM     12  H   UNL     1      -7.937  -2.977   0.052  0.00  0.00    +0.142 HD
ATOM     13  H   UNL     1      -8.987  -1.666   0.078  0.00  0.00    +0.142 HD
ENDBRANCH   7  11
BRANCH   9  14
ATOM     14  O   UNL     1      -6.335   2.432   0.105  0.00  0.00    -0.494 OA
ATOM     15  C   UNL     1      -7.690   2.883   0.130  0.00  0.00    +0.277 C 
ENDBRANCH   9  14
ENDBRANCH   2   4
ENDBRANCH   1   2
BRANCH   1  16
ATOM     16  C   UNL     1      -1.329   1.945   0.034  0.00  0.00    +0.328 C 
BRANCH  16  18
ATOM     17  N   UNL     1       1.143   1.898   0.001  0.00  0.00    -0.282 N 
ATOM     18  C   UNL     1      -0.015   1.209   0.012  0.00  0.00    +0.255 C 
ATOM     19  O   UNL     1       0.002  -0.004  -0.001  0.00  0.00    -0.272 OA
ATOM     20  H   UNL     1       1.131   2.866  -0.069  0.00  0.00    +0.155 HD
BRANCH  17  26
ATOM     21  C   UNL     1       3.686  -2.064   1.419  0.00  0.00    +0.044 C 
ATOM     22  C   UNL     1       3.624  -0.703   0.774  0.00  0.00    -0.049 A 
ATOM     23  C   UNL     1       4.776  -0.125   0.272  0.00  0.00    +0.004 A 
ATOM     24  C   UNL     1       4.723   1.123  -0.321  0.00  0.00    +0.005 A 
ATOM     25  C   UNL     1       3.521   1.797  -0.412  0.00  0.00    -0.029 A 
ATOM     26  C   UNL     1       2.363   1.219   0.092  0.00  0.00    +0.037 A 
ATOM     27  C   UNL     1       2.420  -0.033   0.691  0.00  0.00    +0.027 A 
ATOM     28  C   UNL     1       3.465   3.157  -1.058  0.00  0.00    +0.045 C 
ENDBRANCH  17  26
ENDBRANCH  16  18
ENDBRANCH   1  16
TORSDOF 7
