REMARK  Name = ZINC39373570
REMARK  3 active torsions:
REMARK  status: ('A' for Active; 'I' for Inactive)
REMARK    1  A    between atoms: C_6  and  N_7
REMARK    2  A    between atoms: C_8  and  C_14
REMARK    3  A    between atoms: C_14  and  C_15
REMARK                            x       y       z     vdW  Elec       q    Type
REMARK                         _______ _______ _______ _____ _____    ______ ____
ROOT
ATOM      1  N   UNL     1      -1.200  -0.721   0.010  0.00  0.00    -0.264 N 
ATOM      2  C   UNL     1      -1.350  -2.182  -0.093  0.00  0.00    +0.170 C 
ATOM      3  N   UNL     1      -2.808  -2.403  -0.033  0.00  0.00    -0.220 NA
ATOM      4  N   UNL     1      -3.375  -1.166   0.091  0.00  0.00    -0.260 N 
ATOM      5  C   UNL     1      -2.439  -0.209   0.120  0.00  0.00    +0.152 C 
ATOM      6  S   UNL     1      -2.777   1.462   0.273  0.00  0.00    -0.017 S 
ATOM      7  H   UNL     1      -3.138  -2.869  -0.865  0.00  0.00    +0.146 HD
ATOM      8  H   UNL     1      -4.329  -1.003   0.153  0.00  0.00    +0.168 HD
ENDROOT
BRANCH   1  14
ATOM      9  C   UNL     1       0.418   0.668   1.144  0.00  0.00    +0.025 A 
ATOM     10  C   UNL     1       1.605   1.375   1.133  0.00  0.00    +0.022 A 
ATOM     11  C   UNL     1       2.378   1.414  -0.014  0.00  0.00    +0.041 A 
ATOM     12  C   UNL     1       1.966   0.746  -1.153  0.00  0.00    +0.022 A 
ATOM     13  C   UNL     1       0.780   0.037  -1.148  0.00  0.00    +0.025 A 
ATOM     14  C   UNL     1       0.002  -0.004   0.002  0.00  0.00    +0.037 A 
ATOM     15 CL   UNL     1       3.869   2.304  -0.024  0.00  0.00    -0.084 Cl
ENDBRANCH   1  14
BRANCH   2  16
ATOM     16  C   UNL     1      -0.652  -2.876   1.078  0.00  0.00    +0.093 C 
BRANCH  16  17
ATOM     17  C   UNL     1      -0.713  -4.369   0.886  0.00  0.00    +0.029 A 
ATOM     18  N   UNL     1      -1.816  -5.070   1.293  0.00  0.00    -0.311 N 
ATOM     19  C   UNL     1      -1.881  -6.403   1.125  0.00  0.00    +0.327 A 
ATOM     20  O   UNL     1      -2.870  -7.006   1.494  0.00  0.00    -0.247 OA
ATOM     21  N   UNL     1      -0.866  -7.079   0.555  0.00  0.00    -0.275 N 
ATOM     22  C   UNL     1       0.238  -6.425   0.141  0.00  0.00    +0.254 A 
ATOM     23  O   UNL     1       1.156  -7.036  -0.376  0.00  0.00    -0.268 OA
ATOM     24  C   UNL     1       0.317  -5.021   0.307  0.00  0.00    +0.091 A 
ATOM     25  H   UNL     1      -0.929  -8.040   0.442  0.00  0.00    +0.173 HD
ATOM     26  H   UNL     1      -2.558  -4.601   1.706  0.00  0.00    +0.170 HD
ENDBRANCH  16  17
ENDBRANCH   2  16
TORSDOF 3
