REMARK  Name = ZINC21459393
REMARK  8 active torsions:
REMARK  status: ('A' for Active; 'I' for Inactive)
REMARK    1  A    between atoms: C_1  and  C_2
REMARK    2  A    between atoms: C_2  and  N_3
REMARK    3  A    between atoms: C_13  and  S_14
REMARK    4  A    between atoms: S_14  and  C_15
REMARK    5  A    between atoms: C_15  and  C_16
REMARK    6  A    between atoms: N_18  and  N_19
REMARK    7  A    between atoms: C_22  and  C_26
REMARK    8  A    between atoms: C_22  and  C_27
REMARK                            x       y       z     vdW  Elec       q    Type
REMARK                         _______ _______ _______ _____ _____    ______ ____
ROOT
ATOM      1  C   UNL     1      -1.577   2.732   1.152  0.00  0.00    +0.240 C 
ATOM      2  O   UNL     1      -0.916   2.619   2.163  0.00  0.00    -0.273 OA
ATOM      3  N   UNL     1      -1.186   2.115   0.019  0.00  0.00    -0.223 N 
ATOM      4  H   UNL     1      -1.785   2.217  -0.897  0.00  0.00    +0.174 HD
ENDROOT
BRANCH   3   5
ATOM      5  N   UNL     1      -0.016   1.343   0.009  0.00  0.00    -0.137 N 
ATOM      6  C   UNL     1       0.002  -0.004   0.002  0.00  0.00    +0.267 C 
ATOM      7  O   UNL     1      -0.954  -0.749   0.008  0.00  0.00    -0.271 OA
ATOM      8  C   UNL     1       1.467  -0.394  -0.014  0.00  0.00    +0.137 C 
ATOM      9  N   UNL     1       2.170   0.901  -0.014  0.00  0.00    -0.280 N 
ATOM     10  C   UNL     1       1.220   1.854   0.000  0.00  0.00    +0.327 C 
ATOM     11  O   UNL     1       1.460   3.045   0.004  0.00  0.00    -0.251 OA
ATOM     12  C   UNL     1       1.799  -1.187  -1.280  0.00  0.00    +0.047 C 
ATOM     13  H   UNL     1       3.269   0.929  -0.024  0.00  0.00    +0.152 HD
BRANCH   8  14
ATOM     14  C   UNL     1       1.818  -1.188   1.218  0.00  0.00    -0.015 A 
ATOM     15  C   UNL     1       0.860  -1.975   1.829  0.00  0.00    +0.006 A 
ATOM     16  C   UNL     1       1.183  -2.707   2.956  0.00  0.00    +0.000 A 
ATOM     17  C   UNL     1       2.461  -2.644   3.478  0.00  0.00    +0.000 A 
ATOM     18  C   UNL     1       3.418  -1.853   2.870  0.00  0.00    +0.000 A 
ATOM     19  C   UNL     1       3.096  -1.125   1.740  0.00  0.00    +0.006 A 
ENDBRANCH   8  14
ENDBRANCH   3   5
BRANCH   1  20
ATOM     20  C   UNL     1      -2.835   3.561   1.163  0.00  0.00    +0.174 C 
BRANCH  20  21
ATOM     21  S   UNL     1      -3.087   4.253   2.816  0.00  0.00    -0.078 S 
BRANCH  21  32
ATOM     22  N   UNL     1      -5.126   5.833   3.596  0.00  0.00    -0.288 N 
ATOM     23  C   UNL     1      -6.269   6.539   3.434  0.00  0.00    +0.262 A 
ATOM     24  O   UNL     1      -6.765   7.159   4.357  0.00  0.00    -0.267 OA
ATOM     25  C   UNL     1      -6.892   6.525   2.103  0.00  0.00    +0.065 A 
ATOM     26  C   UNL     1      -8.073   7.216   1.836  0.00  0.00    +0.015 A 
ATOM     27  C   UNL     1      -8.611   7.170   0.579  0.00  0.00    +0.001 A 
ATOM     28  C   UNL     1      -7.993   6.443  -0.431  0.00  0.00    +0.002 A 
ATOM     29  C   UNL     1      -6.835   5.756  -0.196  0.00  0.00    +0.028 A 
ATOM     30  C   UNL     1      -6.261   5.784   1.079  0.00  0.00    +0.079 A 
ATOM     31  N   UNL     1      -5.119   5.122   1.354  0.00  0.00    -0.223 NA
ATOM     32  C   UNL     1      -4.581   5.149   2.548  0.00  0.00    +0.173 A 
BRANCH  22  34
ATOM     33  C   UNL     1      -3.471   6.967   4.995  0.00  0.00    +0.027 C 
ATOM     34  C   UNL     1      -4.466   5.809   4.904  0.00  0.00    +0.124 C 
ENDBRANCH  22  34
ENDBRANCH  21  32
ENDBRANCH  20  21
ENDBRANCH   1  20
TORSDOF 6
