REMARK  Name = ZINC40377271
REMARK  7 active torsions:
REMARK  status: ('A' for Active; 'I' for Inactive)
REMARK    1  A    between atoms: C_1  and  C_2
REMARK    2  A    between atoms: C_2  and  C_3
REMARK    3  A    between atoms: C_6  and  C_9
REMARK    4  A    between atoms: C_6  and  N_13
REMARK    5  A    between atoms: N_10  and  O_11
REMARK    6  A    between atoms: N_13  and  S_14
REMARK    7  A    between atoms: S_14  and  C_17
REMARK                            x       y       z     vdW  Elec       q    Type
REMARK                         _______ _______ _______ _____ _____    ______ ____
ROOT
ATOM      1  C   UNL     1       1.048   0.318  -0.699  0.00  0.00    -0.011 C 
ATOM      2  C   UNL     1       2.516   0.543  -1.069  0.00  0.00    +0.006 C 
ATOM      3  C   UNL     1       2.866  -0.298  -2.298  0.00  0.00    +0.032 C 
ATOM      4  C   UNL     1       2.640  -1.779  -1.985  0.00  0.00    +0.098 C 
ATOM      5  C   UNL     1       1.172  -2.003  -1.615  0.00  0.00    +0.032 C 
ATOM      6  C   UNL     1       0.822  -1.162  -0.386  0.00  0.00    +0.006 C 
ENDROOT
BRANCH   4   7
ATOM      7  C   UNL     1       2.985  -2.607  -3.196  0.00  0.00    +0.153 C 
ATOM      8  N   UNL     1       3.441  -2.035  -4.261  0.00  0.00    -0.075 NA
ATOM      9  N   UNL     1       2.814  -3.973  -3.167  0.00  0.00    -0.342 N 
ATOM     10  H   UNL     1       2.402  -4.394  -2.396  0.00  0.00    +0.144 HD
ATOM     11  H   UNL     1       3.107  -4.514  -3.917  0.00  0.00    +0.144 HD
BRANCH   8  12
ATOM     12  O   UNL     1       3.765  -2.813  -5.398  0.00  0.00    -0.408 OA
ATOM     13  H   UNL     1       4.098  -2.298  -6.146  0.00  0.00    +0.328 HD
ENDBRANCH   8  12
ENDBRANCH   4   7
BRANCH   1  15
ATOM     14  C   UNL     1       0.805   2.645   0.179  0.00  0.00    +0.004 C 
ATOM     15  C   UNL     1       0.698   1.159   0.530  0.00  0.00    -0.000 C 
ENDBRANCH   1  15
BRANCH   4  16
ATOM     16  N   UNL     1       3.493  -2.176  -0.862  0.00  0.00    -0.181 NA
ATOM     17  H   UNL     1       3.120  -2.237   0.032  0.00  0.00    +0.149 HD
BRANCH  16  18
ATOM     18  S   UNL     1       5.092  -2.522  -1.118  0.00  0.00    +0.027 S 
ATOM     19  O   UNL     1       5.613  -2.806   0.173  0.00  0.00    -0.158 OA
ATOM     20  O   UNL     1       5.089  -3.517  -2.133  0.00  0.00    -0.158 OA
ATOM     21  C   UNL     1       5.805  -0.981  -1.756  0.00  0.00    +0.214 C 
ENDBRANCH  16  18
ENDBRANCH   4  16
TORSDOF 5
