REMARK  Name = ZINC44792340
REMARK  10 active torsions:
REMARK  status: ('A' for Active; 'I' for Inactive)
REMARK    1  A    between atoms: C_1  and  C_2
REMARK    2  A    between atoms: C_2  and  C_4
REMARK    3  A    between atoms: C_2  and  N_8
REMARK    4  A    between atoms: C_4  and  C_5
REMARK    5  A    between atoms: C_4  and  C_6
REMARK    6  A    between atoms: C_4  and  C_7
REMARK    7  A    between atoms: N_8  and  C_9
REMARK    8  A    between atoms: C_10  and  C_12
REMARK    9  A    between atoms: C_12  and  C_19
REMARK   10  A    between atoms: N_20  and  O_21
REMARK                            x       y       z     vdW  Elec       q    Type
REMARK                         _______ _______ _______ _____ _____    ______ ____
ROOT
ATOM      1  C   UNL     1       0.502  -2.393   2.705  0.00  0.00    +0.105 C 
ATOM      2  C   UNL     1       0.018  -1.363   3.689  0.00  0.00    +0.024 C 
ATOM      3  C   UNL     1       0.122   0.073   3.139  0.00  0.00    +0.001 C 
ATOM      4  C   UNL     1       1.434   0.325   2.373  0.00  0.00    +0.000 C 
ATOM      5  C   UNL     1       2.627  -0.286   3.057  0.00  0.00    +0.000 C 
ATOM      6  C   UNL     1       2.877  -1.683   2.451  0.00  0.00    +0.001 C 
ATOM      7  C   UNL     1       1.986  -2.693   3.001  0.00  0.00    +0.024 C 
ENDROOT
BRANCH   1   8
ATOM      8  C   UNL     1      -0.308  -3.655   2.848  0.00  0.00    +0.147 C 
ATOM      9  N   UNL     1       0.250  -4.736   3.282  0.00  0.00    -0.076 NA
ATOM     10  N   UNL     1      -1.645  -3.657   2.515  0.00  0.00    -0.343 N 
ATOM     11  H   UNL     1      -2.047  -2.868   2.120  0.00  0.00    +0.144 HD
ATOM     12  H   UNL     1      -2.183  -4.448   2.675  0.00  0.00    +0.144 HD
BRANCH   9  13
ATOM     13  O   UNL     1      -0.511  -5.922   3.416  0.00  0.00    -0.408 OA
ATOM     14  H   UNL     1      -0.007  -6.678   3.748  0.00  0.00    +0.328 HD
ENDBRANCH   9  13
ENDBRANCH   1   8
BRANCH   1  17
ATOM     15  N   UNL     1       1.118  -2.368   0.310  0.00  0.00    -0.300 N 
ATOM     16  C   UNL     1       1.983  -3.523   0.566  0.00  0.00    +0.132 C 
ATOM     17  C   UNL     1       0.364  -1.858   1.303  0.00  0.00    +0.229 C 
ATOM     18  O   UNL     1      -0.427  -0.969   1.069  0.00  0.00    -0.275 OA
BRANCH  15  20
ATOM     19  C   UNL     1       0.734  -2.845  -2.058  0.00  0.00    +0.028 C 
ATOM     20  C   UNL     1       1.074  -1.768  -1.026  0.00  0.00    +0.078 C 
BRANCH  20  21
ATOM     21  C   UNL     1       2.438  -1.158  -1.356  0.00  0.00    -0.019 C 
ATOM     22  C   UNL     1       2.442  -0.672  -2.807  0.00  0.00    +0.012 C 
ATOM     23  C   UNL     1       2.707   0.024  -0.422  0.00  0.00    +0.012 C 
ATOM     24  C   UNL     1       3.528  -2.214  -1.169  0.00  0.00    +0.012 C 
ENDBRANCH  20  21
ENDBRANCH  15  20
ENDBRANCH   1  17
TORSDOF 5
