REMARK  Name = ZINC32537243
REMARK  4 active torsions:
REMARK  status: ('A' for Active; 'I' for Inactive)
REMARK    1  A    between atoms: C_1  and  C_2
REMARK    2  A    between atoms: N_8  and  C_9
REMARK    3  A    between atoms: C_9  and  C_10
REMARK    4  A    between atoms: C_10  and  N_11
REMARK                            x       y       z     vdW  Elec       q    Type
REMARK                         _______ _______ _______ _____ _____    ______ ____
ROOT
ATOM      1  C   UNL     1       2.361  -2.840  -0.035  0.00  0.00    +0.126 C 
ENDROOT
BRANCH   1   9
ATOM      2  C   UNL     1       1.008   3.503   0.011  0.00  0.00    +0.067 C 
ATOM      3  C   UNL     1       1.089   1.998   0.002  0.00  0.00    +0.061 A 
ATOM      4  C   UNL     1       2.327   1.370  -0.013  0.00  0.00    +0.028 A 
ATOM      5  C   UNL     1       2.354  -0.015  -0.021  0.00  0.00    +0.047 A 
ATOM      6  C   UNL     1       1.134  -0.692  -0.013  0.00  0.00    +0.141 A 
ATOM      7  N   UNL     1       0.002  -0.004   0.002  0.00  0.00    -0.134 NA
ATOM      8  N   UNL     1      -0.015   1.279   0.009  0.00  0.00    -0.153 NA
ATOM      9  N   UNL     1       1.107  -2.082  -0.019  0.00  0.00    -0.326 N 
ATOM     10  H   UNL     1       0.143  -2.614  -0.012  0.00  0.00    +0.148 HD
ENDBRANCH   1   9
BRANCH   1  11
ATOM     11  C   UNL     1       2.051  -4.338  -0.040  0.00  0.00    +0.164 C 
BRANCH  11  12
ATOM     12  N   UNL     1       3.305  -5.096  -0.056  0.00  0.00    -0.242 N 
ATOM     13  C   UNL     1       3.995  -5.520  -1.166  0.00  0.00    +0.089 A 
ATOM     14  C   UNL     1       3.795  -5.392  -2.536  0.00  0.00    +0.029 A 
ATOM     15  C   UNL     1       4.695  -5.936  -3.409  0.00  0.00    +0.002 A 
ATOM     16  C   UNL     1       5.814  -6.612  -2.939  0.00  0.00    +0.002 A 
ATOM     17  C   UNL     1       6.037  -6.746  -1.600  0.00  0.00    +0.032 A 
ATOM     18  C   UNL     1       5.129  -6.198  -0.684  0.00  0.00    +0.113 A 
ATOM     19  N   UNL     1       5.082  -6.169   0.662  0.00  0.00    -0.129 NA
ATOM     20  N   UNL     1       4.034  -5.536   1.059  0.00  0.00    -0.065 NA
ENDBRANCH  11  12
ENDBRANCH   1  11
TORSDOF 3
