REMARK  Name = ZINC13052379
REMARK  12 active torsions:
REMARK  status: ('A' for Active; 'I' for Inactive)
REMARK    1  A    between atoms: C_1  and  C_2
REMARK    2  A    between atoms: C_5  and  N_9
REMARK    3  A    between atoms: C_6  and  C_8
REMARK    4  A    between atoms: C_10  and  C_12
REMARK    5  A    between atoms: C_12  and  C_14
REMARK    6  A    between atoms: C_12  and  S_15
REMARK    7  A    between atoms: S_15  and  C_16
REMARK    8  A    between atoms: C_20  and  C_32
REMARK    9  A    between atoms: N_26  and  C_27
REMARK   10  A    between atoms: C_27  and  C_28
REMARK   11  A    between atoms: C_28  and  C_30
REMARK   12  A    between atoms: C_28  and  O_31
REMARK                            x       y       z     vdW  Elec       q    Type
REMARK                         _______ _______ _______ _____ _____    ______ ____
ROOT
ATOM      1  C   UNL     1       0.784  -0.298   1.559  0.00  0.00    +0.173 A 
ATOM      2  N   UNL     1       1.129   0.731   2.293  0.00  0.00    -0.223 NA
ATOM      3  C   UNL     1       1.717   0.573   3.503  0.00  0.00    +0.080 A 
ATOM      4  C   UNL     1       2.080   1.672   4.287  0.00  0.00    +0.043 A 
ATOM      5  C   UNL     1       2.684   1.462   5.519  0.00  0.00    +0.065 A 
ATOM      6  C   UNL     1       2.929   0.161   5.978  0.00  0.00    +0.016 A 
ATOM      7  C   UNL     1       2.579  -0.920   5.221  0.00  0.00    +0.016 A 
ATOM      8  C   UNL     1       1.971  -0.732   3.980  0.00  0.00    +0.065 A 
ATOM      9  C   UNL     1       1.577  -1.869   3.132  0.00  0.00    +0.262 A 
ATOM     10  O   UNL     1       1.770  -3.017   3.488  0.00  0.00    -0.267 OA
ATOM     11  N   UNL     1       0.994  -1.591   1.944  0.00  0.00    -0.285 N 
ENDROOT
BRANCH   5  12
ATOM     12  C   UNL     1       3.072   2.620   6.355  0.00  0.00    +0.387 C 
ATOM     13  O   UNL     1       2.861   3.749   5.962  0.00  0.00    -0.241 OA
ATOM     14  O   UNL     1       3.658   2.421   7.551  0.00  0.00    -0.241 OA
ENDBRANCH   5  12
BRANCH   1  15
ATOM     15  S   UNL     1       0.019   0.001   0.001  0.00  0.00    -0.075 S 
BRANCH  15  16
ATOM     16  C   UNL     1      -0.009   1.811   0.007  0.00  0.00    +0.137 C 
ATOM     17  C   UNL     1       1.425   2.344  -0.016  0.00  0.00    +0.029 C 
BRANCH  16  19
ATOM     18  N   UNL     1      -1.249   3.557  -1.231  0.00  0.00    -0.284 N 
ATOM     19  C   UNL     1      -0.749   2.306  -1.210  0.00  0.00    +0.230 C 
ATOM     20  O   UNL     1      -0.893   1.579  -2.170  0.00  0.00    -0.274 OA
ATOM     21  H   UNL     1      -1.205   4.111  -0.436  0.00  0.00    +0.155 HD
BRANCH  18  26
ATOM     22  C   UNL     1      -3.617   5.583  -5.972  0.00  0.00    +0.044 C 
ATOM     23  C   UNL     1      -2.988   5.045  -4.713  0.00  0.00    -0.050 A 
ATOM     24  C   UNL     1      -2.048   4.034  -4.789  0.00  0.00    +0.005 A 
ATOM     25  C   UNL     1      -1.470   3.538  -3.637  0.00  0.00    +0.024 A 
ATOM     26  C   UNL     1      -1.833   4.057  -2.401  0.00  0.00    +0.036 A 
ATOM     27  C   UNL     1      -2.782   5.068  -2.327  0.00  0.00    -0.029 A 
ATOM     28  C   UNL     1      -3.353   5.563  -3.484  0.00  0.00    +0.008 A 
ATOM     29  C   UNL     1      -3.184   5.629  -0.988  0.00  0.00    +0.045 C 
ENDBRANCH  18  26
ENDBRANCH  16  19
ENDBRANCH  15  16
ENDBRANCH   1  15
BRANCH  11  30
ATOM     30  C   UNL     1       0.583  -2.687   1.063  0.00  0.00    +0.158 C 
BRANCH  30  31
ATOM     31  C   UNL     1       1.736  -3.046   0.124  0.00  0.00    +0.131 C 
ATOM     32  C   UNL     1       1.307  -4.191  -0.797  0.00  0.00    +0.039 C 
BRANCH  31  33
ATOM     33  O   UNL     1       2.082  -1.905  -0.664  0.00  0.00    -0.390 OA
ATOM     34  H   UNL     1       1.359  -1.573  -1.214  0.00  0.00    +0.210 HD
ENDBRANCH  31  33
ENDBRANCH  30  31
ENDBRANCH  11  30
TORSDOF 8
