REMARK  Name = ZINC02303665
REMARK  10 active torsions:
REMARK  status: ('A' for Active; 'I' for Inactive)
REMARK    1  A    between atoms: C_1  and  C_2
REMARK    2  A    between atoms: C_5  and  N_9
REMARK    3  A    between atoms: C_7  and  C_8
REMARK    4  A    between atoms: C_10  and  N_30
REMARK    5  A    between atoms: C_11  and  C_22
REMARK    6  A    between atoms: N_24  and  C_25
REMARK    7  A    between atoms: C_25  and  C_26
REMARK    8  A    between atoms: C_26  and  C_27
REMARK    9  A    between atoms: C_27  and  O_28
REMARK   10  A    between atoms: O_28  and  C_29
REMARK                            x       y       z     vdW  Elec       q    Type
REMARK                         _______ _______ _______ _____ _____    ______ ____
ROOT
ATOM      1  N   UNL     1      -4.285  -0.215  -0.710  0.00  0.00    -0.280 N 
ATOM      2  C   UNL     1      -3.162   0.456  -1.095  0.00  0.00    +0.117 A 
ATOM      3  C   UNL     1      -2.443   0.876   0.018  0.00  0.00    +0.104 A 
ATOM      4  C   UNL     1      -3.191   0.414   1.199  0.00  0.00    +0.123 A 
ATOM      5  C   UNL     1      -4.369  -0.276   0.667  0.00  0.00    +0.166 A 
ATOM      6  N   UNL     1      -5.241  -0.803   1.500  0.00  0.00    -0.225 NA
ATOM      7  C   UNL     1      -5.049  -0.699   2.821  0.00  0.00    +0.092 A 
ATOM      8  C   UNL     1      -5.976  -1.259   3.719  0.00  0.00    +0.030 A 
ATOM      9  C   UNL     1      -5.773  -1.147   5.060  0.00  0.00    +0.002 A 
ATOM     10  C   UNL     1      -4.655  -0.485   5.563  0.00  0.00    +0.002 A 
ATOM     11  C   UNL     1      -3.736   0.069   4.727  0.00  0.00    +0.030 A 
ATOM     12  C   UNL     1      -3.912  -0.025   3.333  0.00  0.00    +0.090 A 
ATOM     13  N   UNL     1      -3.015   0.517   2.501  0.00  0.00    -0.241 NA
ENDROOT
BRANCH   1  18
ATOM     14  C   UNL     1      -8.088  -2.454  -4.278  0.00  0.00    +0.044 C 
ATOM     15  C   UNL     1      -7.077  -1.860  -3.331  0.00  0.00    -0.047 A 
ATOM     16  C   UNL     1      -6.331  -2.686  -2.511  0.00  0.00    +0.005 A 
ATOM     17  C   UNL     1      -5.405  -2.144  -1.641  0.00  0.00    +0.026 A 
ATOM     18  C   UNL     1      -5.223  -0.768  -1.591  0.00  0.00    +0.050 A 
ATOM     19  C   UNL     1      -5.978   0.059  -2.412  0.00  0.00    +0.030 A 
ATOM     20  C   UNL     1      -6.899  -0.489  -3.284  0.00  0.00    -0.046 A 
ATOM     21  C   UNL     1      -7.714   0.407  -4.179  0.00  0.00    +0.044 C 
ENDBRANCH   1  18
BRANCH   3  22
ATOM     22  C   UNL     1      -1.187   1.624   0.017  0.00  0.00    +0.250 C 
ATOM     23  O   UNL     1      -1.204   2.841   0.023  0.00  0.00    -0.270 OA
ATOM     24  N   UNL     1      -0.011   0.966   0.007  0.00  0.00    -0.311 N 
ATOM     25  H   UNL     1       0.002  -0.004   0.002  0.00  0.00    +0.149 HD
BRANCH  24  26
ATOM     26  C   UNL     1       1.248   1.716  -0.001  0.00  0.00    +0.107 C 
BRANCH  26  27
ATOM     27  C   UNL     1       2.424   0.737  -0.017  0.00  0.00    +0.047 C 
BRANCH  27  28
ATOM     28  C   UNL     1       3.738   1.520  -0.025  0.00  0.00    +0.161 C 
BRANCH  28  29
ATOM     29  O   UNL     1       4.837   0.607  -0.041  0.00  0.00    -0.383 OA
ATOM     30  C   UNL     1       6.118   1.238  -0.050  0.00  0.00    +0.193 C 
ENDBRANCH  28  29
ENDBRANCH  27  28
ENDBRANCH  26  27
ENDBRANCH  24  26
ENDBRANCH   3  22
BRANCH   2  31
ATOM     31  N   UNL     1      -2.795   0.685  -2.395  0.00  0.00    -0.343 N 
ATOM     32  H   UNL     1      -1.979   1.172  -2.590  0.00  0.00    +0.144 HD
ATOM     33  H   UNL     1      -3.351   0.360  -3.121  0.00  0.00    +0.144 HD
ENDBRANCH   2  31
TORSDOF 7
