REMARK  Name = ZINC27263034
REMARK  5 active torsions:
REMARK  status: ('A' for Active; 'I' for Inactive)
REMARK    1  A    between atoms: C_7  and  C_26
REMARK    2  A    between atoms: C_8  and  C_10
REMARK    3  A    between atoms: N_12  and  C_13
REMARK    4  A    between atoms: C_26  and  S_27
REMARK    5  A    between atoms: S_27  and  C_28
REMARK                            x       y       z     vdW  Elec       q    Type
REMARK                         _______ _______ _______ _____ _____    ______ ____
ROOT
ATOM      1  C   UNL     1       3.596  -6.011   3.338  0.00  0.00    +0.001 A 
ATOM      2  C   UNL     1       3.550  -7.310   2.851  0.00  0.00    +0.004 A 
ATOM      3  C   UNL     1       3.483  -7.553   1.496  0.00  0.00    +0.047 A 
ATOM      4  C   UNL     1       3.461  -6.488   0.603  0.00  0.00    +0.136 A 
ATOM      5  C   UNL     1       3.514  -5.173   1.102  0.00  0.00    +0.025 A 
ATOM      6  C   UNL     1       3.575  -4.948   2.479  0.00  0.00    +0.012 A 
ATOM      7  C   UNL     1       3.470  -4.302  -0.072  0.00  0.00    +0.021 A 
ATOM      8  C   UNL     1       3.405  -5.126  -1.150  0.00  0.00    +0.195 A 
ATOM      9  O   UNL     1       3.401  -6.412  -0.741  0.00  0.00    -0.450 OA
ENDROOT
BRANCH   8  10
ATOM     10  C   UNL     1       3.349  -4.684  -2.550  0.00  0.00    +0.284 C 
ATOM     11  O   UNL     1       3.358  -3.496  -2.814  0.00  0.00    -0.266 OA
ATOM     12  N   UNL     1       3.287  -5.594  -3.542  0.00  0.00    -0.278 N 
ATOM     13  H   UNL     1       3.365  -6.666  -3.310  0.00  0.00    +0.155 HD
BRANCH  12  14
ATOM     14  C   UNL     1       3.122  -5.174  -4.869  0.00  0.00    +0.052 A 
ATOM     15  C   UNL     1       2.376  -4.033  -5.160  0.00  0.00    +0.028 A 
ATOM     16  C   UNL     1       2.245  -3.652  -6.483  0.00  0.00    +0.045 A 
ATOM     17  C   UNL     1       2.847  -4.422  -7.473  0.00  0.00    +0.122 A 
ATOM     18  N   UNL     1       3.543  -5.503  -7.160  0.00  0.00    -0.238 NA
ATOM     19  C   UNL     1       3.694  -5.892  -5.908  0.00  0.00    +0.136 A 
ATOM     20  N   UNL     1       2.715  -4.051  -8.808  0.00  0.00    -0.305 N 
ATOM     21  C   UNL     1       3.443  -4.979  -9.688  0.00  0.00    +0.125 C 
ATOM     22  C   UNL     1       3.020  -4.720 -11.135  0.00  0.00    +0.123 C 
ATOM     23  N   UNL     1       3.118  -3.295 -11.437  0.00  0.00    -0.313 N 
ATOM     24  C   UNL     1       3.178  -2.353 -10.489  0.00  0.00    +0.230 C 
ATOM     25  O   UNL     1       3.228  -1.190 -10.829  0.00  0.00    -0.274 OA
ATOM     26  C   UNL     1       3.185  -2.676  -9.022  0.00  0.00    +0.202 C 
ATOM     27  H   UNL     1       3.147  -2.955 -12.483  0.00  0.00    +0.149 HD
ENDBRANCH  12  14
ENDBRANCH   8  10
BRANCH   7  28
ATOM     28  C   UNL     1       3.496  -2.795  -0.084  0.00  0.00    +0.114 C 
BRANCH  28  29
ATOM     29  S   UNL     1       1.798  -2.160  -0.009  0.00  0.00    -0.120 S 
BRANCH  29  30
ATOM     30  C   UNL     1       1.997  -0.409  -0.030  0.00  0.00    +0.008 A 
ATOM     31  C   UNL     1       0.882   0.419   0.016  0.00  0.00    +0.016 A 
ATOM     32  C   UNL     1       1.041   1.790  -0.000  0.00  0.00    +0.021 A 
ATOM     33  C   UNL     1       2.309   2.341  -0.063  0.00  0.00    +0.041 A 
ATOM     34  C   UNL     1       3.422   1.519  -0.109  0.00  0.00    +0.021 A 
ATOM     35  C   UNL     1       3.269   0.146  -0.093  0.00  0.00    +0.016 A 
ATOM     36 CL   UNL     1       2.505   4.066  -0.083  0.00  0.00    -0.084 Cl
ENDBRANCH  29  30
ENDBRANCH  28  29
ENDBRANCH   7  28
TORSDOF 5
