REMARK  Name = ZINC62498125
REMARK  6 active torsions:
REMARK  status: ('A' for Active; 'I' for Inactive)
REMARK    1  A    between atoms: C_1  and  C_2
REMARK    2  A    between atoms: C_2  and  C_3
REMARK    3  A    between atoms: C_6  and  C_9
REMARK    4  A    between atoms: C_9  and  C_10
REMARK    5  A    between atoms: N_13  and  C_22
REMARK    6  A    between atoms: C_17  and  O_21
REMARK                            x       y       z     vdW  Elec       q    Type
REMARK                         _______ _______ _______ _____ _____    ______ ____
ROOT
ATOM      1  C   UNL     1       3.169  -0.668  -5.581  0.00  0.00    +0.195 C 
ATOM      2  C   UNL     1       3.990  -1.157  -6.782  0.00  0.00    +0.149 C 
ATOM      3  N   UNL     1       4.370   0.025  -7.574  0.00  0.00    -0.327 N 
ATOM      4  C   UNL     1       3.395   1.021  -7.769  0.00  0.00    +0.072 A 
ATOM      5  C   UNL     1       3.591   2.004  -8.726  0.00  0.00    +0.030 A 
ATOM      6  C   UNL     1       2.634   2.984  -8.914  0.00  0.00    +0.047 A 
ATOM      7  C   UNL     1       1.479   2.983  -8.145  0.00  0.00    +0.120 A 
ATOM      8  C   UNL     1       1.281   2.000  -7.188  0.00  0.00    +0.093 A 
ATOM      9  C   UNL     1       2.237   1.014  -6.997  0.00  0.00    +0.145 A 
ATOM     10  O   UNL     1       2.030   0.051  -6.059  0.00  0.00    -0.485 OA
ATOM     11  C   UNL     1       5.715   0.160  -8.137  0.00  0.00    +0.129 C 
ENDROOT
BRANCH   7  12
ATOM     12  O   UNL     1       0.540   3.949  -8.330  0.00  0.00    -0.507 OA
ATOM     13  H   UNL     1      -0.133   3.722  -8.987  0.00  0.00    +0.292 HD
ENDBRANCH   7  12
BRANCH   1  14
ATOM     14  C   UNL     1       2.707  -1.868  -4.752  0.00  0.00    +0.081 C 
BRANCH  14  18
ATOM     15  C   UNL     1       0.707  -0.490  -1.238  0.00  0.00    -0.048 A 
ATOM     16  C   UNL     1      -0.011  -0.719  -2.397  0.00  0.00    +0.004 A 
ATOM     17  C   UNL     1       0.636  -1.164  -3.534  0.00  0.00    +0.004 A 
ATOM     18  C   UNL     1       2.002  -1.381  -3.513  0.00  0.00    -0.044 A 
ATOM     19  C   UNL     1       2.720  -1.152  -2.354  0.00  0.00    +0.004 A 
ATOM     20  C   UNL     1       2.073  -0.702  -1.218  0.00  0.00    +0.004 A 
BRANCH  15  22
ATOM     21  C   UNL     1      -0.019   1.526   0.010  0.00  0.00    +0.009 C 
ATOM     22  C   UNL     1       0.002  -0.004   0.002  0.00  0.00    +0.032 C 
ENDBRANCH  15  22
ENDBRANCH  14  18
ENDBRANCH   1  14
TORSDOF 4
