REMARK  Name = ZINC07126278
REMARK  4 active torsions:
REMARK  status: ('A' for Active; 'I' for Inactive)
REMARK    1  A    between atoms: C_4  and  C_7
REMARK    2  A    between atoms: C_7  and  O_8
REMARK    3  A    between atoms: O_8  and  C_9
REMARK    4  A    between atoms: C_14  and  C_15
REMARK                            x       y       z     vdW  Elec       q    Type
REMARK                         _______ _______ _______ _____ _____    ______ ____
ROOT
ATOM      1  C   UNL     1      -3.170   4.873   0.017  0.00  0.00    +0.212 C 
ATOM      2  N   UNL     1      -4.526   4.724   0.575  0.00  0.00    -0.293 N 
ATOM      3  C   UNL     1      -5.257   3.599   0.299  0.00  0.00    +0.183 C 
ATOM      4  N   UNL     1      -4.673   2.435   0.048  0.00  0.00    -0.183 NA
ATOM      5  C   UNL     1      -3.320   2.386   0.038  0.00  0.00    +0.236 A 
ATOM      6  N   UNL     1      -2.559   3.539   0.036  0.00  0.00    -0.285 N 
ATOM      7  C   UNL     1      -1.237   3.167   0.028  0.00  0.00    +0.072 A 
ATOM      8  C   UNL     1      -0.034   3.859   0.021  0.00  0.00    +0.028 A 
ATOM      9  C   UNL     1       1.160   3.168   0.007  0.00  0.00    +0.002 A 
ATOM     10  C   UNL     1       1.169   1.782   0.001  0.00  0.00    +0.002 A 
ATOM     11  C   UNL     1      -0.013   1.076   0.008  0.00  0.00    +0.030 A 
ATOM     12  C   UNL     1      -1.231   1.759   0.017  0.00  0.00    +0.091 A 
ATOM     13  N   UNL     1      -2.527   1.346   0.027  0.00  0.00    -0.210 NA
ATOM     14  N   UNL     1      -6.622   3.682   0.258  0.00  0.00    -0.331 N 
ATOM     15  H   UNL     1      -4.899   5.420   1.137  0.00  0.00    +0.151 HD
ATOM     16  H   UNL     1      -7.062   4.531   0.423  0.00  0.00    +0.145 HD
ATOM     17  H   UNL     1      -7.151   2.893   0.063  0.00  0.00    +0.145 HD
ENDROOT
BRANCH   1  23
ATOM     18  C   UNL     1      -2.125   5.942  -1.996  0.00  0.00    +0.128 A 
ATOM     19  C   UNL     1      -2.197   6.409  -3.301  0.00  0.00    +0.046 A 
ATOM     20  C   UNL     1      -3.387   6.327  -3.998  0.00  0.00    +0.004 A 
ATOM     21  C   UNL     1      -4.505   5.777  -3.397  0.00  0.00    +0.001 A 
ATOM     22  C   UNL     1      -4.434   5.307  -2.099  0.00  0.00    +0.011 A 
ATOM     23  C   UNL     1      -3.246   5.386  -1.398  0.00  0.00    +0.035 A 
BRANCH  18  24
ATOM     24  O   UNL     1      -0.956   6.026  -1.307  0.00  0.00    -0.487 OA
BRANCH  24  25
ATOM     25  C   UNL     1       0.157   6.610  -1.986  0.00  0.00    +0.264 C 
BRANCH  25  29
ATOM     26  C   UNL     1       3.554   6.631   0.604  0.00  0.00    +0.000 A 
ATOM     27  C   UNL     1       3.322   5.548  -0.223  0.00  0.00    +0.000 A 
ATOM     28  C   UNL     1       2.223   5.541  -1.061  0.00  0.00    +0.007 A 
ATOM     29  C   UNL     1       1.355   6.617  -1.072  0.00  0.00    -0.010 A 
ATOM     30  C   UNL     1       1.590   7.703  -0.249  0.00  0.00    +0.007 A 
ATOM     31  C   UNL     1       2.686   7.707   0.593  0.00  0.00    +0.000 A 
ENDBRANCH  25  29
ENDBRANCH  24  25
ENDBRANCH  18  24
ENDBRANCH   1  23
TORSDOF 4
