REMARK  Name = ZINC01438069
REMARK  7 active torsions:
REMARK  status: ('A' for Active; 'I' for Inactive)
REMARK    1  A    between atoms: C_1  and  C_2
REMARK    2  A    between atoms: C_2  and  C_3
REMARK    3  A    between atoms: C_2  and  C_4
REMARK    4  A    between atoms: C_2  and  C_5
REMARK    5  A    between atoms: C_12  and  N_25
REMARK    6  A    between atoms: C_13  and  C_23
REMARK    7  A    between atoms: C_14  and  C_16
REMARK                            x       y       z     vdW  Elec       q    Type
REMARK                         _______ _______ _______ _____ _____    ______ ____
ROOT
ATOM      1  C   UNL     1       1.394  -0.943  -1.968  0.00  0.00    +0.076 A 
ATOM      2  C   UNL     1       1.023  -2.266  -2.166  0.00  0.00    +0.050 A 
ATOM      3  C   UNL     1       1.392  -2.624  -3.433  0.00  0.00    +0.222 A 
ATOM      4  N   UNL     1       1.975  -1.558  -4.003  0.00  0.00    -0.246 N 
ATOM      5  H   UNL     1       2.338  -1.517  -4.901  0.00  0.00    +0.192 HD
ATOM      6  N   UNL     1       1.961  -0.510  -3.069  0.00  0.00    -0.175 NA
ATOM      7  O   UNL     1       1.166  -3.862  -3.939  0.00  0.00    -0.423 OA
ATOM      8  C   UNL     1       0.319  -4.667  -3.265  0.00  0.00    +0.200 C 
ATOM      9  C   UNL     1      -0.107  -4.426  -2.006  0.00  0.00    +0.098 C 
ATOM     10  C   UNL     1       0.336  -3.217  -1.220  0.00  0.00    +0.101 C 
ENDROOT
BRANCH  10  11
ATOM     11  C   UNL     1       1.296  -3.638  -0.137  0.00  0.00    -0.034 A 
ATOM     12  C   UNL     1       2.622  -3.880  -0.443  0.00  0.00    +0.004 A 
ATOM     13  C   UNL     1       3.502  -4.266   0.550  0.00  0.00    +0.001 A 
ATOM     14  C   UNL     1       3.056  -4.411   1.851  0.00  0.00    +0.014 A 
ATOM     15  C   UNL     1       1.730  -4.169   2.158  0.00  0.00    +0.014 A 
ATOM     16  C   UNL     1       0.851  -3.777   1.165  0.00  0.00    +0.019 A 
ATOM     17  I   UNL     1       1.054  -4.389   4.128  0.00  0.00    -0.044 I 
ENDBRANCH  10  11
BRANCH   1  19
ATOM     18  C   UNL     1       1.589   1.311  -0.953  0.00  0.00    +0.017 C 
ATOM     19  C   UNL     1       1.178  -0.143  -0.709  0.00  0.00    +0.007 C 
ATOM     20  C   UNL     1       2.025  -0.730   0.421  0.00  0.00    +0.017 C 
ATOM     21  C   UNL     1      -0.301  -0.196  -0.319  0.00  0.00    +0.017 C 
ENDBRANCH   1  19
BRANCH   8  22
ATOM     22  N   UNL     1      -0.138  -5.797  -3.897  0.00  0.00    -0.328 N 
ATOM     23  H   UNL     1       0.150  -5.997  -4.801  0.00  0.00    +0.145 HD
ATOM     24  H   UNL     1      -0.748  -6.396  -3.438  0.00  0.00    +0.145 HD
ENDBRANCH   8  22
BRANCH   9  25
ATOM     25  C   UNL     1      -1.012  -5.352  -1.395  0.00  0.00    +0.101 C 
ATOM     26  N   UNL     1      -1.730  -6.086  -0.909  0.00  0.00    -0.191 NA
ENDBRANCH   9  25
TORSDOF 4
