REMARK  Name = ZINC37486249
REMARK  7 active torsions:
REMARK  status: ('A' for Active; 'I' for Inactive)
REMARK    1  A    between atoms: C_1  and  C_2
REMARK    2  A    between atoms: C_2  and  C_3
REMARK    3  A    between atoms: C_2  and  C_4
REMARK    4  A    between atoms: C_4  and  N_5
REMARK    5  A    between atoms: C_6  and  N_20
REMARK    6  A    between atoms: C_7  and  N_14
REMARK    7  A    between atoms: N_14  and  C_15
REMARK                            x       y       z     vdW  Elec       q    Type
REMARK                         _______ _______ _______ _____ _____    ______ ____
ROOT
ATOM      1  N   UNL     1       0.130  -0.240   2.583  0.00  0.00    -0.280 N 
ATOM      2  C   UNL     1       0.382   0.962   3.204  0.00  0.00    +0.127 A 
ATOM      3  C   UNL     1      -0.465   1.401   4.185  0.00  0.00    +0.131 A 
ATOM      4  C   UNL     1      -1.574   0.610   4.533  0.00  0.00    +0.277 A 
ATOM      5  O   UNL     1      -2.343   0.980   5.404  0.00  0.00    -0.266 OA
ATOM      6  N   UNL     1      -1.782  -0.561   3.898  0.00  0.00    -0.273 N 
ATOM      7  H   UNL     1      -2.547  -1.108   4.137  0.00  0.00    +0.173 HD
ATOM      8  C   UNL     1      -0.942  -0.975   2.933  0.00  0.00    +0.331 A 
ATOM      9  O   UNL     1      -1.152  -2.033   2.370  0.00  0.00    -0.246 OA
ENDROOT
BRANCH   2  10
ATOM     10  N   UNL     1       1.476   1.714   2.842  0.00  0.00    -0.343 N 
ATOM     11  H   UNL     1       2.073   1.398   2.146  0.00  0.00    +0.144 HD
ATOM     12  H   UNL     1       1.649   2.561   3.283  0.00  0.00    +0.144 HD
ENDBRANCH   2  10
BRANCH   3  13
ATOM     13  N   UNL     1      -0.228   2.632   4.839  0.00  0.00    -0.334 N 
ATOM     14  H   UNL     1       0.488   3.212   4.537  0.00  0.00    +0.147 HD
BRANCH  13  15
ATOM     15  C   UNL     1      -1.064   3.032   5.973  0.00  0.00    +0.071 C 
ATOM     16  C   UNL     1      -2.370   3.677   5.466  0.00  0.00    +0.022 C 
ATOM     17  C   UNL     1      -2.651   4.814   6.479  0.00  0.00    +0.002 C 
ATOM     18  C   UNL     1      -1.233   5.360   6.782  0.00  0.00    +0.002 C 
ATOM     19  C   UNL     1      -0.342   4.102   6.810  0.00  0.00    +0.022 C 
ENDBRANCH  13  15
ENDBRANCH   3  13
BRANCH   1  20
ATOM     20  C   UNL     1       1.029  -0.720   1.531  0.00  0.00    +0.131 C 
BRANCH  20  22
ATOM     21  C   UNL     1       0.664   1.324   0.141  0.00  0.00    +0.009 C 
ATOM     22  C   UNL     1       0.549  -0.202   0.174  0.00  0.00    +0.003 C 
ATOM     23  C   UNL     1       1.414  -0.802  -0.936  0.00  0.00    +0.009 C 
ENDBRANCH  20  22
ENDBRANCH   1  20
TORSDOF 5
