REMARK  Name = ZINC00090728
REMARK  4 active torsions:
REMARK  status: ('A' for Active; 'I' for Inactive)
REMARK    1  A    between atoms: C_3  and  C_6
REMARK    2  A    between atoms: C_9  and  C_20
REMARK    3  A    between atoms: C_15  and  N_19
REMARK    4  A    between atoms: C_16  and  C_17
REMARK                            x       y       z     vdW  Elec       q    Type
REMARK                         _______ _______ _______ _____ _____    ______ ____
ROOT
ATOM      1  C   UNL     1       3.599   0.625  -0.029  0.00  0.00    +0.138 C 
ATOM      2  C   UNL     1       4.102  -0.115   1.183  0.00  0.00    +0.057 A 
ATOM      3  C   UNL     1       4.116   0.286   2.522  0.00  0.00    +0.100 A 
ATOM      4  N   UNL     1       4.651  -0.689   3.232  0.00  0.00    -0.171 NA
ATOM      5  N   UNL     1       4.991  -1.735   2.361  0.00  0.00    -0.246 N 
ATOM      6  H   UNL     1       5.401  -2.577   2.614  0.00  0.00    +0.192 HD
ATOM      7  C   UNL     1       4.648  -1.364   1.110  0.00  0.00    +0.223 A 
ATOM      8  O   UNL     1       4.784  -2.037  -0.059  0.00  0.00    -0.423 OA
ATOM      9  C   UNL     1       4.618  -1.342  -1.203  0.00  0.00    +0.201 C 
ATOM     10  C   UNL     1       4.079  -0.103  -1.260  0.00  0.00    +0.101 C 
ENDROOT
BRANCH   3  11
ATOM     11  C   UNL     1       3.617   1.580   3.051  0.00  0.00    +0.003 A 
ATOM     12  C   UNL     1       3.750   2.742   2.294  0.00  0.00    +0.013 A 
ATOM     13  C   UNL     1       3.284   3.943   2.789  0.00  0.00    +0.039 A 
ATOM     14  C   UNL     1       2.685   3.994   4.037  0.00  0.00    +0.123 A 
ATOM     15  C   UNL     1       2.550   2.840   4.793  0.00  0.00    +0.039 A 
ATOM     16  C   UNL     1       3.008   1.635   4.303  0.00  0.00    +0.013 A 
ATOM     17  F   UNL     1       2.230   5.171   4.519  0.00  0.00    -0.205 F 
ENDBRANCH   3  11
BRANCH   1  20
ATOM     18  C   UNL     1      -0.016   1.341   0.009  0.00  0.00    +0.041 A 
ATOM     19  C   UNL     1       1.331   1.769  -0.001  0.00  0.00    +0.045 A 
ATOM     20  C   UNL     1       2.092   0.660  -0.014  0.00  0.00    +0.118 A 
ATOM     21  O   UNL     1       1.282  -0.411  -0.012  0.00  0.00    -0.467 OA
ATOM     22  C   UNL     1       0.002  -0.004   0.002  0.00  0.00    +0.195 A 
ENDBRANCH   1  20
BRANCH   9  23
ATOM     23  N   UNL     1       5.021  -1.926  -2.378  0.00  0.00    -0.328 N 
ATOM     24  H   UNL     1       5.412  -2.813  -2.370  0.00  0.00    +0.145 HD
ATOM     25  H   UNL     1       4.915  -1.451  -3.217  0.00  0.00    +0.145 HD
ENDBRANCH   9  23
BRANCH  10  26
ATOM     26  C   UNL     1       3.958   0.540  -2.534  0.00  0.00    +0.101 C 
ATOM     27  N   UNL     1       3.861   1.050  -3.544  0.00  0.00    -0.191 NA
ENDBRANCH  10  26
TORSDOF 4
