REMARK  Name = ZINC02308879
REMARK  7 active torsions:
REMARK  status: ('A' for Active; 'I' for Inactive)
REMARK    1  A    between atoms: C_1  and  C_2
REMARK    2  A    between atoms: C_4  and  C_32
REMARK    3  A    between atoms: C_6  and  N_8
REMARK    4  A    between atoms: C_9  and  C_31
REMARK    5  A    between atoms: C_11  and  C_14
REMARK    6  A    between atoms: C_12  and  C_13
REMARK    7  A    between atoms: N_21  and  C_24
REMARK                            x       y       z     vdW  Elec       q    Type
REMARK                         _______ _______ _______ _____ _____    ______ ____
ROOT
ATOM      1  C   UNL     1       1.969  -4.256   5.159  0.00  0.00    +0.028 C 
ATOM      2  C   UNL     1       1.530  -5.234   6.043  0.00  0.00    +0.102 C 
ATOM      3  C   UNL     1       0.344  -6.053   5.755  0.00  0.00    +0.276 C 
ATOM      4  O   UNL     1      -0.357  -5.876   4.615  0.00  0.00    -0.268 OA
ATOM      5  N   UNL     1      -0.021  -6.968   6.638  0.00  0.00    -0.123 NA
ATOM      6  C   UNL     1       0.650  -7.164   7.769  0.00  0.00    +0.340 C 
ATOM      7  O   UNL     1       0.252  -8.025   8.534  0.00  0.00    -0.250 OA
ATOM      8  N   UNL     1       1.742  -6.466   8.115  0.00  0.00    -0.188 N 
ATOM      9  C   UNL     1       2.236  -5.501   7.309  0.00  0.00    +0.264 C 
ATOM     10  O   UNL     1       3.230  -4.870   7.620  0.00  0.00    -0.269 OA
ENDROOT
BRANCH   1  14
ATOM     11  N   UNL     1       0.465  -3.284   2.052  0.00  0.00    -0.317 N 
ATOM     12  C   UNL     1      -0.647  -3.274   2.850  0.00  0.00    +0.022 A 
ATOM     13  C   UNL     1      -0.299  -3.621   4.099  0.00  0.00    +0.031 A 
ATOM     14  C   UNL     1       1.151  -3.866   4.074  0.00  0.00    -0.003 A 
ATOM     15  C   UNL     1       1.551  -3.640   2.763  0.00  0.00    +0.028 A 
ATOM     16  C   UNL     1       2.955  -3.767   2.231  0.00  0.00    +0.064 C 
ATOM     17  C   UNL     1      -2.042  -2.929   2.397  0.00  0.00    +0.064 C 
BRANCH  11  23
ATOM     18  C   UNL     1       1.913  -0.341  -1.612  0.00  0.00    +0.044 C 
ATOM     19  C   UNL     1       1.165  -1.551  -1.117  0.00  0.00    -0.048 A 
ATOM     20  C   UNL     1       0.484  -2.356  -2.011  0.00  0.00    +0.006 A 
ATOM     21  C   UNL     1      -0.204  -3.468  -1.561  0.00  0.00    -0.048 A 
ATOM     22  C   UNL     1      -0.212  -3.778  -0.215  0.00  0.00    +0.029 A 
ATOM     23  C   UNL     1       0.471  -2.972   0.686  0.00  0.00    +0.047 A 
ATOM     24  C   UNL     1       1.166  -1.859   0.230  0.00  0.00    +0.029 A 
ATOM     25  C   UNL     1      -0.945  -4.342  -2.539  0.00  0.00    +0.044 C 
ENDBRANCH  11  23
ENDBRANCH   1  14
BRANCH   8  26
ATOM     26  C   UNL     1       2.383  -6.745   9.329  0.00  0.00    +0.046 A 
ATOM     27  C   UNL     1       2.103  -5.982  10.455  0.00  0.00    +0.025 A 
ATOM     28  C   UNL     1       2.736  -6.259  11.651  0.00  0.00    +0.022 A 
ATOM     29  C   UNL     1       3.649  -7.296  11.728  0.00  0.00    +0.041 A 
ATOM     30  C   UNL     1       3.930  -8.058  10.607  0.00  0.00    +0.022 A 
ATOM     31  C   UNL     1       3.296  -7.788   9.410  0.00  0.00    +0.025 A 
ATOM     32 CL   UNL     1       4.443  -7.642  13.232  0.00  0.00    -0.084 Cl
ENDBRANCH   8  26
TORSDOF 3
