REMARK  Name = ZINC31160803
REMARK  9 active torsions:
REMARK  status: ('A' for Active; 'I' for Inactive)
REMARK    1  A    between atoms: C_1  and  C_2
REMARK    2  A    between atoms: C_5  and  O_28
REMARK    3  A    between atoms: C_9  and  C_27
REMARK    4  A    between atoms: C_12  and  C_23
REMARK    5  A    between atoms: C_13  and  C_22
REMARK    6  A    between atoms: C_23  and  C_24
REMARK    7  A    between atoms: C_23  and  C_25
REMARK    8  A    between atoms: C_23  and  O_26
REMARK    9  A    between atoms: O_28  and  C_29
REMARK                            x       y       z     vdW  Elec       q    Type
REMARK                         _______ _______ _______ _____ _____    ______ ____
ROOT
ATOM      1  C   UNL     1      -0.720  -1.084   6.232  0.00  0.00    +0.048 C 
ATOM      2  C   UNL     1      -0.009  -0.712   4.955  0.00  0.00    -0.001 A 
ATOM      3  C   UNL     1       1.353  -0.808   4.848  0.00  0.00    +0.014 A 
ATOM      4  C   UNL     1       2.027  -0.463   3.658  0.00  0.00    +0.108 A 
ATOM      5  C   UNL     1       1.313  -0.008   2.538  0.00  0.00    +0.141 A 
ATOM      6  C   UNL     1      -0.075   0.084   2.659  0.00  0.00    +0.037 A 
ATOM      7  C   UNL     1      -0.722  -0.254   3.833  0.00  0.00    +0.131 A 
ATOM      8  O   UNL     1      -2.070  -0.158   3.958  0.00  0.00    -0.485 OA
ATOM      9  C   UNL     1      -2.858  -0.065   2.770  0.00  0.00    +0.112 C 
ATOM     10  C   UNL     1      -4.284   0.349   3.154  0.00  0.00    +0.052 C 
ATOM     11  C   UNL     1      -4.206   1.685   3.932  0.00  0.00    +0.055 C 
ATOM     12  C   UNL     1      -3.563   2.766   3.064  0.00  0.00    +0.147 C 
ATOM     13  C   UNL     1      -2.156   2.329   2.648  0.00  0.00    +0.018 C 
ATOM     14  C   UNL     1      -2.243   1.016   1.870  0.00  0.00    +0.047 C 
ATOM     15  C   UNL     1      -0.845   0.562   1.451  0.00  0.00    +0.050 C 
ATOM     16  C   UNL     1      -1.540   3.408   1.749  0.00  0.00    +0.022 C 
ATOM     17  C   UNL     1      -2.420   3.578   0.504  0.00  0.00    +0.121 C 
ATOM     18  C   UNL     1      -3.845   3.815   0.954  0.00  0.00    +0.308 C 
ATOM     19  O   UNL     1      -4.494   4.729   0.504  0.00  0.00    -0.251 OA
ATOM     20  O   UNL     1      -4.370   2.977   1.872  0.00  0.00    -0.455 OA
ATOM     21  C   UNL     1      -1.281   2.135   3.888  0.00  0.00    +0.016 C 
ATOM     22  C   UNL     1      -2.877  -1.410   2.042  0.00  0.00    +0.056 C 
ATOM     23  C   UNL     1       3.453  -0.673   3.865  0.00  0.00    +0.343 C 
ATOM     24  O   UNL     1       4.315  -0.469   3.033  0.00  0.00    -0.245 OA
ATOM     25  O   UNL     1       3.679  -1.126   5.115  0.00  0.00    -0.456 OA
ATOM     26  C   UNL     1       2.407  -1.245   5.817  0.00  0.00    +0.269 C 
ENDROOT
BRANCH  12  27
ATOM     27  C   UNL     1      -3.477   4.071   3.859  0.00  0.00    +0.101 C 
ATOM     28  C   UNL     1      -4.889   4.566   4.180  0.00  0.00    +0.045 C 
ATOM     29  C   UNL     1      -2.715   3.824   5.163  0.00  0.00    +0.045 C 
BRANCH  27  30
ATOM     30  O   UNL     1      -2.791   5.056   3.085  0.00  0.00    -0.385 OA
ATOM     31  H   UNL     1      -2.632   6.064   3.494  0.00  0.00    +0.210 HD
ENDBRANCH  27  30
ENDBRANCH  12  27
BRANCH   5  32
ATOM     32  O   UNL     1       1.946   0.328   1.387  0.00  0.00    -0.494 OA
ATOM     33  C   UNL     1       2.133  -0.711   0.423  0.00  0.00    +0.277 C 
ENDBRANCH   5  32
TORSDOF 3
