REMARK  Name = ZINC62203239
REMARK  3 active torsions:
REMARK  status: ('A' for Active; 'I' for Inactive)
REMARK    1  A    between atoms: C_5  and  N_7
REMARK    2  A    between atoms: C_12  and  N_16
REMARK    3  A    between atoms: N_16  and  N_17
REMARK                            x       y       z     vdW  Elec       q    Type
REMARK                         _______ _______ _______ _____ _____    ______ ____
ROOT
ATOM      1  N   UNL     1       1.236  -2.082  -0.021  0.00  0.00    -0.211 N 
ATOM      2  C   UNL     1       0.142  -2.900  -0.021  0.00  0.00    +0.168 A 
ATOM      3  C   UNL     1       0.630  -4.222  -0.031  0.00  0.00    +0.080 A 
ATOM      4  C   UNL     1       2.040  -4.142  -0.038  0.00  0.00    +0.148 A 
ATOM      5  N   UNL     1       2.384  -2.885  -0.038  0.00  0.00    -0.172 NA
ATOM      6  C   UNL     1      -0.302  -5.277  -0.033  0.00  0.00    +0.146 A 
ATOM      7  N   UNL     1      -1.596  -4.976  -0.025  0.00  0.00    -0.219 NA
ATOM      8  C   UNL     1      -2.006  -3.720  -0.015  0.00  0.00    +0.225 A 
ATOM      9  N   UNL     1      -1.174  -2.702  -0.013  0.00  0.00    -0.216 NA
ENDROOT
BRANCH   1  14
ATOM     10  C   UNL     1      -0.017   1.377   0.010  0.00  0.00    +0.002 A 
ATOM     11  C   UNL     1       1.170   2.087   0.002  0.00  0.00    +0.003 A 
ATOM     12  C   UNL     1       2.380   1.418  -0.013  0.00  0.00    +0.040 A 
ATOM     13  C   UNL     1       2.406   0.035  -0.021  0.00  0.00    +0.149 A 
ATOM     14  C   UNL     1       1.214  -0.681  -0.013  0.00  0.00    +0.103 A 
ATOM     15  C   UNL     1       0.002  -0.004   0.002  0.00  0.00    +0.031 A 
ATOM     16  F   UNL     1       3.588  -0.619  -0.037  0.00  0.00    -0.203 F 
ENDBRANCH   1  14
BRANCH   6  17
ATOM     17  N   UNL     1       0.118  -6.592  -0.044  0.00  0.00    -0.267 N 
ATOM     18  H   UNL     1       1.066  -6.799  -0.050  0.00  0.00    +0.167 HD
BRANCH  17  19
ATOM     19  N   UNL     1      -0.801  -7.603  -0.045  0.00  0.00    -0.255 NA
ATOM     20  H   UNL     1      -1.437  -7.511  -0.823  0.00  0.00    +0.140 HD
ATOM     21  H   UNL     1      -0.347  -8.504  -0.054  0.00  0.00    +0.140 HD
ENDBRANCH  17  19
ENDBRANCH   6  17
TORSDOF 3
