REMARK  Name = ZINC39237777
REMARK  6 active torsions:
REMARK  status: ('A' for Active; 'I' for Inactive)
REMARK    1  A    between atoms: C_4  and  C_7
REMARK    2  A    between atoms: C_11  and  C_13
REMARK    3  A    between atoms: N_19  and  C_27
REMARK    4  A    between atoms: C_21  and  C_22
REMARK    5  A    between atoms: C_34  and  N_38
REMARK    6  A    between atoms: C_35  and  C_36
REMARK                            x       y       z     vdW  Elec       q    Type
REMARK                         _______ _______ _______ _____ _____    ______ ____
ROOT
ATOM      1  C   UNL     1       3.227  -2.610  -1.253  0.00  0.00    +0.063 C 
ATOM      2  C   UNL     1       1.815  -2.101  -1.280  0.00  0.00    +0.113 C 
ATOM      3  C   UNL     1       0.816  -2.958  -0.486  0.00  0.00    +0.294 C 
ATOM      4  N   UNL     1      -0.442  -2.590  -1.205  0.00  0.00    -0.185 N 
ATOM      5  N   UNL     1      -0.069  -2.300  -2.526  0.00  0.00    -0.177 NA
ATOM      6  C   UNL     1       1.183  -2.015  -2.638  0.00  0.00    +0.110 C 
ATOM      7  O   UNL     1       1.016  -4.348  -0.747  0.00  0.00    -0.455 OA
ATOM      8  C   UNL     1       2.231  -4.856  -0.960  0.00  0.00    +0.194 C 
ATOM      9  C   UNL     1       3.295  -4.109  -1.267  0.00  0.00    +0.091 C 
ENDROOT
BRANCH   4  10
ATOM     10  C   UNL     1      -1.729  -2.545  -0.670  0.00  0.00    +0.055 A 
ATOM     11  C   UNL     1      -1.938  -2.857   0.669  0.00  0.00    +0.025 A 
ATOM     12  C   UNL     1      -3.214  -2.810   1.195  0.00  0.00    +0.002 A 
ATOM     13  C   UNL     1      -4.283  -2.453   0.393  0.00  0.00    +0.000 A 
ATOM     14  C   UNL     1      -4.078  -2.142  -0.939  0.00  0.00    +0.002 A 
ATOM     15  C   UNL     1      -2.805  -2.181  -1.472  0.00  0.00    +0.025 A 
ENDBRANCH   4  10
BRANCH   1  20
ATOM     16  C   UNL     1       5.400  -2.403  -0.024  0.00  0.00    +0.080 C 
ATOM     17  N   UNL     1       5.627  -3.177   1.001  0.00  0.00    -0.153 NA
ATOM     18  N   UNL     1       4.470  -3.438   1.729  0.00  0.00    -0.161 NA
ATOM     19  C   UNL     1       3.429  -2.855   1.230  0.00  0.00    +0.118 C 
ATOM     20  C   UNL     1       3.916  -2.095   0.012  0.00  0.00    +0.092 C 
BRANCH  16  24
ATOM     21  C   UNL     1       8.232  -1.019  -2.862  0.00  0.00    +0.000 A 
ATOM     22  C   UNL     1       8.610  -1.950  -1.911  0.00  0.00    +0.001 A 
ATOM     23  C   UNL     1       7.695  -2.405  -0.985  0.00  0.00    +0.010 A 
ATOM     24  C   UNL     1       6.382  -1.922  -1.008  0.00  0.00    -0.001 A 
ATOM     25  C   UNL     1       6.008  -0.981  -1.973  0.00  0.00    +0.010 A 
ATOM     26  C   UNL     1       6.935  -0.536  -2.892  0.00  0.00    +0.001 A 
ENDBRANCH  16  24
ENDBRANCH   1  20
BRANCH   6  27
ATOM     27  C   UNL     1       1.861  -1.651  -3.886  0.00  0.00    +0.151 A 
ATOM     28  C   UNL     1       1.282  -1.568  -5.119  0.00  0.00    +0.051 A 
ATOM     29  C   UNL     1       2.297  -1.188  -6.018  0.00  0.00    +0.042 A 
ATOM     30  C   UNL     1       3.432  -1.059  -5.303  0.00  0.00    +0.196 A 
ATOM     31  O   UNL     1       3.165  -1.334  -4.015  0.00  0.00    -0.462 OA
ENDBRANCH   6  27
BRANCH   8  32
ATOM     32  N   UNL     1       2.389  -6.217  -0.898  0.00  0.00    -0.329 N 
ATOM     33  H   UNL     1       1.627  -6.785  -0.703  0.00  0.00    +0.145 HD
ATOM     34  H   UNL     1       3.262  -6.612  -1.048  0.00  0.00    +0.145 HD
ENDBRANCH   8  32
BRANCH   9  35
ATOM     35  C   UNL     1       4.535  -4.755  -1.578  0.00  0.00    +0.100 C 
ATOM     36  N   UNL     1       5.519  -5.266  -1.824  0.00  0.00    -0.191 NA
ENDBRANCH   9  35
TORSDOF 6
