REMARK  Name = ZINC29493542
REMARK  8 active torsions:
REMARK  status: ('A' for Active; 'I' for Inactive)
REMARK    1  A    between atoms: C_1  and  C_2
REMARK    2  A    between atoms: C_2  and  C_3
REMARK    3  A    between atoms: C_3  and  C_4
REMARK    4  A    between atoms: C_4  and  N_5
REMARK    5  A    between atoms: C_6  and  S_8
REMARK    6  A    between atoms: S_8  and  C_9
REMARK    7  A    between atoms: C_9  and  C_10
REMARK    8  A    between atoms: C_23  and  C_25
REMARK                            x       y       z     vdW  Elec       q    Type
REMARK                         _______ _______ _______ _____ _____    ______ ____
ROOT
ATOM      1  C   UNL     1      -2.528   3.775   6.898  0.00  0.00    +0.230 C 
ATOM      2  O   UNL     1      -3.106   3.144   7.758  0.00  0.00    -0.274 OA
ATOM      3  N   UNL     1      -2.460   5.119   6.979  0.00  0.00    -0.266 N 
ATOM      4  C   UNL     1      -1.791   5.861   5.997  0.00  0.00    +0.058 A 
ATOM      5  C   UNL     1      -0.407   5.851   5.925  0.00  0.00    +0.025 A 
ATOM      6  C   UNL     1       0.238   6.614   4.970  0.00  0.00    +0.002 A 
ATOM      7  C   UNL     1      -0.492   7.390   4.087  0.00  0.00    +0.002 A 
ATOM      8  C   UNL     1      -1.888   7.398   4.142  0.00  0.00    +0.025 A 
ATOM      9  C   UNL     1      -2.536   6.625   5.090  0.00  0.00    +0.055 A 
ATOM     10  N   UNL     1      -3.934   6.587   5.155  0.00  0.00    -0.284 N 
ATOM     11  C   UNL     1      -4.572   6.755   6.335  0.00  0.00    +0.219 C 
ATOM     12  O   UNL     1      -5.779   6.644   6.388  0.00  0.00    -0.275 OA
ATOM     13  C   UNL     1      -3.797   7.080   7.584  0.00  0.00    +0.118 C 
ATOM     14  C   UNL     1      -3.078   5.831   8.098  0.00  0.00    +0.087 C 
ATOM     15  C   UNL     1      -1.997   6.242   9.099  0.00  0.00    +0.029 C 
ATOM     16  H   UNL     1      -4.523   6.418   4.242  0.00  0.00    +0.155 HD
ENDROOT
BRANCH   1  17
ATOM     17  C   UNL     1      -1.886   3.057   5.739  0.00  0.00    +0.173 C 
BRANCH  17  18
ATOM     18  S   UNL     1      -2.147   1.275   5.914  0.00  0.00    -0.084 S 
BRANCH  18  20
ATOM     19  N   UNL     1      -0.752   1.552   3.660  0.00  0.00    -0.368 N 
ATOM     20  C   UNL     1      -1.319   0.701   4.469  0.00  0.00    +0.126 C 
ATOM     21  N   UNL     1      -1.269  -0.646   4.194  0.00  0.00    -0.339 N 
ATOM     22  H   UNL     1      -1.747  -1.365   4.876  0.00  0.00    +0.144 HD
ATOM     23  H   UNL     1      -0.751  -1.005   3.292  0.00  0.00    +0.144 HD
ATOM     24  H   UNL     1      -0.702   2.618   3.930  0.00  0.00    +0.161 HD
BRANCH  19  25
ATOM     25  C   UNL     1      -0.184   1.091   2.391  0.00  0.00    +0.114 C 
BRANCH  25  26
ATOM     26  C   UNL     1      -0.937   1.741   1.228  0.00  0.00    +0.021 C 
BRANCH  26  28
ATOM     27  C   UNL     1      -1.096   1.908  -1.259  0.00  0.00    +0.004 C 
ATOM     28  C   UNL     1      -0.343   1.259  -0.097  0.00  0.00    -0.002 C 
ENDBRANCH  26  28
ENDBRANCH  25  26
ENDBRANCH  19  25
ENDBRANCH  18  20
ENDBRANCH  17  18
ENDBRANCH   1  17
TORSDOF 6
