REMARK  Name = ZINC20130079
REMARK  12 active torsions:
REMARK  status: ('A' for Active; 'I' for Inactive)
REMARK    1  A    between atoms: C_1  and  C_2
REMARK    2  A    between atoms: C_4  and  S_26
REMARK    3  A    between atoms: C_5  and  C_24
REMARK    4  A    between atoms: C_6  and  C_15
REMARK    5  A    between atoms: C_9  and  O_11
REMARK    6  A    between atoms: O_11  and  C_12
REMARK    7  A    between atoms: C_12  and  C_13
REMARK    8  A    between atoms: C_18  and  O_23
REMARK    9  A    between atoms: C_19  and  O_21
REMARK   10  A    between atoms: O_21  and  C_22
REMARK   11  A    between atoms: S_26  and  C_27
REMARK   12  A    between atoms: C_27  and  C_28
REMARK                            x       y       z     vdW  Elec       q    Type
REMARK                         _______ _______ _______ _____ _____    ______ ____
ROOT
ATOM      1  C   UNL     1       0.025   1.503   0.006  0.00  0.00    +0.066 C 
ATOM      2  C   UNL     1       0.023  -0.004   0.000  0.00  0.00    +0.050 C 
ATOM      3  N   UNL     1      -0.074  -0.634  -1.144  0.00  0.00    -0.244 NA
ATOM      4  C   UNL     1      -0.087  -1.959  -1.295  0.00  0.00    +0.112 C 
ATOM      5  C   UNL     1       0.002  -2.823  -0.213  0.00  0.00    +0.073 C 
ATOM      6  C   UNL     1       0.118  -2.204   1.168  0.00  0.00    +0.101 C 
ATOM      7  C   UNL     1       0.130  -0.687   1.216  0.00  0.00    +0.070 C 
ATOM      8  C   UNL     1       0.235  -0.016   2.400  0.00  0.00    +0.338 C 
ATOM      9  O   UNL     1       0.458  -0.696   3.543  0.00  0.00    -0.245 OA
ENDROOT
BRANCH   6  10
ATOM     10  C   UNL     1      -1.038  -2.693   2.001  0.00  0.00    -0.031 A 
ATOM     11  C   UNL     1      -2.335  -2.434   1.601  0.00  0.00    +0.008 A 
ATOM     12  C   UNL     1      -3.399  -2.881   2.362  0.00  0.00    +0.049 A 
ATOM     13  C   UNL     1      -3.166  -3.590   3.529  0.00  0.00    +0.158 A 
ATOM     14  C   UNL     1      -1.860  -3.851   3.932  0.00  0.00    +0.162 A 
ATOM     15  C   UNL     1      -0.798  -3.405   3.162  0.00  0.00    +0.054 A 
BRANCH  14  16
ATOM     16  O   UNL     1      -1.627  -4.547   5.077  0.00  0.00    -0.491 OA
ATOM     17  C   UNL     1      -0.261  -4.778   5.429  0.00  0.00    +0.277 C 
ENDBRANCH  14  16
BRANCH  13  18
ATOM     18  O   UNL     1      -4.212  -4.030   4.279  0.00  0.00    -0.503 OA
ATOM     19  H   UNL     1      -4.524  -4.913   4.039  0.00  0.00    +0.292 HD
ENDBRANCH  13  18
ENDBRANCH   6  10
BRANCH   5  20
ATOM     20  C   UNL     1      -0.015  -4.244  -0.393  0.00  0.00    +0.098 C 
ATOM     21  N   UNL     1      -0.028  -5.371  -0.535  0.00  0.00    -0.191 NA
ENDBRANCH   5  20
BRANCH   8  22
ATOM     22  O   UNL     1       0.116   1.327   2.426  0.00  0.00    -0.457 OA
BRANCH  22  23
ATOM     23  C   UNL     1       0.237   1.964   3.700  0.00  0.00    +0.259 C 
BRANCH  23  24
ATOM     24  C   UNL     1       0.078   3.454   3.533  0.00  0.00    +0.006 C 
ATOM     25  C   UNL     1      -0.680   4.128   4.362  0.00  0.00    +0.007 C 
ENDBRANCH  23  24
ENDBRANCH  22  23
ENDBRANCH   8  22
BRANCH   4  26
ATOM     26  S   UNL     1      -0.224  -2.633  -2.917  0.00  0.00    -0.096 S 
BRANCH  26  27
ATOM     27  C   UNL     1      -0.313  -1.174  -3.992  0.00  0.00    +0.171 C 
BRANCH  27  28
ATOM     28  C   UNL     1      -0.434  -1.615  -5.428  0.00  0.00    +0.221 C 
ATOM     29  O   UNL     1      -0.457  -2.797  -5.699  0.00  0.00    -0.275 OA
ATOM     30  N   UNL     1      -0.515  -0.696  -6.410  0.00  0.00    -0.329 N 
ATOM     31  H   UNL     1      -0.496   0.249  -6.193  0.00  0.00    +0.145 HD
ATOM     32  H   UNL     1      -0.593  -0.980  -7.335  0.00  0.00    +0.145 HD
ENDBRANCH  27  28
ENDBRANCH  26  27
ENDBRANCH   4  26
TORSDOF 10
