REMARK  Name = ZINC45537393
REMARK  12 active torsions:
REMARK  status: ('A' for Active; 'I' for Inactive)
REMARK    1  A    between atoms: C_1  and  C_2
REMARK    2  A    between atoms: C_2  and  C_3
REMARK    3  A    between atoms: C_2  and  N_4
REMARK    4  A    between atoms: N_7  and  C_8
REMARK    5  A    between atoms: C_13  and  C_14
REMARK    6  A    between atoms: N_16  and  C_17
REMARK    7  A    between atoms: C_17  and  C_18
REMARK    8  A    between atoms: C_18  and  N_19
REMARK    9  A    between atoms: N_19  and  C_20
REMARK   10  A    between atoms: C_23  and  S_29
REMARK   11  A    between atoms: C_25  and  N_26
REMARK   12  A    between atoms: S_29  and  C_32
REMARK                            x       y       z     vdW  Elec       q    Type
REMARK                         _______ _______ _______ _____ _____    ______ ____
ROOT
ATOM      1  C   UNL     1      -5.609  -3.080  -0.745  0.00  0.00    +0.246 C 
ATOM      2  O   UNL     1      -5.418  -1.964  -0.303  0.00  0.00    -0.270 OA
ATOM      3  N   UNL     1      -6.850  -3.604  -0.738  0.00  0.00    -0.310 N 
ATOM      4  H   UNL     1      -7.003  -4.495  -1.091  0.00  0.00    +0.149 HD
ENDROOT
BRANCH   1  10
ATOM      5  C   UNL     1      -3.173  -3.362  -1.206  0.00  0.00    +0.047 A 
ATOM      6  C   UNL     1      -2.119  -4.109  -1.717  0.00  0.00    +0.024 A 
ATOM      7  C   UNL     1      -2.362  -5.332  -2.309  0.00  0.00    +0.002 A 
ATOM      8  C   UNL     1      -3.654  -5.824  -2.399  0.00  0.00    +0.001 A 
ATOM      9  C   UNL     1      -4.712  -5.097  -1.897  0.00  0.00    +0.015 A 
ATOM     10  C   UNL     1      -4.482  -3.860  -1.290  0.00  0.00    +0.058 A 
BRANCH   5  14
ATOM     11  N   UNL     1      -1.451  -0.636   0.410  0.00  0.00    -0.297 N 
ATOM     12  C   UNL     1      -1.727  -1.869  -0.060  0.00  0.00    +0.304 C 
ATOM     13  O   UNL     1      -0.889  -2.748   0.010  0.00  0.00    -0.253 OA
ATOM     14  N   UNL     1      -2.931  -2.128  -0.608  0.00  0.00    -0.269 N 
ATOM     15  H   UNL     1      -2.119   0.065   0.354  0.00  0.00    +0.151 HD
ATOM     16  H   UNL     1      -3.629  -1.455  -0.585  0.00  0.00    +0.156 HD
BRANCH  11  18
ATOM     17  C   UNL     1       0.162   1.139   0.885  0.00  0.00    +0.027 C 
ATOM     18  C   UNL     1      -0.143  -0.355   1.005  0.00  0.00    +0.068 C 
ATOM     19  C   UNL     1      -0.158  -0.755   2.482  0.00  0.00    +0.027 C 
ENDBRANCH  11  18
ENDBRANCH   5  14
ENDBRANCH   1  10
BRANCH   3  20
ATOM     20  C   UNL     1      -7.970  -2.829  -0.197  0.00  0.00    +0.123 C 
BRANCH  20  21
ATOM     21  C   UNL     1      -9.257  -3.648  -0.308  0.00  0.00    +0.120 C 
BRANCH  21  22
ATOM     22  N   UNL     1     -10.377  -2.873   0.233  0.00  0.00    -0.341 N 
ATOM     23  H   UNL     1     -10.225  -1.983   0.586  0.00  0.00    +0.146 HD
BRANCH  22  24
ATOM     24  C   UNL     1     -11.664  -3.417   0.240  0.00  0.00    +0.058 A 
ATOM     25  C   UNL     1     -11.903  -4.646  -0.360  0.00  0.00    +0.027 A 
ATOM     26  C   UNL     1     -13.176  -5.181  -0.351  0.00  0.00    +0.029 A 
ATOM     27  C   UNL     1     -14.212  -4.494   0.255  0.00  0.00    +0.090 A 
ATOM     28  C   UNL     1     -13.977  -3.269   0.853  0.00  0.00    +0.061 A 
ATOM     29  C   UNL     1     -12.705  -2.732   0.852  0.00  0.00    +0.149 A 
BRANCH  27  30
ATOM     30  S   UNL     1     -15.835  -5.180   0.265  0.00  0.00    -0.006 S 
ATOM     31  O   UNL     1     -16.702  -4.058   0.366  0.00  0.00    -0.170 OA
ATOM     32  O   UNL     1     -15.877  -6.027  -0.875  0.00  0.00    -0.170 OA
ATOM     33  C   UNL     1     -15.914  -6.169   1.783  0.00  0.00    +0.200 C 
ENDBRANCH  27  30
BRANCH  29  34
ATOM     34  N   UNL     1     -12.453  -1.424   1.498  0.00  0.00    +0.058 N 
ATOM     35  O   UNL     1     -11.351  -1.160   1.920  0.00  0.00    -0.126 OA
ATOM     36  O   UNL     1     -13.349  -0.619   1.604  0.00  0.00    -0.126 OA
ENDBRANCH  29  34
ENDBRANCH  22  24
ENDBRANCH  21  22
ENDBRANCH  20  21
ENDBRANCH   3  20
TORSDOF 9
