REMARK  Name = ZINC58293591
REMARK  5 active torsions:
REMARK  status: ('A' for Active; 'I' for Inactive)
REMARK    1  A    between atoms: C_7  and  N_13
REMARK    2  A    between atoms: N_16  and  C_17
REMARK    3  A    between atoms: C_17  and  C_18
REMARK    4  A    between atoms: C_18  and  N_19
REMARK    5  A    between atoms: C_20  and  C_22
REMARK                            x       y       z     vdW  Elec       q    Type
REMARK                         _______ _______ _______ _____ _____    ______ ____
ROOT
ATOM      1  N   UNL     1       2.122  -2.633   1.110  0.00  0.00    -0.292 N 
ATOM      2  C   UNL     1       1.675  -2.645   2.381  0.00  0.00    +0.300 C 
ATOM      3  O   UNL     1       0.541  -2.285   2.630  0.00  0.00    -0.253 OA
ATOM      4  N   UNL     1       2.486  -3.057   3.376  0.00  0.00    -0.298 N 
ATOM      5  H   UNL     1       3.027  -2.920   0.911  0.00  0.00    +0.151 HD
ATOM      6  H   UNL     1       3.391  -3.344   3.178  0.00  0.00    +0.150 HD
ENDROOT
BRANCH   1  13
ATOM      7  C   UNL     1       2.624   0.050  -2.690  0.00  0.00    +0.001 A 
ATOM      8  C   UNL     1       3.656  -0.727  -3.185  0.00  0.00    +0.004 A 
ATOM      9  C   UNL     1       3.894  -1.983  -2.661  0.00  0.00    +0.046 A 
ATOM     10  C   UNL     1       3.095  -2.461  -1.630  0.00  0.00    +0.125 A 
ATOM     11  C   UNL     1       2.077  -1.676  -1.131  0.00  0.00    +0.014 A 
ATOM     12  C   UNL     1       1.830  -0.426  -1.661  0.00  0.00    +0.009 A 
ATOM     13  C   UNL     1       1.241  -2.186   0.028  0.00  0.00    +0.108 C 
ATOM     14  C   UNL     1       0.389  -3.357  -0.461  0.00  0.00    +0.030 C 
ATOM     15  C   UNL     1       1.186  -4.653  -0.436  0.00  0.00    +0.043 C 
ATOM     16  C   UNL     1       2.316  -4.685  -1.445  0.00  0.00    +0.229 C 
ATOM     17  O   UNL     1       3.312  -3.707  -1.128  0.00  0.00    -0.492 OA
ENDBRANCH   1  13
BRANCH   4  18
ATOM     18  C   UNL     1       2.000  -3.070   4.758  0.00  0.00    +0.124 C 
BRANCH  18  19
ATOM     19  C   UNL     1       3.108  -3.575   5.684  0.00  0.00    +0.123 C 
BRANCH  19  20
ATOM     20  N   UNL     1       2.623  -3.588   7.066  0.00  0.00    -0.307 N 
ATOM     21  C   UNL     1       3.433  -4.000   8.061  0.00  0.00    +0.279 C 
ATOM     22  O   UNL     1       4.569  -4.360   7.812  0.00  0.00    -0.267 OA
ATOM     23  H   UNL     1       1.718  -3.301   7.264  0.00  0.00    +0.149 HD
BRANCH  21  24
ATOM     24  C   UNL     1       2.947  -4.013   9.445  0.00  0.00    +0.189 A 
ATOM     25  C   UNL     1       3.661  -4.399  10.543  0.00  0.00    +0.054 A 
ATOM     26  C   UNL     1       2.811  -4.251  11.649  0.00  0.00    +0.042 A 
ATOM     27  C   UNL     1       1.629  -3.788  11.185  0.00  0.00    +0.196 A 
ATOM     28  O   UNL     1       1.717  -3.641   9.856  0.00  0.00    -0.458 OA
ENDBRANCH  21  24
ENDBRANCH  19  20
ENDBRANCH  18  19
ENDBRANCH   4  18
TORSDOF 5
