REMARK  Name = ZINC13098282
REMARK  5 active torsions:
REMARK  status: ('A' for Active; 'I' for Inactive)
REMARK    1  A    between atoms: C_1  and  C_2
REMARK    2  A    between atoms: C_2  and  C_21
REMARK    3  A    between atoms: C_3  and  C_16
REMARK    4  A    between atoms: N_7  and  O_8
REMARK    5  A    between atoms: N_14  and  O_15
REMARK                            x       y       z     vdW  Elec       q    Type
REMARK                         _______ _______ _______ _____ _____    ______ ____
ROOT
ATOM      1  C   UNL     1      -0.281   1.495  -0.113  0.00  0.00    +0.037 C 
ATOM      2  C   UNL     1       0.002  -0.004   0.002  0.00  0.00    +0.088 C 
ATOM      3  C   UNL     1      -1.276  -0.763   0.283  0.00  0.00    +0.095 C 
ATOM      4  N   UNL     1      -1.061  -1.633   1.221  0.00  0.00    -0.138 N 
ATOM      5  O   UNL     1      -2.035  -2.519   1.741  0.00  0.00    -0.167 OA
ATOM      6  C   UNL     1       0.331  -1.568   1.666  0.00  0.00    +0.198 C 
ATOM      7  N   UNL     1       0.866  -0.280   1.178  0.00  0.00    -0.145 NA
ATOM      8  C   UNL     1       1.138  -2.724   1.078  0.00  0.00    +0.056 C 
ATOM      9  C   UNL     1       0.668  -4.041   1.700  0.00  0.00    +0.005 C 
ATOM     10  C   UNL     1       0.937  -4.027   3.206  0.00  0.00    +0.006 C 
ATOM     11  C   UNL     1       0.100  -2.925   3.865  0.00  0.00    +0.058 C 
ATOM     12  C   UNL     1       0.405  -1.614   3.172  0.00  0.00    +0.103 C 
ATOM     13  N   UNL     1       0.718  -0.573   3.846  0.00  0.00    -0.093 NA
ATOM     14  C   UNL     1       0.662  -0.521  -1.278  0.00  0.00    +0.037 C 
ENDROOT
BRANCH   3  15
ATOM     15  C   UNL     1      -2.558  -0.548  -0.397  0.00  0.00    +0.036 A 
ATOM     16  C   UNL     1      -3.769  -1.189  -0.200  0.00  0.00    +0.017 A 
ATOM     17  C   UNL     1      -4.842  -0.809  -0.969  0.00  0.00    +0.008 A 
ATOM     18  C   UNL     1      -4.684   0.176  -1.893  0.00  0.00    +0.046 A 
ATOM     19  S   UNL     1      -2.965   0.613  -1.691  0.00  0.00    -0.095 S 
ENDBRANCH   3  15
BRANCH   7  20
ATOM     20  O   UNL     1       0.721   0.766   2.191  0.00  0.00    -0.309 OA
ATOM     21  H   UNL     1       0.957   1.650   1.880  0.00  0.00    +0.237 HD
ENDBRANCH   7  20
BRANCH  13  22
ATOM     22  O   UNL     1       0.782  -0.637   5.259  0.00  0.00    -0.409 OA
ATOM     23  H   UNL     1       1.026   0.199   5.680  0.00  0.00    +0.328 HD
ENDBRANCH  13  22
TORSDOF 3
