REMARK  Name = ZINC60355942
REMARK  5 active torsions:
REMARK  status: ('A' for Active; 'I' for Inactive)
REMARK    1  A    between atoms: C_8  and  C_11
REMARK    2  A    between atoms: N_16  and  C_19
REMARK    3  A    between atoms: C_22  and  N_29
REMARK    4  A    between atoms: C_24  and  S_25
REMARK    5  A    between atoms: S_25  and  N_28
REMARK                            x       y       z     vdW  Elec       q    Type
REMARK                         _______ _______ _______ _____ _____    ______ ____
ROOT
ATOM      1  C   UNL     1       3.717  -2.753   0.044  0.00  0.00    +0.263 C 
ATOM      2  O   UNL     1       3.064  -3.777   0.095  0.00  0.00    -0.268 OA
ATOM      3  N   UNL     1       5.057  -2.814  -0.088  0.00  0.00    -0.293 N 
ATOM      4  C   UNL     1       5.875  -1.597   0.010  0.00  0.00    +0.127 C 
ATOM      5  C   UNL     1       6.940  -1.808   1.092  0.00  0.00    +0.124 C 
ATOM      6  N   UNL     1       7.610  -3.093   0.848  0.00  0.00    -0.325 N 
ATOM      7  C   UNL     1       6.792  -4.311   0.750  0.00  0.00    +0.124 C 
ATOM      8  C   UNL     1       5.727  -4.100  -0.327  0.00  0.00    +0.127 C 
ENDROOT
BRANCH   1  16
ATOM      9  C   UNL     1       0.550   2.328   0.799  0.00  0.00    +0.001 A 
ATOM     10  C   UNL     1       1.477   2.844  -0.098  0.00  0.00    +0.002 A 
ATOM     11  C   UNL     1       2.477   2.048  -0.610  0.00  0.00    +0.026 A 
ATOM     12  C   UNL     1       2.563   0.713  -0.226  0.00  0.00    +0.047 A 
ATOM     13  C   UNL     1       1.622   0.192   0.684  0.00  0.00    +0.000 A 
ATOM     14  C   UNL     1       0.614   1.022   1.190  0.00  0.00    +0.010 A 
ATOM     15  C   UNL     1       1.953  -1.170   0.886  0.00  0.00    +0.040 A 
ATOM     16  C   UNL     1       3.045  -1.447   0.127  0.00  0.00    +0.103 A 
ATOM     17  N   UNL     1       3.425  -0.307  -0.555  0.00  0.00    -0.351 N 
ATOM     18  H   UNL     1       4.175  -0.237  -1.165  0.00  0.00    +0.166 HD
ENDBRANCH   1  16
BRANCH   6  19
ATOM     19  C   UNL     1       8.998  -3.157   0.711  0.00  0.00    +0.057 A 
ATOM     20  C   UNL     1       9.584  -2.969  -0.535  0.00  0.00    +0.027 A 
ATOM     21  C   UNL     1      10.957  -3.032  -0.667  0.00  0.00    +0.034 A 
ATOM     22  C   UNL     1      11.749  -3.281   0.439  0.00  0.00    +0.128 A 
ATOM     23  C   UNL     1      11.169  -3.469   1.680  0.00  0.00    +0.063 A 
ATOM     24  C   UNL     1       9.797  -3.402   1.820  0.00  0.00    +0.128 A 
BRANCH  24  25
ATOM     25  S   UNL     1       9.060  -3.634   3.404  0.00  0.00    +0.058 S 
ATOM     26  O   UNL     1       8.020  -4.587   3.232  0.00  0.00    -0.153 OA
ATOM     27  O   UNL     1      10.125  -3.827   4.324  0.00  0.00    -0.153 OA
BRANCH  25  28
ATOM     28  N   UNL     1       8.330  -2.206   3.818  0.00  0.00    -0.203 NA
ATOM     29  H   UNL     1       7.586  -2.205   4.440  0.00  0.00    +0.144 HD
ATOM     30  H   UNL     1       8.646  -1.372   3.438  0.00  0.00    +0.144 HD
ENDBRANCH  25  28
ENDBRANCH  24  25
BRANCH  22  31
ATOM     31  N   UNL     1      13.221  -3.348   0.294  0.00  0.00    +0.056 N 
ATOM     32  O   UNL     1      13.729  -3.185  -0.791  0.00  0.00    -0.126 OA
ATOM     33  O   UNL     1      13.914  -3.566   1.260  0.00  0.00    -0.126 OA
ENDBRANCH  22  31
ENDBRANCH   6  19
TORSDOF 5
