REMARK  Name = ZINC39607079
REMARK  8 active torsions:
REMARK  status: ('A' for Active; 'I' for Inactive)
REMARK    1  A    between atoms: C_1  and  C_2
REMARK    2  A    between atoms: C_5  and  C_9
REMARK    3  A    between atoms: C_6  and  C_8
REMARK    4  A    between atoms: C_9  and  N_10
REMARK    5  A    between atoms: C_11  and  C_13
REMARK    6  A    between atoms: C_24  and  C_26
REMARK    7  A    between atoms: C_26  and  O_27
REMARK    8  A    between atoms: O_27  and  C_28
REMARK                            x       y       z     vdW  Elec       q    Type
REMARK                         _______ _______ _______ _____ _____    ______ ____
ROOT
ATOM      1  C   UNL     1      -2.909  -6.633   0.512  0.00  0.00    +0.100 C 
ATOM      2  C   UNL     1      -3.887  -6.094  -0.557  0.00  0.00    +0.121 C 
ATOM      3  N   UNL     1      -3.942  -7.160  -1.585  0.00  0.00    -0.297 N 
ATOM      4  C   UNL     1      -3.935  -8.422  -0.808  0.00  0.00    +0.115 C 
ATOM      5  C   UNL     1      -2.946  -8.161   0.346  0.00  0.00    -0.004 C 
ATOM      6  C   UNL     1      -3.445  -8.820   1.629  0.00  0.00    -0.010 C 
ATOM      7  C   UNL     1      -3.417 -10.341   1.460  0.00  0.00    -0.082 C 
ATOM      8  N   UNL     1      -2.048 -10.778   1.163  0.00  0.00    +0.379 N 
ATOM      9  C   UNL     1      -1.610 -10.214  -0.120  0.00  0.00    -0.082 C 
ATOM     10  C   UNL     1      -1.561  -8.687  -0.018  0.00  0.00    -0.010 C 
ATOM     11  C   UNL     1      -3.990  -7.014  -2.924  0.00  0.00    +0.253 C 
ATOM     12  O   UNL     1      -4.032  -7.993  -3.639  0.00  0.00    -0.272 OA
ATOM     13  H   UNL     1      -1.430 -10.463   1.896  0.00  0.00    -0.086 HD
ATOM     14  H   UNL     1      -2.021 -11.785   1.112  0.00  0.00    -0.086 HD
ENDROOT
BRANCH   1  16
ATOM     15  N   UNL     1      -0.669  -5.931   1.291  0.00  0.00    -0.311 N 
ATOM     16  C   UNL     1      -1.518  -6.111   0.260  0.00  0.00    +0.218 C 
ATOM     17  O   UNL     1      -1.162  -5.853  -0.871  0.00  0.00    -0.275 OA
ATOM     18  H   UNL     1      -0.954  -6.137   2.195  0.00  0.00    +0.149 HD
BRANCH  15  19
ATOM     19  C   UNL     1       0.683  -5.423   1.047  0.00  0.00    +0.139 C 
BRANCH  19  24
ATOM     20  C   UNL     1       3.517  -5.005   6.065  0.00  0.00    +0.044 C 
ATOM     21  C   UNL     1       2.778  -5.114   4.756  0.00  0.00    -0.050 A 
ATOM     22  C   UNL     1       2.216  -3.988   4.184  0.00  0.00    +0.004 A 
ATOM     23  C   UNL     1       1.539  -4.088   2.983  0.00  0.00    +0.006 A 
ATOM     24  C   UNL     1       1.423  -5.314   2.355  0.00  0.00    -0.027 A 
ATOM     25  C   UNL     1       1.985  -6.440   2.927  0.00  0.00    -0.046 A 
ATOM     26  C   UNL     1       2.667  -6.339   4.126  0.00  0.00    +0.007 A 
ATOM     27  C   UNL     1       1.859  -7.776   2.242  0.00  0.00    +0.044 C 
ENDBRANCH  19  24
ENDBRANCH  15  19
ENDBRANCH   1  16
BRANCH  11  28
ATOM     28  C   UNL     1      -3.990  -5.636  -3.532  0.00  0.00    +0.324 C 
BRANCH  28  29
ATOM     29  O   UNL     1      -4.044  -5.743  -4.956  0.00  0.00    -0.483 OA
BRANCH  29  30
ATOM     30  C   UNL     1      -4.051  -4.583  -5.663  0.00  0.00    +0.123 A 
ATOM     31  C   UNL     1      -4.001  -3.365  -5.000  0.00  0.00    +0.046 A 
ATOM     32  C   UNL     1      -4.007  -2.186  -5.720  0.00  0.00    +0.005 A 
ATOM     33  C   UNL     1      -4.064  -2.218  -7.101  0.00  0.00    +0.020 A 
ATOM     34  C   UNL     1      -4.115  -3.431  -7.765  0.00  0.00    +0.044 A 
ATOM     35  C   UNL     1      -4.103  -4.614  -7.049  0.00  0.00    +0.065 A 
ATOM     36 CL   UNL     1      -4.188  -3.468  -9.499  0.00  0.00    -0.083 Cl
ENDBRANCH  29  30
ENDBRANCH  28  29
ENDBRANCH  11  28
TORSDOF 6
