REMARK  Name = ZINC20207552
REMARK  8 active torsions:
REMARK  status: ('A' for Active; 'I' for Inactive)
REMARK    1  A    between atoms: C_1  and  C_2
REMARK    2  A    between atoms: C_6  and  O_8
REMARK    3  A    between atoms: O_8  and  C_9
REMARK    4  A    between atoms: C_9  and  C_10
REMARK    5  A    between atoms: C_10  and  N_11
REMARK    6  A    between atoms: C_13  and  C_20
REMARK    7  A    between atoms: C_30  and  S_32
REMARK    8  A    between atoms: S_32  and  C_35
REMARK                            x       y       z     vdW  Elec       q    Type
REMARK                         _______ _______ _______ _____ _____    ______ ____
ROOT
ATOM      1  N   UNL     1       0.085  -6.277   3.771  0.00  0.00    -0.343 N 
ATOM      2  C   UNL     1      -1.002  -7.073   3.810  0.00  0.00    +0.095 A 
ATOM      3  C   UNL     1      -0.626  -8.380   3.568  0.00  0.00    +0.001 A 
ATOM      4  C   UNL     1       0.836  -8.356   3.364  0.00  0.00    +0.007 A 
ATOM      5  C   UNL     1       1.220  -7.013   3.498  0.00  0.00    +0.050 A 
ATOM      6  C   UNL     1       2.560  -6.670   3.350  0.00  0.00    +0.026 A 
ATOM      7  C   UNL     1       3.494  -7.645   3.072  0.00  0.00    +0.002 A 
ATOM      8  C   UNL     1       3.111  -8.971   2.937  0.00  0.00    +0.001 A 
ATOM      9  C   UNL     1       1.789  -9.332   3.088  0.00  0.00    +0.010 A 
ENDROOT
BRANCH   3  10
ATOM     10  C   UNL     1      -1.471  -9.512   3.524  0.00  0.00    +0.026 C 
ATOM     11  C   UNL     1      -2.795  -9.373   3.149  0.00  0.00    +0.081 C 
ATOM     12  C   UNL     1      -3.329  -8.088   2.620  0.00  0.00    +0.153 C 
ATOM     13  N   UNL     1      -2.618  -7.257   1.901  0.00  0.00    -0.283 NA
ATOM     14  N   UNL     1      -4.676  -7.854   2.969  0.00  0.00    -0.150 N 
ATOM     15  C   UNL     1      -5.452  -8.951   3.278  0.00  0.00    +0.182 C 
ATOM     16  N   UNL     1      -5.066 -10.198   3.381  0.00  0.00    -0.152 NA
ATOM     17  C   UNL     1      -3.756 -10.496   3.246  0.00  0.00    +0.273 C 
ATOM     18  O   UNL     1      -3.373 -11.655   3.210  0.00  0.00    -0.268 OA
ATOM     19  S   UNL     1      -7.051  -8.220   3.510  0.00  0.00    -0.015 S 
ATOM     20  C   UNL     1      -6.564  -6.515   3.283  0.00  0.00    +0.235 C 
ATOM     21  N   UNL     1      -5.294  -6.623   3.019  0.00  0.00    -0.145 NA
ATOM     22  H   UNL     1      -2.994  -6.404   1.635  0.00  0.00    +0.188 HD
BRANCH  20  23
ATOM     23  S   UNL     1      -7.552  -5.060   3.390  0.00  0.00    +0.019 S 
ATOM     24  O   UNL     1      -8.550  -5.369   4.353  0.00  0.00    -0.168 OA
ATOM     25  O   UNL     1      -6.624  -4.008   3.621  0.00  0.00    -0.168 OA
ATOM     26  C   UNL     1      -8.301  -4.883   1.748  0.00  0.00    +0.202 C 
ENDBRANCH  20  23
ENDBRANCH   3  10
BRANCH   1  27
ATOM     27  C   UNL     1       0.063  -4.827   3.982  0.00  0.00    +0.163 C 
BRANCH  27  28
ATOM     28  C   UNL     1      -0.027  -4.115   2.631  0.00  0.00    +0.250 C 
BRANCH  28  29
ATOM     29  O   UNL     1      -0.048  -2.702   2.838  0.00  0.00    -0.490 OA
BRANCH  29  35
ATOM     30  C   UNL     1      -0.259   1.759   0.869  0.00  0.00    +0.044 C 
ATOM     31  C   UNL     1      -0.232   0.259   0.731  0.00  0.00    -0.047 A 
ATOM     32  C   UNL     1      -0.287  -0.321  -0.523  0.00  0.00    +0.003 A 
ATOM     33  C   UNL     1      -0.262  -1.697  -0.652  0.00  0.00    +0.004 A 
ATOM     34  C   UNL     1      -0.182  -2.497   0.471  0.00  0.00    +0.045 A 
ATOM     35  C   UNL     1      -0.127  -1.917   1.731  0.00  0.00    +0.121 A 
ATOM     36  C   UNL     1      -0.146  -0.536   1.858  0.00  0.00    +0.049 A 
ENDBRANCH  29  35
ENDBRANCH  28  29
ENDBRANCH  27  28
ENDBRANCH   1  27
TORSDOF 6
