REMARK  Name = ZINC39994085
REMARK  9 active torsions:
REMARK  status: ('A' for Active; 'I' for Inactive)
REMARK    1  A    between atoms: C_1  and  C_2
REMARK    2  A    between atoms: C_7  and  N_8
REMARK    3  A    between atoms: C_9  and  C_11
REMARK    4  A    between atoms: C_11  and  C_35
REMARK    5  A    between atoms: C_12  and  C_13
REMARK    6  A    between atoms: C_14  and  N_25
REMARK    7  A    between atoms: C_17  and  C_24
REMARK    8  A    between atoms: C_27  and  C_34
REMARK    9  A    between atoms: C_30  and  C_33
REMARK                            x       y       z     vdW  Elec       q    Type
REMARK                         _______ _______ _______ _____ _____    ______ ____
ROOT
ATOM      1  C   UNL     1      -0.290   0.414   7.021  0.00  0.00    +0.081 A 
ATOM      2  C   UNL     1      -0.318  -0.121   8.334  0.00  0.00    +0.136 A 
ATOM      3  N   UNL     1      -0.308   0.701   9.372  0.00  0.00    -0.213 NA
ATOM      4  C   UNL     1      -0.272   2.026   9.218  0.00  0.00    +0.145 A 
ATOM      5  C   UNL     1      -0.263   2.846  10.360  0.00  0.00    -0.007 A 
ATOM      6  C   UNL     1      -0.226   4.201  10.215  0.00  0.00    +0.008 A 
ATOM      7  C   UNL     1      -0.197   4.758   8.930  0.00  0.00    +0.019 A 
ATOM      8  C   UNL     1      -0.207   3.954   7.843  0.00  0.00    +0.096 A 
ATOM      9  N   UNL     1      -0.242   2.598   7.978  0.00  0.00    -0.267 N 
ATOM     10  C   UNL     1      -0.246   1.824   6.870  0.00  0.00    +0.267 A 
ATOM     11  O   UNL     1      -0.216   2.329   5.762  0.00  0.00    -0.267 OA
ATOM     12  C   UNL     1      -0.294   2.231  11.736  0.00  0.00    +0.047 C 
ENDROOT
BRANCH   2  13
ATOM     13  N   UNL     1      -0.357  -1.482   8.528  0.00  0.00    -0.310 N 
ATOM     14  C   UNL     1      -1.201  -2.075   9.578  0.00  0.00    +0.138 C 
ATOM     15  C   UNL     1      -0.340  -3.034  10.408  0.00  0.00    +0.133 C 
ATOM     16  O   UNL     1       0.321  -3.950   9.532  0.00  0.00    -0.371 OA
ATOM     17  C   UNL     1       1.226  -3.333   8.614  0.00  0.00    +0.133 C 
ATOM     18  C   UNL     1       0.441  -2.390   7.688  0.00  0.00    +0.138 C 
ATOM     19  C   UNL     1       1.918  -4.410   7.776  0.00  0.00    +0.039 C 
ATOM     20  C   UNL     1      -1.231  -3.807  11.382  0.00  0.00    +0.039 C 
ENDBRANCH   2  13
BRANCH   1  22
ATOM     21  C   UNL     1       0.758  -0.402   4.998  0.00  0.00    +0.114 C 
ATOM     22  C   UNL     1      -0.299  -0.431   5.898  0.00  0.00    +0.040 C 
BRANCH  21  24
ATOM     23  N   UNL     1       1.710  -1.147   2.881  0.00  0.00    -0.281 N 
ATOM     24  C   UNL     1       0.684  -1.176   3.755  0.00  0.00    +0.259 C 
ATOM     25  O   UNL     1      -0.304  -1.844   3.512  0.00  0.00    -0.269 OA
ATOM     26  H   UNL     1       2.527  -0.675   3.107  0.00  0.00    +0.155 HD
BRANCH  23  33
ATOM     27  C   UNL     1       3.023  -0.002   0.631  0.00  0.00    +0.045 C 
ATOM     28  C   UNL     1       2.222  -1.274   0.525  0.00  0.00    -0.029 A 
ATOM     29  C   UNL     1       2.114  -1.924  -0.689  0.00  0.00    +0.005 A 
ATOM     30  C   UNL     1       1.381  -3.091  -0.788  0.00  0.00    +0.000 A 
ATOM     31  C   UNL     1       0.753  -3.613   0.329  0.00  0.00    +0.002 A 
ATOM     32  C   UNL     1       0.857  -2.969   1.546  0.00  0.00    +0.023 A 
ATOM     33  C   UNL     1       1.598  -1.799   1.649  0.00  0.00    +0.037 A 
ENDBRANCH  23  33
ENDBRANCH  21  24
BRANCH  21  34
ATOM     34  C   UNL     1       1.920   0.385   5.284  0.00  0.00    +0.104 C 
ATOM     35  N   UNL     1       2.842   1.008   5.511  0.00  0.00    -0.191 NA
ENDBRANCH  21  34
ENDBRANCH   1  22
TORSDOF 5
