REMARK  Name = ZINC09782034
REMARK  4 active torsions:
REMARK  status: ('A' for Active; 'I' for Inactive)
REMARK    1  A    between atoms: C_4  and  C_7
REMARK    2  A    between atoms: C_8  and  C_17
REMARK    3  A    between atoms: C_17  and  C_19
REMARK    4  A    between atoms: C_19  and  N_20
REMARK                            x       y       z     vdW  Elec       q    Type
REMARK                         _______ _______ _______ _____ _____    ______ ____
ROOT
ATOM      1  C   UNL     1       1.850   5.634   1.762  0.00  0.00    +0.183 C 
ATOM      2  O   UNL     1       0.740   5.180   1.953  0.00  0.00    -0.290 OA
ENDROOT
BRANCH   1   4
ATOM      3  C   UNL     1       2.417   3.937   0.001  0.00  0.00    +0.058 A 
ATOM      4  C   UNL     1       2.701   5.040   0.803  0.00  0.00    +0.052 A 
ATOM      5  C   UNL     1       4.070   5.462   0.451  0.00  0.00    +0.011 A 
ATOM      6  C   UNL     1       4.907   6.483   0.896  0.00  0.00    +0.011 A 
ATOM      7  C   UNL     1       6.164   6.622   0.350  0.00  0.00    +0.001 A 
ATOM      8  C   UNL     1       6.597   5.751  -0.639  0.00  0.00    +0.002 A 
ATOM      9  C   UNL     1       5.780   4.736  -1.088  0.00  0.00    +0.026 A 
ATOM     10  C   UNL     1       4.506   4.579  -0.549  0.00  0.00    +0.048 A 
ATOM     11  N   UNL     1       3.490   3.676  -0.795  0.00  0.00    -0.354 N 
ATOM     12  H   UNL     1       3.535   2.957  -1.445  0.00  0.00    +0.166 HD
BRANCH   3  16
ATOM     13  C   UNL     1      -1.221   1.750   0.017  0.00  0.00    +0.000 A 
ATOM     14  C   UNL     1      -0.013   1.076   0.008  0.00  0.00    +0.001 A 
ATOM     15  C   UNL     1       1.173   1.780   0.000  0.00  0.00    +0.010 A 
ATOM     16  C   UNL     1       1.152   3.177   0.008  0.00  0.00    -0.001 A 
ATOM     17  C   UNL     1      -0.072   3.850   0.023  0.00  0.00    +0.010 A 
ATOM     18  C   UNL     1      -1.250   3.133   0.031  0.00  0.00    +0.001 A 
ENDBRANCH   3  16
ENDBRANCH   1   4
BRANCH   1  19
ATOM     19  C   UNL     1       2.320   6.832   2.547  0.00  0.00    +0.197 C 
BRANCH  19  20
ATOM     20  N   UNL     1       1.263   7.256   3.468  0.00  0.00    -0.216 N 
ATOM     21  C   UNL     1       0.307   8.157   3.162  0.00  0.00    +0.252 C 
ATOM     22  O   UNL     1       0.164   8.748   2.113  0.00  0.00    -0.272 OA
ATOM     23  C   UNL     1      -0.550   8.274   4.401  0.00  0.00    +0.144 C 
ATOM     24  C   UNL     1      -1.983   7.842   4.105  0.00  0.00    +0.081 C 
ATOM     25  C   UNL     1      -2.671   8.964   3.315  0.00  0.00    +0.232 C 
ATOM     26  O   UNL     1      -2.736  10.126   4.142  0.00  0.00    -0.492 OA
ATOM     27  C   UNL     1      -1.600  10.531   4.768  0.00  0.00    +0.126 A 
ATOM     28  C   UNL     1      -0.516   9.681   4.926  0.00  0.00    +0.027 A 
ATOM     29  C   UNL     1       0.620  10.131   5.577  0.00  0.00    +0.010 A 
ATOM     30  C   UNL     1       0.680  11.422   6.064  0.00  0.00    +0.001 A 
ATOM     31  C   UNL     1      -0.398  12.273   5.904  0.00  0.00    +0.004 A 
ATOM     32  C   UNL     1      -1.534  11.830   5.258  0.00  0.00    +0.046 A 
ATOM     33  N   UNL     1       0.077   7.352   5.357  0.00  0.00    -0.281 N 
ATOM     34  C   UNL     1       1.130   6.803   4.721  0.00  0.00    +0.310 C 
ATOM     35  O   UNL     1       1.875   5.988   5.228  0.00  0.00    -0.252 OA
ATOM     36  H   UNL     1      -0.210   7.174   6.266  0.00  0.00    +0.152 HD
ENDBRANCH  19  20
ENDBRANCH   1  19
TORSDOF 4
