REMARK  Name = ZINC06921259
REMARK  3 active torsions:
REMARK  status: ('A' for Active; 'I' for Inactive)
REMARK    1  A    between atoms: C_7  and  C_19
REMARK    2  A    between atoms: C_7  and  O_27
REMARK    3  A    between atoms: N_8  and  C_12
REMARK                            x       y       z     vdW  Elec       q    Type
REMARK                         _______ _______ _______ _____ _____    ______ ____
ROOT
ATOM      1  C   UNL     1       0.861  -0.506   3.584  0.00  0.00    +0.001 A 
ATOM      2  C   UNL     1       1.657  -1.633   3.480  0.00  0.00    +0.002 A 
ATOM      3  C   UNL     1       1.934  -2.180   2.243  0.00  0.00    +0.024 A 
ATOM      4  C   UNL     1       1.411  -1.596   1.096  0.00  0.00    +0.043 A 
ATOM      5  C   UNL     1       0.612  -0.464   1.210  0.00  0.00    +0.033 A 
ATOM      6  C   UNL     1       0.337   0.080   2.444  0.00  0.00    +0.010 A 
ATOM      7  C   UNL     1       0.059   0.146  -0.057  0.00  0.00    +0.247 C 
ATOM      8  N   UNL     1       0.414  -0.515  -1.325  0.00  0.00    -0.214 N 
ATOM      9  C   UNL     1       1.196  -1.609  -1.297  0.00  0.00    +0.314 C 
ATOM     10  O   UNL     1       1.482  -2.145  -2.350  0.00  0.00    -0.252 OA
ATOM     11  N   UNL     1       1.678  -2.134  -0.163  0.00  0.00    -0.269 N 
ATOM     12  H   UNL     1       2.238  -2.924  -0.219  0.00  0.00    +0.156 HD
ENDROOT
BRANCH   7  13
ATOM     13  C   UNL     1       0.531   1.575  -0.130  0.00  0.00    +0.272 C 
ATOM     14  O   UNL     1      -0.275   2.476  -0.231  0.00  0.00    -0.270 OA
ATOM     15  N   UNL     1       1.850   1.852  -0.088  0.00  0.00    -0.293 N 
ATOM     16  C   UNL     1       2.851   0.774  -0.081  0.00  0.00    +0.136 C 
ATOM     17  C   UNL     1       3.887   1.074  -1.175  0.00  0.00    +0.179 C 
ATOM     18  O   UNL     1       4.385   2.402  -0.998  0.00  0.00    -0.377 OA
ATOM     19  C   UNL     1       3.393   3.422  -1.134  0.00  0.00    +0.179 C 
ATOM     20  C   UNL     1       2.331   3.242  -0.043  0.00  0.00    +0.136 C 
ENDBRANCH   7  13
BRANCH   8  21
ATOM     21  C   UNL     1      -0.058  -0.012  -2.543  0.00  0.00    +0.041 A 
ATOM     22  C   UNL     1      -1.409  -0.091  -2.851  0.00  0.00    +0.025 A 
ATOM     23  C   UNL     1      -1.873   0.410  -4.051  0.00  0.00    +0.022 A 
ATOM     24  C   UNL     1      -0.990   0.981  -4.952  0.00  0.00    +0.041 A 
ATOM     25  C   UNL     1       0.358   1.056  -4.649  0.00  0.00    +0.022 A 
ATOM     26  C   UNL     1       0.826   0.562  -3.448  0.00  0.00    +0.025 A 
ATOM     27 CL   UNL     1      -1.576   1.604  -6.463  0.00  0.00    -0.084 Cl
ENDBRANCH   8  21
BRANCH   7  28
ATOM     28  O   UNL     1      -1.366   0.162   0.046  0.00  0.00    -0.360 OA
ATOM     29  H   UNL     1      -1.698   0.628   0.826  0.00  0.00    +0.213 HD
ENDBRANCH   7  28
TORSDOF 3
