REMARK  Name = ZINC25719235
REMARK  5 active torsions:
REMARK  status: ('A' for Active; 'I' for Inactive)
REMARK    1  A    between atoms: C_11  and  C_27
REMARK    2  A    between atoms: C_14  and  S_22
REMARK    3  A    between atoms: C_18  and  N_20
REMARK    4  A    between atoms: S_22  and  C_23
REMARK    5  A    between atoms: C_23  and  C_24
REMARK                            x       y       z     vdW  Elec       q    Type
REMARK                         _______ _______ _______ _____ _____    ______ ____
ROOT
ATOM      1  C   UNL     1      -2.729   8.405   0.738  0.00  0.00    +0.000 A 
ATOM      2  C   UNL     1      -1.457   7.958   0.431  0.00  0.00    +0.002 A 
ATOM      3  C   UNL     1      -1.227   6.617   0.207  0.00  0.00    +0.024 A 
ATOM      4  C   UNL     1      -2.276   5.699   0.293  0.00  0.00    +0.038 A 
ATOM      5  C   UNL     1      -3.549   6.158   0.596  0.00  0.00    -0.025 A 
ATOM      6  C   UNL     1      -3.774   7.503   0.820  0.00  0.00    +0.005 A 
ATOM      7  C   UNL     1      -4.493   4.977   0.621  0.00  0.00    +0.056 C 
ATOM      8  C   UNL     1      -3.606   3.767   0.286  0.00  0.00    +0.117 C 
ATOM      9  N   UNL     1      -2.260   4.316   0.099  0.00  0.00    -0.284 N 
ATOM     10  C   UNL     1      -1.138   3.573  -0.218  0.00  0.00    +0.146 A 
ATOM     11  C   UNL     1      -1.251   2.181  -0.367  0.00  0.00    +0.100 A 
ATOM     12  C   UNL     1      -0.040   1.436  -0.707  0.00  0.00    +0.012 A 
ATOM     13  C   UNL     1      -0.022   0.053  -0.886  0.00  0.00    +0.045 A 
ATOM     14  C   UNL     1       1.182  -0.558  -1.201  0.00  0.00    +0.100 A 
ATOM     15  N   UNL     1       2.304   0.145  -1.334  0.00  0.00    -0.225 NA
ATOM     16  C   UNL     1       2.346   1.457  -1.176  0.00  0.00    +0.129 A 
ATOM     17  C   UNL     1       1.171   2.162  -0.855  0.00  0.00    +0.063 A 
ATOM     18  C   UNL     1       1.151   3.558  -0.673  0.00  0.00    +0.129 A 
ATOM     19  N   UNL     1       0.028   4.187  -0.371  0.00  0.00    -0.215 NA
ATOM     20  N   UNL     1       3.541   2.135  -1.327  0.00  0.00    -0.343 N 
ATOM     21  H   UNL     1       3.575   3.227  -1.195  0.00  0.00    +0.144 HD
ATOM     22  H   UNL     1       4.459   1.583  -1.578  0.00  0.00    +0.144 HD
ENDROOT
BRANCH  18  23
ATOM     23  N   UNL     1       2.317   4.280  -0.812  0.00  0.00    -0.343 N 
ATOM     24  H   UNL     1       2.310   5.371  -0.672  0.00  0.00    +0.144 HD
ATOM     25  H   UNL     1       3.256   3.764  -1.064  0.00  0.00    +0.144 HD
ENDBRANCH  18  23
BRANCH  11  26
ATOM     26  C   UNL     1      -2.508   1.516  -0.197  0.00  0.00    +0.103 C 
ATOM     27  N   UNL     1      -3.505   0.989  -0.062  0.00  0.00    -0.191 NA
ENDBRANCH  11  26
BRANCH  14  28
ATOM     28  S   UNL     1       1.227  -2.304  -1.432  0.00  0.00    -0.094 S 
BRANCH  28  29
ATOM     29  C   UNL     1       2.965  -2.651  -1.819  0.00  0.00    +0.200 C 
BRANCH  29  30
ATOM     30  C   UNL     1       3.144  -4.130  -2.042  0.00  0.00    +0.366 C 
ATOM     31  O   UNL     1       2.197  -4.874  -1.950  0.00  0.00    -0.245 OA
ATOM     32  O   UNL     1       4.356  -4.621  -2.344  0.00  0.00    -0.245 OA
ENDBRANCH  29  30
ENDBRANCH  28  29
ENDBRANCH  14  28
TORSDOF 5
