REMARK  Name = ZINC50649162
REMARK  6 active torsions:
REMARK  status: ('A' for Active; 'I' for Inactive)
REMARK    1  A    between atoms: C_1  and  C_2
REMARK    2  A    between atoms: C_7  and  N_8
REMARK    3  A    between atoms: N_8  and  S_9
REMARK    4  A    between atoms: S_9  and  C_12
REMARK    5  A    between atoms: C_17  and  N_18
REMARK    6  A    between atoms: N_18  and  C_19
REMARK                            x       y       z     vdW  Elec       q    Type
REMARK                         _______ _______ _______ _____ _____    ______ ____
ROOT
ATOM      1  S   UNL     1       0.768  -0.677   3.767  0.00  0.00    +0.074 S 
ATOM      2  O   UNL     1       0.549   0.100   4.936  0.00  0.00    -0.150 OA
ATOM      3  O   UNL     1       0.368  -2.037   3.669  0.00  0.00    -0.150 OA
ENDROOT
BRANCH   1   4
ATOM      4  C   UNL     1       2.502  -0.639   3.455  0.00  0.00    +0.129 A 
ATOM      5  C   UNL     1       3.190  -1.815   3.228  0.00  0.00    +0.031 A 
ATOM      6  C   UNL     1       4.550  -1.786   2.983  0.00  0.00    +0.002 A 
ATOM      7  C   UNL     1       5.227  -0.579   2.964  0.00  0.00    +0.002 A 
ATOM      8  C   UNL     1       4.545   0.600   3.190  0.00  0.00    +0.025 A 
ATOM      9  C   UNL     1       3.177   0.575   3.430  0.00  0.00    +0.054 A 
BRANCH   9  10
ATOM     10  N   UNL     1       2.484   1.766   3.654  0.00  0.00    -0.345 N 
ATOM     11  C   UNL     1       3.214   3.033   3.748  0.00  0.00    +0.125 C 
ATOM     12  H   UNL     1       1.518   1.756   3.746  0.00  0.00    +0.146 HD
ENDBRANCH   9  10
ENDBRANCH   1   4
BRANCH   1  13
ATOM     13  N   UNL     1       0.028   0.124   2.521  0.00  0.00    -0.216 N 
ATOM     14  H   UNL     1      -0.509   0.911   2.701  0.00  0.00    +0.174 HD
BRANCH  13  21
ATOM     15  C   UNL     1       0.161   2.053   0.434  0.00  0.00    +0.046 C 
ATOM     16  C   UNL     1       0.248   0.574   0.159  0.00  0.00    -0.025 A 
ATOM     17  C   UNL     1       0.401   0.119  -1.136  0.00  0.00    +0.043 A 
ATOM     18  C   UNL     1       0.481  -1.240  -1.390  0.00  0.00    +0.124 A 
ATOM     19  C   UNL     1       0.407  -2.146  -0.345  0.00  0.00    +0.040 A 
ATOM     20  C   UNL     1       0.252  -1.696   0.951  0.00  0.00    +0.027 A 
ATOM     21  C   UNL     1       0.178  -0.334   1.208  0.00  0.00    +0.051 A 
ATOM     22  F   UNL     1       0.632  -1.682  -2.657  0.00  0.00    -0.205 F 
ENDBRANCH  13  21
ENDBRANCH   1  13
TORSDOF 4
