REMARK  Name = ZINC47235301
REMARK  7 active torsions:
REMARK  status: ('A' for Active; 'I' for Inactive)
REMARK    1  A    between atoms: C_1  and  C_2
REMARK    2  A    between atoms: C_2  and  C_3
REMARK    3  A    between atoms: C_4  and  C_12
REMARK    4  A    between atoms: C_13  and  C_14
REMARK    5  A    between atoms: N_16  and  C_17
REMARK    6  A    between atoms: N_20  and  C_22
REMARK    7  A    between atoms: C_22  and  C_23
REMARK                            x       y       z     vdW  Elec       q    Type
REMARK                         _______ _______ _______ _____ _____    ______ ____
ROOT
ATOM      1  C   UNL     1      -3.284  -1.577   3.696  0.00  0.00    +0.241 C 
ATOM      2  O   UNL     1      -3.885  -0.547   3.450  0.00  0.00    -0.270 OA
ATOM      3  N   UNL     1      -3.925  -2.606   4.286  0.00  0.00    -0.279 N 
ATOM      4  H   UNL     1      -3.447  -3.427   4.482  0.00  0.00    +0.155 HD
ENDROOT
BRANCH   3   5
ATOM      5  C   UNL     1      -5.287  -2.489   4.618  0.00  0.00    +0.072 A 
ATOM      6  C   UNL     1      -6.100  -1.369   4.389  0.00  0.00    +0.157 A 
ATOM      7  N   UNL     1      -7.302  -1.635   4.833  0.00  0.00    -0.177 NA
ATOM      8  N   UNL     1      -7.301  -2.933   5.360  0.00  0.00    -0.261 N 
ATOM      9  C   UNL     1      -6.050  -3.442   5.212  0.00  0.00    +0.132 A 
BRANCH   8  10
ATOM     10  C   UNL     1      -8.446  -3.620   5.960  0.00  0.00    +0.238 C 
BRANCH  10  11
ATOM     11  C   UNL     1      -9.013  -2.776   7.073  0.00  0.00    +0.232 C 
ATOM     12  O   UNL     1      -8.509  -1.705   7.338  0.00  0.00    -0.274 OA
ATOM     13  N   UNL     1     -10.079  -3.211   7.773  0.00  0.00    -0.328 N 
ATOM     14  H   UNL     1     -10.482  -4.067   7.561  0.00  0.00    +0.145 HD
ATOM     15  H   UNL     1     -10.444  -2.668   8.489  0.00  0.00    +0.145 HD
ENDBRANCH  10  11
ENDBRANCH   8  10
ENDBRANCH   3   5
BRANCH   1  17
ATOM     16  C   UNL     1      -1.270  -0.662   2.769  0.00  0.00    +0.017 C 
ATOM     17  C   UNL     1      -1.913  -1.695   3.362  0.00  0.00    +0.068 C 
BRANCH  16  19
ATOM     18  C   UNL     1       0.731  -0.503   1.223  0.00  0.00    +0.113 A 
ATOM     19  C   UNL     1       0.149  -0.784   2.423  0.00  0.00    +0.024 A 
ATOM     20  C   UNL     1       1.246  -1.236   3.303  0.00  0.00    +0.028 A 
ATOM     21  C   UNL     1       1.317  -1.661   4.626  0.00  0.00    +0.012 A 
ATOM     22  C   UNL     1       2.535  -2.024   5.161  0.00  0.00    +0.001 A 
ATOM     23  C   UNL     1       3.683  -1.967   4.385  0.00  0.00    +0.004 A 
ATOM     24  C   UNL     1       3.624  -1.548   3.073  0.00  0.00    +0.047 A 
ATOM     25  C   UNL     1       2.405  -1.178   2.516  0.00  0.00    +0.136 A 
ATOM     26  O   UNL     1       2.047  -0.743   1.290  0.00  0.00    -0.459 OA
BRANCH  18  28
ATOM     27  C   UNL     1      -0.019   1.526   0.010  0.00  0.00    +0.012 C 
ATOM     28  C   UNL     1       0.002  -0.004   0.002  0.00  0.00    +0.071 C 
ENDBRANCH  18  28
ENDBRANCH  16  19
ENDBRANCH   1  17
TORSDOF 6
