REMARK  Name = ZINC09647428
REMARK  8 active torsions:
REMARK  status: ('A' for Active; 'I' for Inactive)
REMARK    1  A    between atoms: C_1  and  C_2
REMARK    2  A    between atoms: C_6  and  C_11
REMARK    3  A    between atoms: N_17  and  C_18
REMARK    4  A    between atoms: C_18  and  C_19
REMARK    5  A    between atoms: C_19  and  C_20
REMARK    6  A    between atoms: C_20  and  C_21
REMARK    7  A    between atoms: C_22  and  C_28
REMARK    8  A    between atoms: C_23  and  N_27
REMARK                            x       y       z     vdW  Elec       q    Type
REMARK                         _______ _______ _______ _____ _____    ______ ____
ROOT
ATOM      1  C   UNL     1      -0.522   1.233   0.097  0.00  0.00    +0.088 C 
ATOM      2  C   UNL     1      -0.256  -0.251   0.106  0.00  0.00    +0.129 A 
ATOM      3  N   UNL     1      -0.249  -0.913  -1.037  0.00  0.00    -0.217 NA
ATOM      4  C   UNL     1      -0.022  -2.215  -1.094  0.00  0.00    +0.131 A 
ATOM      5  C   UNL     1       0.225  -2.930   0.109  0.00  0.00    +0.055 A 
ATOM      6  C   UNL     1       0.499  -4.349   0.309  0.00  0.00    +0.002 A 
ATOM      7  C   UNL     1       0.704  -4.801   1.568  0.00  0.00    +0.056 A 
ATOM      8  S   UNL     1       0.539  -3.335   2.569  0.00  0.00    -0.076 S 
ATOM      9  C   UNL     1       0.202  -2.157   1.288  0.00  0.00    +0.114 A 
ATOM     10  N   UNL     1      -0.029  -0.859   1.254  0.00  0.00    -0.225 NA
ATOM     11  N   UNL     1      -0.024  -2.873  -2.311  0.00  0.00    -0.328 N 
ATOM     12  H   UNL     1       0.054  -3.840  -2.340  0.00  0.00    +0.147 HD
ENDROOT
BRANCH   6  13
ATOM     13  C   UNL     1       0.551  -5.278  -0.845  0.00  0.00    -0.017 A 
ATOM     14  C   UNL     1       1.478  -5.074  -1.866  0.00  0.00    +0.008 A 
ATOM     15  C   UNL     1       1.523  -5.942  -2.938  0.00  0.00    +0.001 A 
ATOM     16  C   UNL     1       0.649  -7.013  -3.000  0.00  0.00    +0.000 A 
ATOM     17  C   UNL     1      -0.272  -7.221  -1.990  0.00  0.00    +0.001 A 
ATOM     18  C   UNL     1      -0.322  -6.363  -0.910  0.00  0.00    +0.008 A 
ENDBRANCH   6  13
BRANCH  11  19
ATOM     19  C   UNL     1      -0.144  -2.111  -3.556  0.00  0.00    +0.103 C 
BRANCH  19  20
ATOM     20  C   UNL     1      -0.120  -3.071  -4.747  0.00  0.00    +0.025 C 
BRANCH  20  21
ATOM     21  C   UNL     1      -0.245  -2.274  -6.047  0.00  0.00    +0.060 C 
BRANCH  21  22
ATOM     22  C   UNL     1      -0.222  -3.220  -7.220  0.00  0.00    +0.082 A 
ATOM     23  C   UNL     1       0.932  -3.651  -7.915  0.00  0.00    +0.113 A 
ATOM     24  C   UNL     1       0.504  -4.513  -8.921  0.00  0.00    +0.129 A 
ATOM     25  N   UNL     1      -0.840  -4.592  -8.830  0.00  0.00    -0.263 N 
ATOM     26  H   UNL     1      -1.417  -5.121  -9.403  0.00  0.00    +0.190 HD
ATOM     27  N   UNL     1      -1.261  -3.787  -7.766  0.00  0.00    -0.176 NA
BRANCH  24  28
ATOM     28  N   UNL     1       1.304  -5.165  -9.839  0.00  0.00    -0.342 N 
ATOM     29  H   UNL     1       2.266  -5.040  -9.819  0.00  0.00    +0.144 HD
ATOM     30  H   UNL     1       0.904  -5.748 -10.504  0.00  0.00    +0.144 HD
ENDBRANCH  24  28
BRANCH  23  31
ATOM     31  C   UNL     1       2.285  -3.272  -7.636  0.00  0.00    +0.104 C 
ATOM     32  N   UNL     1       3.358  -2.972  -7.416  0.00  0.00    -0.191 NA
ENDBRANCH  23  31
ENDBRANCH  21  22
ENDBRANCH  20  21
ENDBRANCH  19  20
ENDBRANCH  11  19
TORSDOF 7
