REMARK  Name = ZINC09238575
REMARK  8 active torsions:
REMARK  status: ('A' for Active; 'I' for Inactive)
REMARK    1  A    between atoms: C_1  and  C_2
REMARK    2  A    between atoms: C_4  and  C_32
REMARK    3  A    between atoms: C_6  and  N_8
REMARK    4  A    between atoms: C_9  and  C_11
REMARK    5  A    between atoms: C_13  and  C_23
REMARK    6  A    between atoms: C_17  and  C_22
REMARK    7  A    between atoms: C_26  and  O_30
REMARK    8  A    between atoms: O_30  and  C_31
REMARK                            x       y       z     vdW  Elec       q    Type
REMARK                         _______ _______ _______ _____ _____    ______ ____
ROOT
ATOM      1  C   UNL     1      -1.472  -1.189  -1.377  0.00  0.00    +0.166 C 
ATOM      2  C   UNL     1      -0.943  -0.793   0.008  0.00  0.00    +0.140 C 
ATOM      3  N   UNL     1      -0.829  -1.971   0.869  0.00  0.00    -0.272 N 
ATOM      4  N   UNL     1      -2.006  -2.621   1.063  0.00  0.00    -0.225 N 
ATOM      5  C   UNL     1      -2.334  -3.463   2.087  0.00  0.00    +0.148 A 
ATOM      6  N   UNL     1      -3.554  -3.875   1.875  0.00  0.00    -0.132 NA
ATOM      7  N   UNL     1      -4.018  -3.350   0.794  0.00  0.00    -0.121 NA
ATOM      8  C   UNL     1      -3.114  -2.572   0.266  0.00  0.00    +0.209 A 
ATOM      9  S   UNL     1      -3.235  -1.599  -1.202  0.00  0.00    -0.069 S 
ATOM     10  C   UNL     1      -1.451  -3.844   3.247  0.00  0.00    +0.090 C 
ATOM     11  H   UNL     1      -0.120  -2.602   0.526  0.00  0.00    +0.167 HD
ENDROOT
BRANCH   2  12
ATOM     12  C   UNL     1       0.414  -0.153  -0.142  0.00  0.00    -0.023 A 
ATOM     13  C   UNL     1       0.532   1.224  -0.133  0.00  0.00    +0.009 A 
ATOM     14  C   UNL     1       1.774   1.814  -0.270  0.00  0.00    +0.047 A 
ATOM     15  C   UNL     1       2.903   1.023  -0.418  0.00  0.00    +0.138 A 
ATOM     16  C   UNL     1       2.783  -0.360  -0.428  0.00  0.00    +0.083 A 
ATOM     17  C   UNL     1       1.538  -0.945  -0.289  0.00  0.00    +0.029 A 
ATOM     18 CL   UNL     1       4.194  -1.354  -0.613  0.00  0.00    -0.080 Cl
BRANCH  15  19
ATOM     19  O   UNL     1       4.126   1.601  -0.554  0.00  0.00    -0.494 OA
ATOM     20  C   UNL     1       4.175   3.029  -0.535  0.00  0.00    +0.277 C 
ENDBRANCH  15  19
ENDBRANCH   2  12
BRANCH   1  22
ATOM     21  N   UNL     1      -1.117  -0.274  -3.647  0.00  0.00    -0.285 N 
ATOM     22  C   UNL     1      -1.309  -0.037  -2.334  0.00  0.00    +0.233 C 
ATOM     23  O   UNL     1      -1.351   1.103  -1.923  0.00  0.00    -0.274 OA
ATOM     24  H   UNL     1      -1.007  -1.184  -3.965  0.00  0.00    +0.155 HD
BRANCH  21  30
ATOM     25  C   UNL     1       0.676   1.709  -7.773  0.00  0.00    +0.044 C 
ATOM     26  C   UNL     1      -0.215   1.780  -6.560  0.00  0.00    -0.048 A 
ATOM     27  C   UNL     1      -0.994   2.902  -6.340  0.00  0.00    +0.006 A 
ATOM     28  C   UNL     1      -1.813   2.972  -5.228  0.00  0.00    -0.048 A 
ATOM     29  C   UNL     1      -1.855   1.921  -4.333  0.00  0.00    +0.026 A 
ATOM     30  C   UNL     1      -1.075   0.793  -4.552  0.00  0.00    +0.034 A 
ATOM     31  C   UNL     1      -0.250   0.728  -5.667  0.00  0.00    +0.026 A 
ATOM     32  C   UNL     1      -2.659   4.196  -4.992  0.00  0.00    +0.044 C 
ENDBRANCH  21  30
ENDBRANCH   1  22
TORSDOF 4
