REMARK  Name = ZINC06887774
REMARK  7 active torsions:
REMARK  status: ('A' for Active; 'I' for Inactive)
REMARK    1  A    between atoms: C_1  and  C_2
REMARK    2  A    between atoms: C_2  and  C_3
REMARK    3  A    between atoms: C_6  and  N_9
REMARK    4  A    between atoms: N_9  and  S_10
REMARK    5  A    between atoms: S_10  and  C_13
REMARK    6  A    between atoms: C_16  and  C_18
REMARK    7  A    between atoms: C_20  and  C_23
REMARK                            x       y       z     vdW  Elec       q    Type
REMARK                         _______ _______ _______ _____ _____    ______ ____
ROOT
ATOM      1  S   UNL     1      -1.501   3.271   1.126  0.00  0.00    +0.079 S 
ATOM      2  O   UNL     1      -2.842   3.705   0.948  0.00  0.00    -0.149 OA
ATOM      3  O   UNL     1      -1.015   2.786   2.370  0.00  0.00    -0.149 OA
ENDROOT
BRANCH   1   4
ATOM      4  C   UNL     1      -0.470   4.628   0.677  0.00  0.00    +0.146 A 
ATOM      5  C   UNL     1      -0.773   5.717  -0.077  0.00  0.00    +0.037 A 
ATOM      6  C   UNL     1       0.192   6.670  -0.302  0.00  0.00    +0.021 A 
ATOM      7  C   UNL     1       1.448   6.476   0.244  0.00  0.00    +0.059 A 
ATOM      8  S   UNL     1       1.242   4.920   1.093  0.00  0.00    -0.065 S 
BRANCH   7   9
ATOM      9  C   UNL     1       2.641   7.330   0.150  0.00  0.00    +0.174 A 
ATOM     10  C   UNL     1       3.871   7.095   0.712  0.00  0.00    +0.076 A 
ATOM     11  C   UNL     1       4.640   8.207   0.319  0.00  0.00    +0.081 A 
ATOM     12  N   UNL     1       3.860   8.966  -0.398  0.00  0.00    -0.083 NA
ATOM     13  O   UNL     1       2.751   8.498  -0.510  0.00  0.00    -0.354 OA
ATOM     14  C   UNL     1       6.084   8.468   0.662  0.00  0.00    +0.069 C 
ENDBRANCH   7   9
ENDBRANCH   1   4
BRANCH   1  15
ATOM     15  N   UNL     1      -1.240   2.071   0.015  0.00  0.00    -0.216 N 
ATOM     16  H   UNL     1      -1.960   1.785  -0.568  0.00  0.00    +0.174 HD
BRANCH  15  20
ATOM     17  C   UNL     1       2.503   0.270  -0.278  0.00  0.00    -0.048 A 
ATOM     18  C   UNL     1       1.669  -0.040   0.781  0.00  0.00    +0.005 A 
ATOM     19  C   UNL     1       0.428   0.557   0.882  0.00  0.00    +0.025 A 
ATOM     20  C   UNL     1       0.017   1.470  -0.081  0.00  0.00    +0.048 A 
ATOM     21  C   UNL     1       0.857   1.779  -1.143  0.00  0.00    +0.025 A 
ATOM     22  C   UNL     1       2.097   1.179  -1.238  0.00  0.00    +0.005 A 
BRANCH  17  24
ATOM     23  C   UNL     1       3.736  -1.677  -1.192  0.00  0.00    +0.009 C 
ATOM     24  C   UNL     1       3.857  -0.383  -0.385  0.00  0.00    +0.032 C 
ENDBRANCH  17  24
ENDBRANCH  15  20
ENDBRANCH   1  15
TORSDOF 5
