REMARK  Name = ZINC29327699
REMARK  4 active torsions:
REMARK  status: ('A' for Active; 'I' for Inactive)
REMARK    1  A    between atoms: C_3  and  C_6
REMARK    2  A    between atoms: N_8  and  N_9
REMARK    3  A    between atoms: N_12  and  C_13
REMARK    4  A    between atoms: C_13  and  C_14
REMARK                            x       y       z     vdW  Elec       q    Type
REMARK                         _______ _______ _______ _____ _____    ______ ____
ROOT
ATOM      1  N   UNL     1       6.046   1.141  -0.050  0.00  0.00    -0.218 N 
ATOM      2  C   UNL     1       7.024   0.214  -0.064  0.00  0.00    +0.316 C 
ATOM      3  O   UNL     1       8.190   0.560  -0.073  0.00  0.00    -0.251 OA
ATOM      4  N   UNL     1       6.710  -1.096  -0.068  0.00  0.00    -0.294 N 
ATOM      5  H   UNL     1       6.272   2.085  -0.047  0.00  0.00    +0.174 HD
ATOM      6  H   UNL     1       5.780  -1.372  -0.060  0.00  0.00    +0.151 HD
ENDROOT
BRANCH   1   9
ATOM      7  C   UNL     1       3.725   1.670  -0.025  0.00  0.00    +0.267 C 
ATOM      8  O   UNL     1       4.008   2.853  -0.021  0.00  0.00    -0.268 OA
ATOM      9  N   UNL     1       4.703   0.743  -0.039  0.00  0.00    -0.229 N 
ATOM     10  H   UNL     1       4.477  -0.201  -0.042  0.00  0.00    +0.173 HD
BRANCH   7  13
ATOM     11  C   UNL     1      -0.016   1.352   0.009  0.00  0.00    +0.008 A 
ATOM     12  C   UNL     1       1.175   2.036   0.002  0.00  0.00    +0.021 A 
ATOM     13  C   UNL     1       2.320   1.253  -0.013  0.00  0.00    +0.075 A 
ATOM     14  S   UNL     1       1.636  -0.394  -0.016  0.00  0.00    -0.092 S 
ATOM     15  C   UNL     1       0.002  -0.004   0.002  0.00  0.00    +0.046 A 
ENDBRANCH   7  13
ENDBRANCH   1   9
BRANCH   4  16
ATOM     16  C   UNL     1       7.773  -2.104  -0.084  0.00  0.00    +0.141 C 
BRANCH  16  17
ATOM     17  C   UNL     1       7.160  -3.481  -0.085  0.00  0.00    -0.026 A 
ATOM     18  C   UNL     1       6.878  -4.134   1.108  0.00  0.00    +0.023 A 
ATOM     19  C   UNL     1       6.316  -5.394   1.072  0.00  0.00    +0.084 A 
ATOM     20  N   UNL     1       6.046  -5.982  -0.078  0.00  0.00    -0.350 N 
ATOM     21  C   UNL     1       6.301  -5.393  -1.236  0.00  0.00    +0.099 A 
ATOM     22  C   UNL     1       6.861  -4.120  -1.274  0.00  0.00    +0.047 A 
ATOM     23  N   UNL     1       6.001  -6.050  -2.423  0.00  0.00    -0.317 N 
ATOM     24  C   UNL     1       6.234  -5.524  -3.776  0.00  0.00    +0.106 C 
ATOM     25  C   UNL     1       5.723  -6.584  -4.775  0.00  0.00    +0.020 C 
ATOM     26  C   UNL     1       4.715  -7.403  -3.926  0.00  0.00    +0.020 C 
ATOM     27  C   UNL     1       5.402  -7.393  -2.535  0.00  0.00    +0.106 C 
ATOM     28  H   UNL     1       5.651  -6.868  -0.074  0.00  0.00    +0.166 HD
ENDBRANCH  16  17
ENDBRANCH   4  16
TORSDOF 4
