REMARK  Name = ZINC21540080
REMARK  7 active torsions:
REMARK  status: ('A' for Active; 'I' for Inactive)
REMARK    1  A    between atoms: C_1  and  C_2
REMARK    2  A    between atoms: C_2  and  C_17
REMARK    3  A    between atoms: N_15  and  C_16
REMARK    4  A    between atoms: N_19  and  C_20
REMARK    5  A    between atoms: C_20  and  C_21
REMARK    6  A    between atoms: N_23  and  C_24
REMARK    7  A    between atoms: C_24  and  C_25
REMARK                            x       y       z     vdW  Elec       q    Type
REMARK                         _______ _______ _______ _____ _____    ______ ____
ROOT
ATOM      1  C   UNL     1       6.276   4.560   0.366  0.00  0.00    +0.043 C 
ATOM      2  C   UNL     1       5.583   3.226   0.651  0.00  0.00    +0.128 C 
ATOM      3  C   UNL     1       4.226   3.216  -0.052  0.00  0.00    +0.157 C 
ATOM      4  N   UNL     1       3.680   1.855  -0.026  0.00  0.00    -0.334 N 
ATOM      5  C   UNL     1       2.380   1.437  -0.012  0.00  0.00    +0.050 A 
ATOM      6  C   UNL     1       1.157   2.103   0.002  0.00  0.00    +0.026 A 
ATOM      7  C   UNL     1      -0.017   1.385   0.010  0.00  0.00    +0.002 A 
ATOM      8  C   UNL     1       0.002  -0.004   0.002  0.00  0.00    +0.001 A 
ATOM      9  C   UNL     1       1.186  -0.681  -0.012  0.00  0.00    +0.010 A 
ATOM     10  C   UNL     1       2.395   0.025  -0.017  0.00  0.00    +0.001 A 
ATOM     11  C   UNL     1       3.756  -0.378  -0.027  0.00  0.00    +0.041 A 
ATOM     12  C   UNL     1       4.510   0.735  -0.016  0.00  0.00    +0.106 A 
ATOM     13  C   UNL     1       5.977   0.891  -0.015  0.00  0.00    +0.264 C 
ATOM     14  O   UNL     1       6.722  -0.051  -0.204  0.00  0.00    -0.268 OA
ATOM     15  N   UNL     1       6.450   2.140   0.208  0.00  0.00    -0.284 N 
ATOM     16  C   UNL     1       7.875   2.409  -0.001  0.00  0.00    +0.133 C 
ENDROOT
BRANCH   2  17
ATOM     17  C   UNL     1       5.363   3.099   2.136  0.00  0.00    +0.239 C 
ATOM     18  O   UNL     1       4.293   3.405   2.619  0.00  0.00    -0.273 OA
ATOM     19  N   UNL     1       6.355   2.646   2.928  0.00  0.00    -0.305 N 
ATOM     20  H   UNL     1       7.325   2.369   2.490  0.00  0.00    +0.149 HD
BRANCH  19  21
ATOM     21  C   UNL     1       6.141   2.523   4.372  0.00  0.00    +0.200 C 
BRANCH  21  22
ATOM     22  C   UNL     1       7.395   1.998   5.022  0.00  0.00    +0.231 C 
ATOM     23  O   UNL     1       8.371   1.751   4.346  0.00  0.00    -0.274 OA
ATOM     24  N   UNL     1       7.432   1.803   6.356  0.00  0.00    -0.307 N 
ATOM     25  H   UNL     1       6.546   2.027   6.969  0.00  0.00    +0.149 HD
BRANCH  24  26
ATOM     26  C   UNL     1       8.651   1.293   6.988  0.00  0.00    +0.178 C 
BRANCH  26  27
ATOM     27  C   UNL     1       8.431   1.166   8.473  0.00  0.00    +0.122 A 
ATOM     28  C   UNL     1       7.956   0.080   9.108  0.00  0.00    +0.046 A 
ATOM     29  C   UNL     1       7.915   0.395  10.486  0.00  0.00    +0.041 A 
ATOM     30  C   UNL     1       8.360   1.659  10.609  0.00  0.00    +0.195 A 
ATOM     31  O   UNL     1       8.671   2.120   9.387  0.00  0.00    -0.466 OA
ENDBRANCH  26  27
ENDBRANCH  24  26
ENDBRANCH  21  22
ENDBRANCH  19  21
ENDBRANCH   2  17
TORSDOF 5
