REMARK  Name = ZINC40565499
REMARK  9 active torsions:
REMARK  status: ('A' for Active; 'I' for Inactive)
REMARK    1  A    between atoms: C_1  and  C_2
REMARK    2  A    between atoms: N_17  and  C_18
REMARK    3  A    between atoms: C_26  and  C_41
REMARK    4  A    between atoms: C_29  and  O_40
REMARK    5  A    between atoms: C_32  and  C_39
REMARK    6  A    between atoms: C_33  and  C_34
REMARK    7  A    between atoms: C_33  and  O_38
REMARK    8  A    between atoms: C_34  and  C_36
REMARK    9  A    between atoms: C_36  and  O_37
REMARK                            x       y       z     vdW  Elec       q    Type
REMARK                         _______ _______ _______ _____ _____    ______ ____
ROOT
ATOM      1  C   UNL     1       0.234   1.715   0.277  0.00  0.00    +0.011 C 
ATOM      2  C   UNL     1       0.148   0.209   0.020  0.00  0.00    +0.026 C 
ATOM      3  C   UNL     1      -1.322  -0.226  -0.146  0.00  0.00    +0.011 C 
ATOM      4  C   UNL     1      -1.391  -1.593   0.544  0.00  0.00    +0.002 C 
ATOM      5  C   UNL     1      -2.776  -2.027   0.927  0.00  0.00    -0.001 C 
ATOM      6  C   UNL     1      -3.715  -2.041  -0.265  0.00  0.00    +0.008 C 
ATOM      7  C   UNL     1      -4.884  -1.081  -0.124  0.00  0.00    +0.031 C 
ATOM      8  C   UNL     1      -4.461   0.153   0.637  0.00  0.00    -0.061 C 
ATOM      9  C   UNL     1      -4.603   1.346   0.059  0.00  0.00    +0.028 C 
ATOM     10  C   UNL     1      -4.190   2.533   0.822  0.00  0.00    +0.071 A 
ATOM     11  C   UNL     1      -3.398   2.397   1.957  0.00  0.00    -0.001 A 
ATOM     12  C   UNL     1      -3.187   3.659   2.477  0.00  0.00    +0.139 A 
ATOM     13  N   UNL     1      -3.790   4.535   1.705  0.00  0.00    -0.174 NA
ATOM     14  N   UNL     1      -4.414   3.852   0.646  0.00  0.00    -0.231 N 
ATOM     15  C   UNL     1      -2.900   1.048   2.409  0.00  0.00    +0.050 C 
ATOM     16  C   UNL     1      -3.918  -0.022   2.030  0.00  0.00    -0.001 C 
ATOM     17  C   UNL     1      -3.342  -1.423   2.182  0.00  0.00    +0.031 C 
ATOM     18  C   UNL     1      -2.351  -1.508   3.337  0.00  0.00    +0.119 C 
ATOM     19  C   UNL     1      -0.972  -0.989   2.982  0.00  0.00    +0.041 C 
ATOM     20  C   UNL     1      -0.386  -1.551   1.697  0.00  0.00    +0.009 C 
ATOM     21  C   UNL     1       0.717  -0.571   1.216  0.00  0.00    +0.134 C 
ATOM     22  C   UNL     1       0.226  -2.946   1.939  0.00  0.00    +0.015 C 
ATOM     23  C   UNL     1      -5.111   0.104   3.001  0.00  0.00    +0.016 C 
ENDROOT
BRANCH  14  24
ATOM     24  C   UNL     1      -5.137   4.439  -0.402  0.00  0.00    +0.084 A 
ATOM     25  C   UNL     1      -5.904   5.581  -0.177  0.00  0.00    +0.034 A 
ATOM     26  C   UNL     1      -6.600   6.126  -1.242  0.00  0.00    +0.061 A 
ATOM     27  C   UNL     1      -6.512   5.523  -2.487  0.00  0.00    +0.213 A 
ATOM     28  N   UNL     1      -5.777   4.441  -2.665  0.00  0.00    -0.225 NA
ATOM     29  C   UNL     1      -5.094   3.895  -1.677  0.00  0.00    +0.141 A 
ATOM     30  F   UNL     1      -7.189   6.049  -3.531  0.00  0.00    -0.184 F 
ENDBRANCH  14  24
BRANCH  21  31
ATOM     31  C   UNL     1       1.934  -1.354   0.780  0.00  0.00    +0.190 C 
ATOM     32  O   UNL     1       1.998  -1.794  -0.343  0.00  0.00    -0.292 OA
BRANCH  31  33
ATOM     33  C   UNL     1       3.066  -1.585   1.746  0.00  0.00    +0.233 C 
BRANCH  33  34
ATOM     34  O   UNL     1       4.092  -2.345   1.105  0.00  0.00    -0.387 OA
ATOM     35  H   UNL     1       4.855  -2.532   1.669  0.00  0.00    +0.210 HD
ENDBRANCH  33  34
ENDBRANCH  31  33
ENDBRANCH  21  31
BRANCH  21  36
ATOM     36  O   UNL     1       1.084   0.329   2.263  0.00  0.00    -0.380 OA
ATOM     37  H   UNL     1       1.772   0.962   2.015  0.00  0.00    +0.211 HD
ENDBRANCH  21  36
BRANCH  18  38
ATOM     38  O   UNL     1      -2.260  -2.866   3.792  0.00  0.00    -0.391 OA
ATOM     39  H   UNL     1      -1.645  -2.994   4.528  0.00  0.00    +0.210 HD
ENDBRANCH  18  38
TORSDOF 6
