REMARK  Name = ZINC47500991
REMARK  8 active torsions:
REMARK  status: ('A' for Active; 'I' for Inactive)
REMARK    1  A    between atoms: C_1  and  C_2
REMARK    2  A    between atoms: C_2  and  C_3
REMARK    3  A    between atoms: C_2  and  N_9
REMARK    4  A    between atoms: C_3  and  N_4
REMARK    5  A    between atoms: N_12  and  C_13
REMARK    6  A    between atoms: C_13  and  C_14
REMARK    7  A    between atoms: C_14  and  N_15
REMARK    8  A    between atoms: C_19  and  C_22
REMARK                            x       y       z     vdW  Elec       q    Type
REMARK                         _______ _______ _______ _____ _____    ______ ____
ROOT
ATOM      1  N   UNL     1      -1.372  -0.511   0.012  0.00  0.00    -0.295 N 
ATOM      2  C   UNL     1      -2.029  -0.655   1.181  0.00  0.00    +0.300 C 
ATOM      3  O   UNL     1      -1.480  -0.364   2.226  0.00  0.00    -0.253 OA
ATOM      4  N   UNL     1      -3.293  -1.122   1.190  0.00  0.00    -0.298 N 
ATOM      5  H   UNL     1      -1.810  -0.743  -0.822  0.00  0.00    +0.151 HD
ATOM      6  H   UNL     1      -3.731  -1.354   0.356  0.00  0.00    +0.150 HD
ENDROOT
BRANCH   1   8
ATOM      7  C   UNL     1      -0.019   1.526   0.010  0.00  0.00    +0.029 C 
ATOM      8  C   UNL     1       0.002  -0.004   0.002  0.00  0.00    +0.091 C 
BRANCH   8   9
ATOM      9  C   UNL     1       0.718  -0.497  -1.257  0.00  0.00    +0.144 C 
BRANCH   9  10
ATOM     10  N   UNL     1       0.844  -1.956  -1.207  0.00  0.00    -0.337 N 
ATOM     11  C   UNL     1       1.881  -2.664  -0.662  0.00  0.00    +0.104 A 
ATOM     12  C   UNL     1       1.593  -3.969  -0.830  0.00  0.00    +0.101 A 
ATOM     13  N   UNL     1       0.412  -4.055  -1.461  0.00  0.00    -0.352 N 
ATOM     14  C   UNL     1      -0.045  -2.854  -1.685  0.00  0.00    +0.173 A 
ATOM     15  H   UNL     1      -0.034  -4.881  -1.708  0.00  0.00    +0.166 HD
ENDBRANCH   9  10
ENDBRANCH   8   9
ENDBRANCH   1   8
BRANCH   4  16
ATOM     16  C   UNL     1      -4.006  -1.278   2.460  0.00  0.00    +0.124 C 
BRANCH  16  17
ATOM     17  C   UNL     1      -5.412  -1.820   2.192  0.00  0.00    +0.121 C 
BRANCH  17  18
ATOM     18  N   UNL     1      -6.125  -1.977   3.462  0.00  0.00    -0.326 N 
ATOM     19  C   UNL     1      -7.430  -2.458   3.472  0.00  0.00    +0.137 A 
ATOM     20  C   UNL     1      -8.104  -2.599   4.682  0.00  0.00    +0.081 A 
ATOM     21  C   UNL     1      -9.402  -3.079   4.676  0.00  0.00    +0.037 A 
ATOM     22  C   UNL     1      -9.984  -3.403   3.458  0.00  0.00    +0.074 A 
ATOM     23  C   UNL     1      -9.257  -3.238   2.296  0.00  0.00    +0.125 A 
ATOM     24  N   UNL     1      -8.022  -2.773   2.331  0.00  0.00    -0.238 NA
ATOM     25 CL   UNL     1      -7.328  -2.180   6.177  0.00  0.00    -0.080 Cl
ATOM     26  H   UNL     1      -5.688  -1.745   4.296  0.00  0.00    +0.148 HD
BRANCH  22  27
ATOM     27  C   UNL     1     -11.395  -3.929   3.403  0.00  0.00    +0.419 C 
ATOM     28  F   UNL     1     -12.287  -2.859   3.277  0.00  0.00    -0.166 F 
ATOM     29  F   UNL     1     -11.532  -4.783   2.304  0.00  0.00    -0.166 F 
ATOM     30  F   UNL     1     -11.675  -4.633   4.579  0.00  0.00    -0.166 F 
ENDBRANCH  22  27
ENDBRANCH  17  18
ENDBRANCH  16  17
ENDBRANCH   4  16
TORSDOF 7
