REMARK  Name = ZINC39264943
REMARK  7 active torsions:
REMARK  status: ('A' for Active; 'I' for Inactive)
REMARK    1  A    between atoms: C_6  and  C_7
REMARK    2  A    between atoms: C_7  and  O_35
REMARK    3  A    between atoms: N_19  and  C1*_22
REMARK    4  A    between atoms: C2*_24  and  O2*_34
REMARK    5  A    between atoms: C3*_26  and  O3*_33
REMARK    6  A    between atoms: C4*_28  and  C5*_31
REMARK    7  A    between atoms: C5*_31  and  O5*_32
REMARK                            x       y       z     vdW  Elec       q    Type
REMARK                         _______ _______ _______ _____ _____    ______ ____
ROOT
ATOM      1  C   UNL     1      -3.297  -0.531   0.722  0.00  0.00    +0.094 C 
ATOM      2  C   UNL     1      -3.295  -1.845   1.508  0.00  0.00    +0.058 C 
ATOM      3  C   UNL     1      -2.436  -2.876   0.769  0.00  0.00    +0.109 C 
ATOM      4  N   UNL     1      -2.927  -2.999  -0.610  0.00  0.00    -0.313 N 
ATOM      5  C   UNL     1      -3.054  -1.783  -1.426  0.00  0.00    +0.109 C 
ATOM      6  C   UNL     1      -3.905  -0.764  -0.662  0.00  0.00    +0.058 C 
ATOM      7  C   UNL     1      -3.262  -4.236  -1.132  0.00  0.00    +0.152 A 
ATOM      8  C   UNL     1      -3.025  -5.413  -0.401  0.00  0.00    +0.148 A 
ATOM      9  C   UNL     1      -3.387  -6.639  -0.983  0.00  0.00    +0.167 A 
ATOM     10  N   UNL     1      -3.937  -6.643  -2.193  0.00  0.00    -0.216 NA
ATOM     11  C   UNL     1      -4.140  -5.515  -2.841  0.00  0.00    +0.225 A 
ATOM     12  N   UNL     1      -3.821  -4.338  -2.333  0.00  0.00    -0.218 NA
ATOM     13  N   UNL     1      -3.050  -7.606  -0.069  0.00  0.00    -0.286 N 
ATOM     14  C   UNL     1      -2.509  -6.975   1.012  0.00  0.00    +0.203 A 
ATOM     15  N   UNL     1      -2.496  -5.689   0.815  0.00  0.00    -0.231 NA
ENDROOT
BRANCH   1  21
ATOM     16  C   UNL     1      -3.507   1.320   2.394  0.00  0.00    +0.008 A 
ATOM     17  C   UNL     1      -4.255   2.263   3.073  0.00  0.00    +0.020 A 
ATOM     18  C   UNL     1      -5.610   2.382   2.823  0.00  0.00    +0.041 A 
ATOM     19  C   UNL     1      -6.216   1.557   1.892  0.00  0.00    +0.020 A 
ATOM     20  C   UNL     1      -5.467   0.615   1.212  0.00  0.00    +0.008 A 
ATOM     21  C   UNL     1      -4.113   0.496   1.464  0.00  0.00    -0.016 A 
ATOM     22 CL   UNL     1      -6.551   3.565   3.676  0.00  0.00    -0.084 Cl
ENDBRANCH   1  21
BRANCH  13  23
ATOM     23  C1* UNL     1      -3.237  -9.050  -0.226  0.00  0.00    +0.253 C 
ATOM     24  C2* UNL     1      -2.028  -9.672  -0.959  0.00  0.00    +0.195 C 
ATOM     25  C3* UNL     1      -1.834 -11.040  -0.267  0.00  0.00    +0.178 C 
ATOM     26  C4* UNL     1      -2.949 -11.083   0.801  0.00  0.00    +0.177 C 
ATOM     27  O4* UNL     1      -3.263  -9.697   1.065  0.00  0.00    -0.346 OA
BRANCH  25  28
ATOM     28  O3* UNL     1      -1.997 -12.104  -1.207  0.00  0.00    -0.386 OA
ATOM     29  H3* UNL     1      -1.885 -12.986  -0.827  0.00  0.00    +0.210 HD
ENDBRANCH  25  28
BRANCH  24  30
ATOM     30  O2* UNL     1      -2.319  -9.847  -2.347  0.00  0.00    -0.385 OA
ATOM     31  H2* UNL     1      -1.593 -10.235  -2.855  0.00  0.00    +0.210 HD
ENDBRANCH  24  30
BRANCH  26  32
ATOM     32  C5* UNL     1      -2.443 -11.769   2.072  0.00  0.00    +0.190 C 
BRANCH  32  33
ATOM     33  O5* UNL     1      -3.520 -11.902   3.002  0.00  0.00    -0.392 OA
ATOM     34  H5* UNL     1      -3.271 -12.329   3.833  0.00  0.00    +0.210 HD
ENDBRANCH  32  33
ENDBRANCH  26  32
ENDBRANCH  13  23
BRANCH   1  35
ATOM     35  O   UNL     1      -1.955  -0.061   0.580  0.00  0.00    -0.384 OA
ATOM     36  H   UNL     1      -1.506   0.109   1.419  0.00  0.00    +0.211 HD
ENDBRANCH   1  35
TORSDOF 7
