REMARK  Name = ZINC14944851
REMARK  7 active torsions:
REMARK  status: ('A' for Active; 'I' for Inactive)
REMARK    1  A    between atoms: C_1  and  C_2
REMARK    2  A    between atoms: C_2  and  O_3
REMARK    3  A    between atoms: O_3  and  C_4
REMARK    4  A    between atoms: C_4  and  C_6
REMARK    5  A    between atoms: C_8  and  C_30
REMARK    6  A    between atoms: C_15  and  C_21
REMARK    7  A    between atoms: C_25  and  N_27
REMARK                            x       y       z     vdW  Elec       q    Type
REMARK                         _______ _______ _______ _____ _____    ______ ____
ROOT
ATOM      1  C   UNL     1      -1.214   3.081   1.329  0.00  0.00    +0.176 C 
ATOM      2  C   UNL     1      -1.023   1.595   1.648  0.00  0.00    +0.053 C 
ATOM      3  C   UNL     1      -0.060   0.992   0.622  0.00  0.00    +0.061 C 
ATOM      4  C   UNL     1      -0.619   1.184  -0.767  0.00  0.00    +0.018 C 
ATOM      5  C   UNL     1      -1.371   2.263  -1.065  0.00  0.00    +0.021 C 
ATOM      6  C   UNL     1      -1.694   3.221  -0.090  0.00  0.00    +0.176 C 
ATOM      7  O   UNL     1      -2.373   4.180  -0.398  0.00  0.00    -0.291 OA
ATOM      8  C   UNL     1      -1.871   2.471  -2.476  0.00  0.00    +0.063 C 
ATOM      9  C   UNL     1      -2.189   1.115  -3.110  0.00  0.00    +0.109 C 
ATOM     10  C   UNL     1      -1.034   0.176  -2.870  0.00  0.00    +0.218 C 
ATOM     11  O   UNL     1      -0.725  -0.632  -3.719  0.00  0.00    -0.275 OA
ATOM     12  N   UNL     1      -0.347   0.234  -1.718  0.00  0.00    -0.289 N 
ATOM     13  H   UNL     1       0.358  -0.412  -1.554  0.00  0.00    +0.155 HD
ENDROOT
BRANCH   8  14
ATOM     14  C   UNL     1      -0.809   3.167  -3.288  0.00  0.00    -0.037 A 
ATOM     15  C   UNL     1       0.432   2.581  -3.451  0.00  0.00    +0.004 A 
ATOM     16  C   UNL     1       1.404   3.218  -4.199  0.00  0.00    +0.003 A 
ATOM     17  C   UNL     1       1.138   4.446  -4.776  0.00  0.00    +0.033 A 
ATOM     18  C   UNL     1      -0.101   5.035  -4.608  0.00  0.00    +0.126 A 
ATOM     19  C   UNL     1      -1.075   4.396  -3.864  0.00  0.00    +0.037 A 
BRANCH  18  20
ATOM     20  N   UNL     1      -0.386   6.349  -5.226  0.00  0.00    +0.056 N 
ATOM     21  O   UNL     1      -1.478   6.868  -5.078  0.00  0.00    -0.126 OA
ATOM     22  O   UNL     1       0.472   6.913  -5.882  0.00  0.00    -0.126 OA
ENDBRANCH  18  20
ENDBRANCH   8  14
BRANCH   2  23
ATOM     23  C   UNL     1      -0.446   1.444   3.032  0.00  0.00    -0.006 A 
ATOM     24  C   UNL     1      -1.019   0.920   4.143  0.00  0.00    +0.011 A 
ATOM     25  C   UNL     1      -0.291   0.880   5.317  0.00  0.00    +0.008 A 
ATOM     26  C   UNL     1       0.975   1.365   5.323  0.00  0.00    +0.045 A 
ATOM     27  S   UNL     1       1.172   1.902   3.632  0.00  0.00    -0.101 S 
ENDBRANCH   2  23
BRANCH   1  28
ATOM     28  C   UNL     1       0.097   3.805   1.493  0.00  0.00    +0.318 C 
ATOM     29  O   UNL     1       0.921   3.770   0.611  0.00  0.00    -0.250 OA
BRANCH  28  30
ATOM     30  O   UNL     1       0.349   4.489   2.620  0.00  0.00    -0.464 OA
BRANCH  30  32
ATOM     31  C   UNL     1       1.739   5.882   4.055  0.00  0.00    +0.048 C 
ATOM     32  C   UNL     1       1.633   5.161   2.710  0.00  0.00    +0.229 C 
ENDBRANCH  30  32
ENDBRANCH  28  30
ENDBRANCH   1  28
TORSDOF 6
