REMARK  Name = ZINC56229186
REMARK  5 active torsions:
REMARK  status: ('A' for Active; 'I' for Inactive)
REMARK    1  A    between atoms: C_5  and  C_6
REMARK    2  A    between atoms: C_8  and  C_11
REMARK    3  A    between atoms: C_11  and  S_12
REMARK    4  A    between atoms: S_12  and  C_13
REMARK    5  A    between atoms: C_13  and  C_14
REMARK                            x       y       z     vdW  Elec       q    Type
REMARK                         _______ _______ _______ _____ _____    ______ ____
ROOT
ATOM      1  C   UNL     1      -3.900  -6.172   1.559  0.00  0.00    +0.145 C 
ENDROOT
BRANCH   1   2
ATOM      2  C   UNL     1      -4.100  -6.774   2.926  0.00  0.00    +0.146 A 
ATOM      3  N   UNL     1      -3.105  -7.412   3.518  0.00  0.00    -0.199 NA
ATOM      4  C   UNL     1      -3.277  -7.944   4.726  0.00  0.00    +0.217 A 
ATOM      5  N   UNL     1      -4.452  -7.834   5.336  0.00  0.00    -0.181 NA
ATOM      6  C   UNL     1      -5.450  -7.193   4.738  0.00  0.00    +0.217 A 
ATOM      7  N   UNL     1      -5.268  -6.659   3.533  0.00  0.00    -0.199 NA
ATOM      8  N   UNL     1      -6.673  -7.076   5.368  0.00  0.00    -0.327 N 
ATOM      9  N   UNL     1      -2.238  -8.610   5.342  0.00  0.00    -0.327 N 
ATOM     10  H   UNL     1      -6.803  -7.463   6.248  0.00  0.00    +0.145 HD
ATOM     11  H   UNL     1      -7.401  -6.608   4.931  0.00  0.00    +0.145 HD
ATOM     12  H   UNL     1      -1.381  -8.690   4.896  0.00  0.00    +0.145 HD
ATOM     13  H   UNL     1      -2.365  -8.998   6.222  0.00  0.00    +0.145 HD
ENDBRANCH   1   2
BRANCH   1  14
ATOM     14  S   UNL     1      -3.301  -4.468   1.730  0.00  0.00    -0.145 S 
BRANCH  14  15
ATOM     15  C   UNL     1      -3.114  -3.895   0.020  0.00  0.00    +0.149 C 
BRANCH  15  18
ATOM     16  C   UNL     1      -1.246  -0.789   0.010  0.00  0.00    +0.259 A 
ATOM     17  N   UNL     1      -1.334  -2.103   0.009  0.00  0.00    -0.191 NA
ATOM     18  C   UNL     1      -2.616  -2.473   0.018  0.00  0.00    +0.182 A 
ATOM     19  N   UNL     1      -3.368  -1.409   0.025  0.00  0.00    -0.060 NA
ATOM     20  O   UNL     1      -2.494  -0.290   0.026  0.00  0.00    -0.333 OA
BRANCH  16  25
ATOM     21  C   UNL     1      -0.018   1.438   0.010  0.00  0.00    +0.021 A 
ATOM     22  C   UNL     1       1.191   2.038   0.002  0.00  0.00    +0.046 A 
ATOM     23  S   UNL     1       2.319   0.661  -0.017  0.00  0.00    -0.104 S 
ATOM     24  C   UNL     1       1.225  -0.611  -0.013  0.00  0.00    +0.058 A 
ATOM     25  C   UNL     1       0.002  -0.004   0.002  0.00  0.00    +0.046 A 
ENDBRANCH  16  25
ENDBRANCH  15  18
ENDBRANCH  14  15
ENDBRANCH   1  14
TORSDOF 5
