REMARK  Name = ZINC37744631
REMARK  4 active torsions:
REMARK  status: ('A' for Active; 'I' for Inactive)
REMARK    1  A    between atoms: C_1  and  C_2
REMARK    2  A    between atoms: C_8  and  N_10
REMARK    3  A    between atoms: N_10  and  S_11
REMARK    4  A    between atoms: S_11  and  C_14
REMARK                            x       y       z     vdW  Elec       q    Type
REMARK                         _______ _______ _______ _____ _____    ______ ____
ROOT
ATOM      1  N   UNL     1       0.056  -0.038   2.447  0.00  0.00    -0.187 NA
ATOM      2  H   UNL     1      -0.910   0.041   2.455  0.00  0.00    +0.148 HD
ENDROOT
BRANCH   1   9
ATOM      3  C   UNL     1      -0.019   1.526   0.010  0.00  0.00    +0.009 C 
ATOM      4  C   UNL     1       0.002  -0.004   0.002  0.00  0.00    +0.005 C 
ATOM      5  C   UNL     1       0.718  -0.497  -1.257  0.00  0.00    +0.005 C 
ATOM      6  C   UNL     1       0.739  -2.027  -1.265  0.00  0.00    +0.000 C 
ATOM      7  C   UNL     1       1.479  -2.534  -0.026  0.00  0.00    +0.002 C 
ATOM      8  C   UNL     1       0.763  -2.041   1.233  0.00  0.00    +0.020 C 
ATOM      9  C   UNL     1       0.742  -0.511   1.242  0.00  0.00    +0.079 C 
ENDBRANCH   1   9
BRANCH   1  10
ATOM     10  S   UNL     1       0.932   0.360   3.795  0.00  0.00    +0.062 S 
ATOM     11  O   UNL     1      -0.003   0.801   4.770  0.00  0.00    -0.153 OA
ATOM     12  O   UNL     1       1.827  -0.718   4.031  0.00  0.00    -0.153 OA
BRANCH  10  13
ATOM     13  C   UNL     1       1.922   1.756   3.379  0.00  0.00    +0.142 A 
ATOM     14  C   UNL     1       3.172   1.720   2.861  0.00  0.00    +0.133 A 
ATOM     15  N   UNL     1       3.582   2.994   2.687  0.00  0.00    -0.283 N 
ATOM     16  H   UNL     1       4.440   3.273   2.330  0.00  0.00    +0.188 HD
ATOM     17  N   UNL     1       2.550   3.841   3.111  0.00  0.00    -0.180 NA
ATOM     18  C   UNL     1       1.554   3.098   3.520  0.00  0.00    +0.162 A 
ENDBRANCH  10  13
ENDBRANCH   1  10
TORSDOF 3
