REMARK  Name = ZINC28026020
REMARK  11 active torsions:
REMARK  status: ('A' for Active; 'I' for Inactive)
REMARK    1  A    between atoms: C_1  and  C_2
REMARK    2  A    between atoms: C_5  and  N_20
REMARK    3  A    between atoms: C_7  and  S_8
REMARK    4  A    between atoms: S_8  and  N_11
REMARK    5  A    between atoms: N_11  and  C_12
REMARK    6  A    between atoms: C_17  and  O_18
REMARK    7  A    between atoms: O_18  and  C_19
REMARK    8  A    between atoms: C_21  and  C_23
REMARK    9  A    between atoms: C_23  and  C_24
REMARK   10  A    between atoms: C_24  and  C_26
REMARK   11  A    between atoms: C_24  and  N_31
REMARK                            x       y       z     vdW  Elec       q    Type
REMARK                         _______ _______ _______ _____ _____    ______ ____
ROOT
ATOM      1  C   UNL     1      -0.409   3.845   1.274  0.00  0.00    +0.046 C 
ATOM      2  C   UNL     1       0.795   3.424   2.076  0.00  0.00    -0.024 A 
ATOM      3  C   UNL     1       1.023   3.980   3.322  0.00  0.00    +0.007 A 
ATOM      4  C   UNL     1       2.125   3.596   4.060  0.00  0.00    +0.023 A 
ATOM      5  C   UNL     1       3.005   2.650   3.551  0.00  0.00    +0.035 A 
ATOM      6  C   UNL     1       2.770   2.089   2.303  0.00  0.00    +0.052 A 
ATOM      7  C   UNL     1       1.669   2.481   1.567  0.00  0.00    +0.113 A 
ENDROOT
BRANCH   5   8
ATOM      8  N   UNL     1       4.122   2.258   4.297  0.00  0.00    -0.285 N 
ATOM      9  C   UNL     1       4.045   2.192   5.641  0.00  0.00    +0.219 C 
ATOM     10  O   UNL     1       2.984   2.380   6.198  0.00  0.00    -0.275 OA
ATOM     11  H   UNL     1       5.062   2.004   3.786  0.00  0.00    +0.155 HD
BRANCH   9  12
ATOM     12  C   UNL     1       5.278   1.884   6.452  0.00  0.00    +0.123 C 
BRANCH  12  13
ATOM     13  C   UNL     1       4.919   1.869   7.939  0.00  0.00    +0.120 C 
BRANCH  13  14
ATOM     14  N   UNL     1       3.994   0.765   8.206  0.00  0.00    -0.292 N 
ATOM     15  C   UNL     1       3.160   0.826   9.263  0.00  0.00    +0.298 C 
ATOM     16  O   UNL     1       3.174   1.797   9.994  0.00  0.00    -0.253 OA
ATOM     17  N   UNL     1       2.308  -0.190   9.509  0.00  0.00    -0.313 N 
ATOM     18  H   UNL     1       3.981  -0.114   7.545  0.00  0.00    +0.151 HD
ATOM     19  H   UNL     1       1.627  -0.140  10.371  0.00  0.00    +0.146 HD
ATOM     20  H   UNL     1       2.295  -1.069   8.848  0.00  0.00    +0.146 HD
ENDBRANCH  13  14
BRANCH  13  21
ATOM     21  C   UNL     1       6.172   1.683   8.756  0.00  0.00    +0.010 A 
ATOM     22  C   UNL     1       6.911   2.614   9.408  0.00  0.00    +0.013 A 
ATOM     23  C   UNL     1       8.034   2.210  10.106  0.00  0.00    +0.008 A 
ATOM     24  C   UNL     1       8.369   0.896  10.108  0.00  0.00    +0.045 A 
ATOM     25  S   UNL     1       7.073   0.183   9.108  0.00  0.00    -0.100 S 
ENDBRANCH  13  21
ENDBRANCH  12  13
ENDBRANCH   9  12
ENDBRANCH   5   8
BRANCH   7  26
ATOM     26  S   UNL     1       1.373   1.774  -0.020  0.00  0.00    +0.073 S 
ATOM     27  O   UNL     1       0.011   1.369  -0.037  0.00  0.00    -0.150 OA
ATOM     28  O   UNL     1       2.440   0.869  -0.266  0.00  0.00    -0.150 OA
BRANCH  26  29
ATOM     29  N   UNL     1       1.519   2.992  -1.133  0.00  0.00    -0.213 N 
ATOM     30  H   UNL     1       0.664   3.257  -1.772  0.00  0.00    +0.174 HD
BRANCH  29  31
ATOM     31  C   UNL     1       2.729   3.682  -1.260  0.00  0.00    +0.090 A 
ATOM     32  C   UNL     1       3.933   3.013  -1.091  0.00  0.00    +0.028 A 
ATOM     33  C   UNL     1       5.127   3.697  -1.222  0.00  0.00    +0.002 A 
ATOM     34  C   UNL     1       5.126   5.049  -1.512  0.00  0.00    +0.004 A 
ATOM     35  C   UNL     1       3.930   5.723  -1.676  0.00  0.00    +0.047 A 
ATOM     36  C   UNL     1       2.729   5.045  -1.551  0.00  0.00    +0.142 A 
BRANCH  36  37
ATOM     37  O   UNL     1       1.552   5.707  -1.712  0.00  0.00    -0.493 OA
ATOM     38  C   UNL     1       1.628   7.103  -2.009  0.00  0.00    +0.277 C 
ENDBRANCH  36  37
ENDBRANCH  29  31
ENDBRANCH  26  29
ENDBRANCH   7  26
TORSDOF 9
