REMARK  Name = ZINC40572734
REMARK  7 active torsions:
REMARK  status: ('A' for Active; 'I' for Inactive)
REMARK    1  A    between atoms: CG2_1  and  CB_2
REMARK    2  A    between atoms: CB_2  and  CA_4
REMARK    3  A    between atoms: CB_2  and  OG1_20
REMARK    4  A    between atoms: CA_4  and  C_6
REMARK    5  A    between atoms: CA_4  and  N_9
REMARK    6  A    between atoms: N_12  and  C_13
REMARK    7  A    between atoms: C_13  and  C_14
REMARK                            x       y       z     vdW  Elec       q    Type
REMARK                         _______ _______ _______ _____ _____    ______ ____
ROOT
ATOM      1  N   THR A   1       2.077   0.091   1.294  0.00  0.00    -0.284 N 
ATOM      2  C   UNK A   0       2.712   0.220   2.475  0.00  0.00    +0.300 C 
ATOM      3  O   UNK A   0       2.178  -0.164   3.498  0.00  0.00    -0.253 OA
ATOM      4  N   UNK A   0       3.940   0.774   2.523  0.00  0.00    -0.299 N 
ATOM      5  H   THR A   1       2.503   0.397   0.478  0.00  0.00    +0.151 HD
ATOM      6  H   UNK A   0       4.366   1.080   1.708  0.00  0.00    +0.150 HD
ENDROOT
BRANCH   1   7
ATOM      7  CA  THR A   1       0.742  -0.511   1.242  0.00  0.00    +0.216 C 
BRANCH   7   8
ATOM      8  C   THR A   1       0.870  -2.011   1.172  0.00  0.00    +0.378 C 
ATOM      9  O   THR A   1       1.961  -2.522   0.983  0.00  0.00    -0.244 OA
ATOM     10  OXT THR A   1      -0.117  -2.714   1.304  0.00  0.00    -0.244 OA
ENDBRANCH   7   8
BRANCH   7  12
ATOM     11  CG2 THR A   1      -0.019   1.526   0.010  0.00  0.00    +0.040 C 
ATOM     12  CB  THR A   1       0.002  -0.004   0.002  0.00  0.00    +0.143 C 
BRANCH  12  13
ATOM     13  OG1 THR A   1       0.671  -0.465  -1.174  0.00  0.00    -0.390 OA
ATOM     14  HG1 THR A   1       1.588  -0.167  -1.247  0.00  0.00    +0.210 HD
ENDBRANCH  12  13
ENDBRANCH   7  12
ENDBRANCH   1   7
BRANCH   4  15
ATOM     15  C   UNK A   0       4.631   0.913   3.808  0.00  0.00    +0.109 C 
BRANCH  15  16
ATOM     16  C   UNK A   0       5.996   1.567   3.584  0.00  0.00    +0.006 C 
ATOM     17  C   UNK A   0       6.877   0.635   2.750  0.00  0.00    +0.005 C 
ATOM     18  C   UNK A   0       8.242   1.289   2.526  0.00  0.00    +0.000 C 
ATOM     19  C   UNK A   0       8.911   1.549   3.878  0.00  0.00    +0.000 C 
ATOM     20  C   UNK A   0       8.030   2.481   4.712  0.00  0.00    +0.000 C 
ATOM     21  C   UNK A   0       6.664   1.827   4.935  0.00  0.00    +0.005 C 
ENDBRANCH  15  16
ENDBRANCH   4  15
TORSDOF 6
