REMARK  Name = ZINC02314104
REMARK  7 active torsions:
REMARK  status: ('A' for Active; 'I' for Inactive)
REMARK    1  A    between atoms: C_1  and  C_2
REMARK    2  A    between atoms: C_5  and  S_8
REMARK    3  A    between atoms: S_8  and  N_11
REMARK    4  A    between atoms: C_17  and  C_27
REMARK    5  A    between atoms: C_21  and  C_26
REMARK    6  A    between atoms: C_23  and  C_24
REMARK    7  A    between atoms: C_23  and  C_25
REMARK                            x       y       z     vdW  Elec       q    Type
REMARK                         _______ _______ _______ _____ _____    ______ ____
ROOT
ATOM      1  N   UNL     1      -0.585   3.604   0.313  0.00  0.00    -0.169 N 
ATOM      2  C   UNL     1      -0.811   2.286   0.147  0.00  0.00    +0.326 C 
ATOM      3  O   UNL     1      -1.952   1.868   0.091  0.00  0.00    -0.251 OA
ATOM      4  N   UNL     1       0.226   1.432   0.044  0.00  0.00    -0.245 N 
ATOM      5  C   UNL     1       1.538   1.906  -0.057  0.00  0.00    +0.046 A 
ATOM      6  C   UNL     1       1.831   3.119  -0.651  0.00  0.00    +0.027 A 
ATOM      7  C   UNL     1       3.145   3.543  -0.731  0.00  0.00    -0.049 A 
ATOM      8  C   UNL     1       4.168   2.762  -0.221  0.00  0.00    +0.004 A 
ATOM      9  C   UNL     1       3.890   1.548   0.377  0.00  0.00    +0.010 A 
ATOM     10  C   UNL     1       2.572   1.112   0.465  0.00  0.00    -0.001 A 
ATOM     11  C   UNL     1       2.225  -0.176   1.099  0.00  0.00    -0.043 C 
ATOM     12  C   UNL     1       1.024  -0.704   0.902  0.00  0.00    +0.002 C 
ATOM     13  C   UNL     1       0.007  -0.020   0.028  0.00  0.00    +0.057 C 
ATOM     14  C   UNL     1      -1.399  -0.327   0.549  0.00  0.00    +0.036 C 
ATOM     15  C   UNL     1       0.141  -0.539  -1.405  0.00  0.00    +0.036 C 
ATOM     16  C   UNL     1       3.232  -0.888   1.965  0.00  0.00    +0.044 C 
ATOM     17  C   UNL     1       3.466   4.866  -1.378  0.00  0.00    +0.044 C 
ATOM     18  H   UNL     1       0.324   3.945   0.304  0.00  0.00    +0.178 HD
ENDROOT
BRANCH   1  19
ATOM     19  S   UNL     1      -1.856   4.642   0.531  0.00  0.00    +0.076 S 
ATOM     20  O   UNL     1      -1.298   5.938   0.701  0.00  0.00    -0.150 OA
ATOM     21  O   UNL     1      -2.801   4.347  -0.489  0.00  0.00    -0.150 OA
BRANCH  19  26
ATOM     22  C   UNL     1      -4.468   3.188   5.772  0.00  0.00    +0.044 C 
ATOM     23  C   UNL     1      -3.816   3.552   4.463  0.00  0.00    -0.050 A 
ATOM     24  C   UNL     1      -2.794   4.482   4.434  0.00  0.00    +0.005 A 
ATOM     25  C   UNL     1      -2.196   4.816   3.234  0.00  0.00    +0.029 A 
ATOM     26  C   UNL     1      -2.619   4.218   2.061  0.00  0.00    +0.109 A 
ATOM     27  C   UNL     1      -3.644   3.291   2.089  0.00  0.00    +0.029 A 
ATOM     28  C   UNL     1      -4.239   2.954   3.290  0.00  0.00    +0.005 A 
ENDBRANCH  19  26
ENDBRANCH   1  19
TORSDOF 2
