REMARK  Name = ZINC03118816
REMARK  6 active torsions:
REMARK  status: ('A' for Active; 'I' for Inactive)
REMARK    1  A    between atoms: C_6  and  C_7
REMARK    2  A    between atoms: C_7  and  O_8
REMARK    3  A    between atoms: O_8  and  C_9
REMARK    4  A    between atoms: C_13  and  N_14
REMARK    5  A    between atoms: N_17  and  N_18
REMARK    6  A    between atoms: C_22  and  C_25
REMARK                            x       y       z     vdW  Elec       q    Type
REMARK                         _______ _______ _______ _____ _____    ______ ____
ROOT
ATOM      1  N   UNL     1       1.129   3.003   0.007  0.00  0.00    -0.260 N 
ATOM      2  C   UNL     1       1.147   1.655   0.000  0.00  0.00    +0.321 C 
ATOM      3  O   UNL     1       2.208   1.062  -0.013  0.00  0.00    -0.251 OA
ATOM      4  N   UNL     1      -0.011   0.966   0.007  0.00  0.00    -0.219 N 
ATOM      5  H   UNL     1       0.282   3.477   0.018  0.00  0.00    +0.157 HD
ATOM      6  H   UNL     1       0.002  -0.004   0.002  0.00  0.00    +0.174 HD
ENDROOT
BRANCH   4   7
ATOM      7  N   UNL     1      -1.234   1.650   0.017  0.00  0.00    -0.246 N 
ATOM      8  C   UNL     1      -2.429   0.938   0.019  0.00  0.00    +0.153 A 
ATOM      9  C   UNL     1      -3.640   1.624   0.034  0.00  0.00    +0.083 A 
ATOM     10  C   UNL     1      -4.821   0.903   0.031  0.00  0.00    +0.037 A 
ATOM     11  C   UNL     1      -4.750  -0.484   0.023  0.00  0.00    +0.074 A 
ATOM     12  C   UNL     1      -3.515  -1.098   0.013  0.00  0.00    +0.125 A 
ATOM     13  N   UNL     1      -2.404  -0.385   0.011  0.00  0.00    -0.237 NA
ATOM     14 CL   UNL     1      -3.669   3.360   0.051  0.00  0.00    -0.080 Cl
ATOM     15  H   UNL     1      -1.247   2.620   0.022  0.00  0.00    +0.172 HD
BRANCH  11  16
ATOM     16  C   UNL     1      -6.011  -1.311   0.024  0.00  0.00    +0.419 C 
ATOM     17  F   UNL     1      -5.678  -2.669   0.015  0.00  0.00    -0.166 F 
ATOM     18  F   UNL     1      -6.757  -1.021   1.172  0.00  0.00    -0.166 F 
ATOM     19  F   UNL     1      -6.768  -1.008  -1.113  0.00  0.00    -0.166 F 
ENDBRANCH  11  16
ENDBRANCH   4   7
BRANCH   1  24
ATOM     20  C   UNL     1       2.528   5.070   0.005  0.00  0.00    +0.149 A 
ATOM     21  C   UNL     1       3.825   5.555  -0.005  0.00  0.00    +0.055 A 
ATOM     22  C   UNL     1       4.856   4.675  -0.019  0.00  0.00    +0.051 A 
ATOM     23  S   UNL     1       4.008   3.104  -0.012  0.00  0.00    -0.078 S 
ATOM     24  C   UNL     1       2.333   3.720  -0.000  0.00  0.00    +0.115 A 
BRANCH  20  25
ATOM     25  O   UNL     1       1.467   5.926   0.020  0.00  0.00    -0.485 OA
BRANCH  25  26
ATOM     26  C   UNL     1       1.761   7.324   0.025  0.00  0.00    +0.264 C 
BRANCH  26  32
ATOM     27  C   UNL     1      -0.125   8.479  -1.148  0.00  0.00    +0.010 A 
ATOM     28  C   UNL     1      -1.307   9.193  -1.133  0.00  0.00    +0.039 A 
ATOM     29  C   UNL     1      -1.887   9.547   0.073  0.00  0.00    +0.123 A 
ATOM     30  C   UNL     1      -1.284   9.180   1.264  0.00  0.00    +0.039 A 
ATOM     31  C   UNL     1      -0.104   8.461   1.247  0.00  0.00    +0.010 A 
ATOM     32  C   UNL     1       0.474   8.108   0.042  0.00  0.00    -0.010 A 
ATOM     33  F   UNL     1      -3.041  10.250   0.089  0.00  0.00    -0.205 F 
ENDBRANCH  26  32
ENDBRANCH  25  26
ENDBRANCH  20  25
ENDBRANCH   1  24
TORSDOF 6
