REMARK  Name = ZINC05341788
REMARK  4 active torsions:
REMARK  status: ('A' for Active; 'I' for Inactive)
REMARK    1  A    between atoms: C_1  and  C_2
REMARK    2  A    between atoms: C_7  and  C_8
REMARK    3  A    between atoms: C_10  and  C_13
REMARK    4  A    between atoms: C_13  and  N_14
REMARK                            x       y       z     vdW  Elec       q    Type
REMARK                         _______ _______ _______ _____ _____    ______ ____
ROOT
ATOM      1  N   UNL     1       2.032   0.577   6.304  0.00  0.00    -0.215 N 
ATOM      2  C   UNL     1       2.869  -0.481   6.332  0.00  0.00    +0.251 C 
ATOM      3  O   UNL     1       2.591  -1.641   6.118  0.00  0.00    -0.272 OA
ATOM      4  C   UNL     1       4.225   0.086   6.688  0.00  0.00    +0.138 C 
ATOM      5  C   UNL     1       4.715  -0.506   8.004  0.00  0.00    +0.040 C 
ATOM      6  C   UNL     1       6.165  -0.057   8.228  0.00  0.00    +0.008 C 
ATOM      7  C   UNL     1       7.051  -0.749   7.195  0.00  0.00    +0.035 C 
ATOM      8  C   UNL     1       6.504  -0.549   5.806  0.00  0.00    -0.042 A 
ATOM      9  C   UNL     1       5.200  -0.167   5.573  0.00  0.00    -0.012 A 
ATOM     10  C   UNL     1       4.755  -0.005   4.268  0.00  0.00    +0.006 A 
ATOM     11  C   UNL     1       5.607  -0.219   3.204  0.00  0.00    +0.000 A 
ATOM     12  C   UNL     1       6.915  -0.599   3.438  0.00  0.00    +0.000 A 
ATOM     13  C   UNL     1       7.360  -0.763   4.734  0.00  0.00    +0.004 A 
ATOM     14  N   UNL     1       3.980   1.527   6.834  0.00  0.00    -0.281 N 
ATOM     15  C   UNL     1       2.671   1.719   6.585  0.00  0.00    +0.310 C 
ATOM     16  O   UNL     1       2.129   2.806   6.616  0.00  0.00    -0.252 OA
ATOM     17  H   UNL     1       4.633   2.207   7.061  0.00  0.00    +0.152 HD
ENDROOT
BRANCH   1  18
ATOM     18  C   UNL     1       0.602   0.487   5.998  0.00  0.00    +0.216 C 
BRANCH  18  21
ATOM     19  C   UNL     1       0.174   0.157   2.410  0.00  0.00    +0.202 A 
ATOM     20  N   UNL     1       0.382  -0.333   3.645  0.00  0.00    -0.190 NA
ATOM     21  C   UNL     1       0.396   0.637   4.513  0.00  0.00    +0.246 A 
ATOM     22  O   UNL     1       0.195   1.792   3.864  0.00  0.00    -0.336 OA
ATOM     23  N   UNL     1       0.058   1.460   2.490  0.00  0.00    -0.056 NA
BRANCH  19  30
ATOM     24  C   UNL     1      -1.965   0.648   0.524  0.00  0.00    +0.044 C 
ATOM     25  C   UNL     1      -0.932  -0.414   0.248  0.00  0.00    -0.040 A 
ATOM     26  C   UNL     1      -0.997  -1.157  -0.913  0.00  0.00    +0.004 A 
ATOM     27  C   UNL     1      -0.050  -2.132  -1.167  0.00  0.00    +0.000 A 
ATOM     28  C   UNL     1       0.968  -2.368  -0.260  0.00  0.00    +0.001 A 
ATOM     29  C   UNL     1       1.043  -1.631   0.904  0.00  0.00    +0.012 A 
ATOM     30  C   UNL     1       0.095  -0.643   1.162  0.00  0.00    +0.025 A 
ENDBRANCH  19  30
ENDBRANCH  18  21
ENDBRANCH   1  18
TORSDOF 3
