REMARK  Name = ZINC01588365
REMARK  5 active torsions:
REMARK  status: ('A' for Active; 'I' for Inactive)
REMARK    1  A    between atoms: C_3  and  N_30
REMARK    2  A    between atoms: C_6  and  C_7
REMARK    3  A    between atoms: C_9  and  C_14
REMARK    4  A    between atoms: C_16  and  C_21
REMARK    5  A    between atoms: C_24  and  N_27
REMARK                            x       y       z     vdW  Elec       q    Type
REMARK                         _______ _______ _______ _____ _____    ______ ____
ROOT
ATOM      1  C   UNL     1       2.481   1.071  -0.016  0.00  0.00    +0.077 A 
ATOM      2  C   UNL     1       3.684   1.779  -0.024  0.00  0.00    +0.058 A 
ATOM      3  C   UNL     1       4.877   1.058  -0.039  0.00  0.00    +0.095 A 
ATOM      4  N   UNL     1       4.828  -0.273  -0.045  0.00  0.00    -0.213 NA
ATOM      5  C   UNL     1       3.668  -0.910  -0.038  0.00  0.00    +0.214 A 
ATOM      6  N   UNL     1       2.514  -0.260  -0.018  0.00  0.00    -0.215 NA
ATOM      7  N   UNL     1       3.660  -2.294  -0.045  0.00  0.00    -0.327 N 
ATOM      8  H   UNL     1       4.497  -2.784  -0.056  0.00  0.00    +0.145 HD
ATOM      9  H   UNL     1       2.818  -2.775  -0.040  0.00  0.00    +0.145 HD
ENDROOT
BRANCH   3  10
ATOM     10  C   UNL     1       6.183   1.763  -0.048  0.00  0.00    +0.095 A 
ATOM     11  C   UNL     1       7.375   1.042  -0.057  0.00  0.00    +0.058 A 
ATOM     12  C   UNL     1       8.579   1.751  -0.070  0.00  0.00    +0.077 A 
ATOM     13  N   UNL     1       8.545   3.081  -0.063  0.00  0.00    -0.215 NA
ATOM     14  C   UNL     1       7.392   3.731  -0.049  0.00  0.00    +0.214 A 
ATOM     15  N   UNL     1       6.231   3.094  -0.042  0.00  0.00    -0.213 NA
ATOM     16  N   UNL     1       7.399   5.115  -0.042  0.00  0.00    -0.327 N 
ATOM     17  H   UNL     1       6.562   5.605  -0.031  0.00  0.00    +0.145 HD
ATOM     18  H   UNL     1       8.242   5.596  -0.047  0.00  0.00    +0.145 HD
BRANCH  12  19
ATOM     19  C   UNL     1       9.875   1.031  -0.086  0.00  0.00    +0.001 A 
ATOM     20  C   UNL     1       9.902  -0.363  -0.088  0.00  0.00    +0.012 A 
ATOM     21  C   UNL     1      11.111  -1.027  -0.108  0.00  0.00    +0.033 A 
ATOM     22  C   UNL     1      12.296  -0.313  -0.116  0.00  0.00    +0.126 A 
ATOM     23  C   UNL     1      12.276   1.071  -0.109  0.00  0.00    +0.033 A 
ATOM     24  C   UNL     1      11.072   1.746  -0.094  0.00  0.00    +0.012 A 
BRANCH  22  25
ATOM     25  N   UNL     1      13.590  -1.031  -0.133  0.00  0.00    +0.056 N 
ATOM     26  O   UNL     1      14.634  -0.404  -0.139  0.00  0.00    -0.126 OA
ATOM     27  O   UNL     1      13.610  -2.249  -0.139  0.00  0.00    -0.126 OA
ENDBRANCH  22  25
ENDBRANCH  12  19
ENDBRANCH   3  10
BRANCH   1  33
ATOM     28  C   UNL     1      -0.013   1.076   0.008  0.00  0.00    +0.012 A 
ATOM     29  C   UNL     1      -1.216   1.751   0.017  0.00  0.00    +0.033 A 
ATOM     30  C   UNL     1      -1.236   3.134   0.030  0.00  0.00    +0.126 A 
ATOM     31  C   UNL     1      -0.052   3.848   0.022  0.00  0.00    +0.033 A 
ATOM     32  C   UNL     1       1.158   3.184   0.008  0.00  0.00    +0.012 A 
ATOM     33  C   UNL     1       1.184   1.790   0.000  0.00  0.00    +0.001 A 
BRANCH  30  34
ATOM     34  N   UNL     1      -2.530   3.852   0.045  0.00  0.00    +0.056 N 
ATOM     35  O   UNL     1      -2.551   5.070   0.052  0.00  0.00    -0.126 OA
ATOM     36  O   UNL     1      -3.575   3.225   0.052  0.00  0.00    -0.126 OA
ENDBRANCH  30  34
ENDBRANCH   1  33
TORSDOF 5
