REMARK  Name = ZINC39631678
REMARK  12 active torsions:
REMARK  status: ('A' for Active; 'I' for Inactive)
REMARK    1  A    between atoms: C_1  and  C_2
REMARK    2  A    between atoms: C_5  and  C_10
REMARK    3  A    between atoms: C_14  and  C_23
REMARK    4  A    between atoms: N_25  and  C_26
REMARK    5  A    between atoms: C_26  and  C_28
REMARK    6  A    between atoms: C_26  and  C_29
REMARK    7  A    between atoms: C_29  and  C_30
REMARK    8  A    between atoms: C_30  and  C_31
REMARK    9  A    between atoms: C_31  and  C_32
REMARK   10  A    between atoms: C_32  and  C_33
REMARK   11  A    between atoms: C_32  and  C_34
REMARK   12  A    between atoms: C_32  and  O_35
REMARK                            x       y       z     vdW  Elec       q    Type
REMARK                         _______ _______ _______ _____ _____    ______ ____
ROOT
ATOM      1  C   UNL     1       0.696  -3.743   0.361  0.00  0.00    +0.250 C 
ATOM      2  O   UNL     1       0.775  -4.396   1.383  0.00  0.00    -0.270 OA
ATOM      3  N   UNL     1       0.409  -4.352  -0.807  0.00  0.00    -0.296 N 
ATOM      4  C   UNL     1       0.336  -3.742  -2.155  0.00  0.00    +0.121 C 
ATOM      5  C   UNL     1       0.969  -4.794  -3.094  0.00  0.00    +0.100 C 
ATOM      6  C   UNL     1       0.805  -6.131  -2.352  0.00  0.00    -0.004 C 
ATOM      7  C   UNL     1       0.100  -5.784  -1.033  0.00  0.00    +0.115 C 
ATOM      8  C   UNL     1      -0.051  -7.090  -3.174  0.00  0.00    -0.010 C 
ATOM      9  C   UNL     1      -0.151  -8.432  -2.443  0.00  0.00    -0.082 C 
ATOM     10  N   UNL     1       1.194  -8.988  -2.249  0.00  0.00    +0.379 N 
ATOM     11  C   UNL     1       1.981  -8.104  -1.381  0.00  0.00    -0.082 C 
ATOM     12  C   UNL     1       2.171  -6.748  -2.067  0.00  0.00    -0.010 C 
ATOM     13  H   UNL     1       1.121  -9.899  -1.823  0.00  0.00    -0.086 HD
ATOM     14  H   UNL     1       1.653  -9.073  -3.144  0.00  0.00    -0.086 HD
ENDROOT
BRANCH   1  19
ATOM     15  C   UNL     1       1.548   1.948   0.499  0.00  0.00    +0.047 C 
ATOM     16  C   UNL     1       1.327   0.458   0.465  0.00  0.00    -0.012 A 
ATOM     17  C   UNL     1       0.609  -0.108  -0.575  0.00  0.00    +0.007 A 
ATOM     18  C   UNL     1       0.401  -1.470  -0.615  0.00  0.00    +0.016 A 
ATOM     19  C   UNL     1       0.916  -2.283   0.398  0.00  0.00    +0.075 A 
ATOM     20  C   UNL     1       1.641  -1.708   1.446  0.00  0.00    +0.171 A 
ATOM     21  C   UNL     1       1.847  -0.338   1.470  0.00  0.00    +0.162 A 
ATOM     22  F   UNL     1       2.551   0.221   2.478  0.00  0.00    -0.202 F 
ATOM     23  F   UNL     1       2.143  -2.486   2.429  0.00  0.00    -0.202 F 
ENDBRANCH   1  19
BRANCH   5  24
ATOM     24  C   UNL     1       2.428  -4.489  -3.315  0.00  0.00    +0.218 C 
ATOM     25  O   UNL     1       3.086  -3.994  -2.425  0.00  0.00    -0.275 OA
ATOM     26  N   UNL     1       3.002  -4.768  -4.502  0.00  0.00    -0.312 N 
ATOM     27  H   UNL     1       2.496  -5.228  -5.190  0.00  0.00    +0.149 HD
BRANCH  26  28
ATOM     28  C   UNL     1       4.391  -4.375  -4.754  0.00  0.00    +0.070 C 
ATOM     29  C   UNL     1       5.329  -5.492  -4.291  0.00  0.00    +0.028 C 
BRANCH  28  30
ATOM     30  C   UNL     1       4.589  -4.132  -6.252  0.00  0.00    +0.022 C 
BRANCH  30  31
ATOM     31  C   UNL     1       3.733  -2.943  -6.692  0.00  0.00    +0.005 C 
BRANCH  31  32
ATOM     32  C   UNL     1       3.837  -2.775  -8.210  0.00  0.00    +0.034 C 
BRANCH  32  33
ATOM     33  C   UNL     1       3.069  -1.523  -8.638  0.00  0.00    +0.061 C 
ATOM     34  C   UNL     1       3.686  -0.292  -7.970  0.00  0.00    +0.041 C 
ATOM     35  C   UNL     1       3.147  -1.371 -10.158  0.00  0.00    +0.041 C 
BRANCH  33  36
ATOM     36  O   UNL     1       1.701  -1.644  -8.241  0.00  0.00    -0.389 OA
ATOM     37  H   UNL     1       1.267  -2.445  -8.566  0.00  0.00    +0.210 HD
ENDBRANCH  33  36
ENDBRANCH  32  33
ENDBRANCH  31  32
ENDBRANCH  30  31
ENDBRANCH  28  30
ENDBRANCH  26  28
ENDBRANCH   5  24
TORSDOF 8
