REMARK  Name = ZINC44890812
REMARK  4 active torsions:
REMARK  status: ('A' for Active; 'I' for Inactive)
REMARK    1  A    between atoms: C_9  and  C_12
REMARK    2  A    between atoms: C_12  and  N_13
REMARK    3  A    between atoms: C_14  and  C_16
REMARK    4  A    between atoms: N_18  and  C_19
REMARK                            x       y       z     vdW  Elec       q    Type
REMARK                         _______ _______ _______ _____ _____    ______ ____
ROOT
ATOM      1  N   UNL     1       6.059  -1.747  -0.517  0.00  0.00    -0.304 N 
ATOM      2  C   UNL     1       7.300  -2.271  -0.468  0.00  0.00    +0.299 C 
ATOM      3  O   UNL     1       7.505  -3.287   0.163  0.00  0.00    -0.265 OA
ATOM      4  H   UNL     1       5.894  -0.935  -1.021  0.00  0.00    +0.149 HD
ENDROOT
BRANCH   2   5
ATOM      5  C   UNL     1       8.422  -1.601  -1.191  0.00  0.00    +0.303 C 
ATOM      6  O   UNL     1       8.216  -0.585  -1.823  0.00  0.00    -0.265 OA
ATOM      7  N   UNL     1       9.662  -2.124  -1.143  0.00  0.00    -0.274 N 
ATOM      8  H   UNL     1       9.842  -2.894  -0.580  0.00  0.00    +0.155 HD
BRANCH   7   9
ATOM      9  C   UNL     1      10.692  -1.557  -1.904  0.00  0.00    +0.097 A 
ATOM     10  C   UNL     1      11.816  -1.091  -1.302  0.00  0.00    +0.110 A 
ATOM     11  N   UNL     1      12.816  -0.540  -2.037  0.00  0.00    -0.365 N 
ATOM     12  C   UNL     1      12.729  -0.437  -3.385  0.00  0.00    +0.086 A 
ATOM     13  C   UNL     1      11.636  -0.882  -4.045  0.00  0.00    +0.070 A 
ATOM     14  C   UNL     1      10.577  -1.467  -3.316  0.00  0.00    +0.203 A 
ATOM     15  O   UNL     1       9.580  -1.882  -3.889  0.00  0.00    -0.286 OA
ATOM     16  H   UNL     1      13.610  -0.213  -1.587  0.00  0.00    +0.165 HD
ENDBRANCH   7   9
ENDBRANCH   2   5
BRANCH   1  17
ATOM     17  C   UNL     1       4.958  -2.404   0.192  0.00  0.00    +0.152 C 
BRANCH  17  26
ATOM     18  C   UNL     1       0.382   1.956   0.979  0.00  0.00    +0.004 A 
ATOM     19  C   UNL     1       1.620   2.570   0.970  0.00  0.00    +0.004 A 
ATOM     20  C   UNL     1       2.767   1.816   0.810  0.00  0.00    +0.049 A 
ATOM     21  C   UNL     1       2.678   0.440   0.656  0.00  0.00    +0.163 A 
ATOM     22  C   UNL     1       1.433  -0.177   0.662  0.00  0.00    +0.162 A 
ATOM     23  C   UNL     1       0.286   0.585   0.826  0.00  0.00    +0.049 A 
ATOM     24  O   UNL     1       1.323  -1.524   0.505  0.00  0.00    -0.485 OA
ATOM     25  C   UNL     1       2.510  -2.296   0.717  0.00  0.00    +0.275 C 
ATOM     26  C   UNL     1       3.667  -1.613  -0.024  0.00  0.00    +0.228 C 
ATOM     27  O   UNL     1       3.817  -0.290   0.503  0.00  0.00    -0.480 OA
ENDBRANCH  17  26
ENDBRANCH   1  17
TORSDOF 4
