REMARK  Name = ZINC05563573
REMARK  11 active torsions:
REMARK  status: ('A' for Active; 'I' for Inactive)
REMARK    1  A    between atoms: C_1  and  C_2
REMARK    2  A    between atoms: C_2  and  C_3
REMARK    3  A    between atoms: C_2  and  C_4
REMARK    4  A    between atoms: C_7  and  C_10
REMARK    5  A    between atoms: C_13  and  C_14
REMARK    6  A    between atoms: C_13  and  O_21
REMARK    7  A    between atoms: N_26  and  C_27
REMARK    8  A    between atoms: C_27  and  C_28
REMARK    9  A    between atoms: C_28  and  N_57
REMARK   10  A    between atoms: C_29  and  N_57
REMARK   11  A    between atoms: C_30  and  N_57
REMARK                            x       y       z     vdW  Elec       q    Type
REMARK                         _______ _______ _______ _____ _____    ______ ____
ROOT
ATOM      1  C   UNL     1       5.048   1.215  -0.263  0.00  0.00    +0.144 C 
ATOM      2  C   UNL     1       3.656   1.787  -0.127  0.00  0.00    +0.071 C 
ATOM      3  C   UNL     1       2.476   1.079  -0.015  0.00  0.00    +0.133 C 
ATOM      4  C   UNL     1       3.805   3.183  -0.142  0.00  0.00    +0.249 C 
ATOM      5  O   UNL     1       2.904   3.998  -0.059  0.00  0.00    -0.282 OA
ATOM      6  C   UNL     1       5.254   3.494  -0.275  0.00  0.00    +0.288 C 
ATOM      7  O   UNL     1       5.725   4.612  -0.317  0.00  0.00    -0.266 OA
ATOM      8  N   UNL     1       5.965   2.356  -0.348  0.00  0.00    -0.285 N 
ENDROOT
BRANCH   3   9
ATOM      9  C   UNL     1       1.217   1.788   0.270  0.00  0.00    +0.017 A 
ATOM     10  C   UNL     1       1.146   2.694   1.334  0.00  0.00    +0.014 A 
ATOM     11  C   UNL     1      -0.036   3.350   1.598  0.00  0.00    +0.039 A 
ATOM     12  C   UNL     1      -1.151   3.122   0.806  0.00  0.00    +0.123 A 
ATOM     13  C   UNL     1      -1.087   2.225  -0.251  0.00  0.00    +0.039 A 
ATOM     14  C   UNL     1       0.087   1.559  -0.522  0.00  0.00    +0.014 A 
ATOM     15  F   UNL     1      -2.307   3.772   1.067  0.00  0.00    -0.205 F 
ENDBRANCH   3   9
BRANCH   1  19
ATOM     16  C   UNL     1       5.992  -1.168   3.154  0.00  0.00    -0.045 A 
ATOM     17  C   UNL     1       5.612  -1.775   1.972  0.00  0.00    +0.004 A 
ATOM     18  C   UNL     1       5.307  -1.004   0.866  0.00  0.00    +0.006 A 
ATOM     19  C   UNL     1       5.381   0.374   0.943  0.00  0.00    -0.022 A 
ATOM     20  C   UNL     1       5.767   0.981   2.123  0.00  0.00    +0.006 A 
ATOM     21  C   UNL     1       6.068   0.210   3.231  0.00  0.00    +0.004 A 
BRANCH  16  23
ATOM     22  C   UNL     1       7.769  -1.741   4.787  0.00  0.00    +0.012 C 
ATOM     23  C   UNL     1       6.324  -2.009   4.360  0.00  0.00    +0.013 C 
ATOM     24  C   UNL     1       5.378  -1.649   5.508  0.00  0.00    +0.012 C 
ENDBRANCH  16  23
ENDBRANCH   1  19
BRANCH   3  25
ATOM     25  O   UNL     1       2.476  -0.262  -0.167  0.00  0.00    -0.506 OA
ATOM     26  H   UNL     1       1.546  -0.610  -0.055  0.00  0.00    +0.292 HD
ENDBRANCH   3  25
BRANCH   8  27
ATOM     27  C   UNL     1       7.420   2.269  -0.489  0.00  0.00    +0.090 C 
BRANCH  27  28
ATOM     28  C   UNL     1       7.788   2.244  -1.974  0.00  0.00    -0.060 C 
BRANCH  28  31
ATOM     29  C   UNL     1       9.750   0.874  -1.610  0.00  0.00    -0.097 C 
ATOM     30  C   UNL     1       9.655   2.369  -3.511  0.00  0.00    -0.097 C 
ATOM     31  N   UNL     1       9.259   2.179  -2.100  0.00  0.00    +0.377 N 
ATOM     32  H   UNL     1       9.676   2.926  -1.533  0.00  0.00    -0.083 HD
ENDBRANCH  28  31
ENDBRANCH  27  28
ENDBRANCH   8  27
TORSDOF 7
