REMARK  Name = ZINC63785073
REMARK  7 active torsions:
REMARK  status: ('A' for Active; 'I' for Inactive)
REMARK    1  A    between atoms: C_4  and  S_7
REMARK    2  A    between atoms: S_7  and  N_10
REMARK    3  A    between atoms: C_16  and  C_18
REMARK    4  A    between atoms: C_18  and  C_19
REMARK    5  A    between atoms: N_21  and  C_22
REMARK    6  A    between atoms: C_22  and  C_23
REMARK    7  A    between atoms: C_23  and  C_24
REMARK                            x       y       z     vdW  Elec       q    Type
REMARK                         _______ _______ _______ _____ _____    ______ ____
ROOT
ATOM      1  N   UNL     1       3.613  -1.825   3.611  0.00  0.00    -0.163 NA
ATOM      2  C   UNL     1       3.001  -2.777   4.554  0.00  0.00    +0.129 C 
ATOM      3  C   UNL     1       1.616  -3.152   4.022  0.00  0.00    +0.121 C 
ATOM      4  N   UNL     1       1.678  -3.475   2.604  0.00  0.00    -0.313 N 
ATOM      5  C   UNL     1       2.642  -3.069   1.776  0.00  0.00    +0.232 C 
ATOM      6  O   UNL     1       2.542  -3.336   0.597  0.00  0.00    -0.274 OA
ATOM      7  C   UNL     1       3.841  -2.292   2.235  0.00  0.00    +0.174 C 
ATOM      8  H   UNL     1       0.969  -4.024   2.235  0.00  0.00    +0.149 HD
ENDROOT
BRANCH   1   9
ATOM      9  S   UNL     1       4.023  -0.291   4.080  0.00  0.00    +0.062 S 
ATOM     10  O   UNL     1       5.116   0.105   3.262  0.00  0.00    -0.153 OA
ATOM     11  O   UNL     1       4.098  -0.306   5.498  0.00  0.00    -0.153 OA
BRANCH   9  15
ATOM     12  C   UNL     1       0.555   2.411   2.998  0.00  0.00    +0.000 A 
ATOM     13  C   UNL     1       0.595   1.800   4.237  0.00  0.00    +0.002 A 
ATOM     14  C   UNL     1       1.654   0.975   4.568  0.00  0.00    +0.028 A 
ATOM     15  C   UNL     1       2.673   0.760   3.658  0.00  0.00    +0.106 A 
ATOM     16  C   UNL     1       2.632   1.370   2.418  0.00  0.00    +0.028 A 
ATOM     17  C   UNL     1       1.574   2.196   2.089  0.00  0.00    +0.002 A 
ENDBRANCH   9  15
ENDBRANCH   1   9
BRANCH   7  18
ATOM     18  C   UNL     1       5.075  -3.195   2.198  0.00  0.00    +0.125 C 
BRANCH  18  19
ATOM     19  C   UNL     1       5.410  -3.529   0.767  0.00  0.00    +0.215 C 
ATOM     20  O   UNL     1       4.810  -2.988  -0.138  0.00  0.00    -0.276 OA
ATOM     21  N   UNL     1       6.375  -4.428   0.493  0.00  0.00    -0.315 N 
ATOM     22  H   UNL     1       6.855  -4.861   1.217  0.00  0.00    +0.149 HD
BRANCH  21  23
ATOM     23  C   UNL     1       6.700  -4.753  -0.898  0.00  0.00    +0.108 C 
BRANCH  23  24
ATOM     24  C   UNL     1       7.822  -5.794  -0.930  0.00  0.00    +0.052 C 
BRANCH  24  25
ATOM     25  C   UNL     1       8.156  -6.128  -2.361  0.00  0.00    -0.040 C 
ATOM     26  C   UNL     1       9.138  -5.583  -3.115  0.00  0.00    -0.001 A 
ATOM     27  C   UNL     1      10.149  -4.555  -2.840  0.00  0.00    +0.010 A 
ATOM     28  C   UNL     1      11.017  -4.210  -3.818  0.00  0.00    +0.001 A 
ATOM     29  C   UNL     1      10.975  -4.808  -5.085  0.00  0.00    +0.002 A 
ATOM     30  C   UNL     1      10.076  -5.760  -5.413  0.00  0.00    +0.026 A 
ATOM     31  C   UNL     1       9.115  -6.200  -4.461  0.00  0.00    +0.043 A 
ATOM     32  N   UNL     1       8.157  -7.091  -4.535  0.00  0.00    -0.380 N 
ATOM     33  C   UNL     1       7.466  -7.145  -3.242  0.00  0.00    +0.144 C 
ATOM     34  H   UNL     1       7.943  -7.628  -5.314  0.00  0.00    +0.160 HD
ENDBRANCH  24  25
ENDBRANCH  23  24
ENDBRANCH  21  23
ENDBRANCH  18  19
ENDBRANCH   7  18
TORSDOF 7
