REMARK  Name = ZINC37759238
REMARK  8 active torsions:
REMARK  status: ('A' for Active; 'I' for Inactive)
REMARK    1  A    between atoms: C_1  and  C_2
REMARK    2  A    between atoms: C_2  and  C_3
REMARK    3  A    between atoms: C_2  and  C_4
REMARK    4  A    between atoms: C_2  and  C_5
REMARK    5  A    between atoms: C_10  and  O_11
REMARK    6  A    between atoms: O_11  and  C_12
REMARK    7  A    between atoms: C_13  and  C_19
REMARK    8  A    between atoms: C_15  and  N_18
REMARK                            x       y       z     vdW  Elec       q    Type
REMARK                         _______ _______ _______ _____ _____    ______ ____
ROOT
ATOM      1  O   UNL     1      -0.185  -2.425  -0.841  0.00  0.00    -0.436 OA
ENDROOT
BRANCH   1   7
ATOM      2  C   UNL     1       0.822  -0.282  -1.073  0.00  0.00    +0.000 A 
ATOM      3  C   UNL     1       1.439   0.664  -1.868  0.00  0.00    +0.008 A 
ATOM      4  C   UNL     1       1.648   0.411  -3.211  0.00  0.00    +0.001 A 
ATOM      5  C   UNL     1       1.240  -0.790  -3.762  0.00  0.00    +0.004 A 
ATOM      6  C   UNL     1       0.622  -1.740  -2.972  0.00  0.00    +0.046 A 
ATOM      7  C   UNL     1       0.417  -1.490  -1.622  0.00  0.00    +0.134 A 
BRANCH   2   9
ATOM      8  C   UNL     1       1.262   1.318   0.769  0.00  0.00    +0.015 C 
ATOM      9  C   UNL     1       0.595  -0.006   0.391  0.00  0.00    -0.009 C 
ATOM     10  C   UNL     1       1.198  -1.138   1.224  0.00  0.00    +0.015 C 
ATOM     11  C   UNL     1      -0.908   0.084   0.666  0.00  0.00    +0.015 C 
ENDBRANCH   2   9
ENDBRANCH   1   7
BRANCH   1  12
ATOM     12  C   UNL     1      -1.526  -2.585  -0.958  0.00  0.00    +0.238 A 
ATOM     13  C   UNL     1      -2.173  -3.596  -0.231  0.00  0.00    +0.115 A 
ATOM     14  C   UNL     1      -3.558  -3.745  -0.365  0.00  0.00    +0.048 A 
ATOM     15  C   UNL     1      -4.233  -2.879  -1.216  0.00  0.00    +0.044 A 
ATOM     16  C   UNL     1      -3.520  -1.903  -1.901  0.00  0.00    +0.137 A 
ATOM     17  N   UNL     1      -2.215  -1.783  -1.751  0.00  0.00    -0.218 NA
BRANCH  15  18
ATOM     18  N   UNL     1      -5.619  -2.989  -1.383  0.00  0.00    -0.357 N 
ATOM     19  H   UNL     1      -6.112  -3.673  -0.903  0.00  0.00    +0.142 HD
ATOM     20  H   UNL     1      -6.086  -2.382  -1.978  0.00  0.00    +0.142 HD
ENDBRANCH  15  18
BRANCH  13  21
ATOM     21  C   UNL     1      -1.427  -4.462   0.633  0.00  0.00    +0.105 C 
ATOM     22  N   UNL     1      -0.836  -5.149   1.318  0.00  0.00    -0.191 NA
ENDBRANCH  13  21
ENDBRANCH   1  12
TORSDOF 5
