REMARK  Name = ZINC14471646
REMARK  4 active torsions:
REMARK  status: ('A' for Active; 'I' for Inactive)
REMARK    1  A    between atoms: C_1  and  C_2
REMARK    2  A    between atoms: C_3  and  N_27
REMARK    3  A    between atoms: C_9  and  C_18
REMARK    4  A    between atoms: C_22  and  N_24
REMARK                            x       y       z     vdW  Elec       q    Type
REMARK                         _______ _______ _______ _____ _____    ______ ____
ROOT
ATOM      1  C   UNL     1      -2.690   2.014  -1.183  0.00  0.00    +0.048 C 
ATOM      2  C   UNL     1      -1.566   2.123  -2.180  0.00  0.00    +0.001 A 
ATOM      3  C   UNL     1      -1.849   2.171  -3.529  0.00  0.00    +0.131 A 
ATOM      4  C   UNL     1      -0.817   2.271  -4.444  0.00  0.00    +0.033 A 
ATOM      5  C   UNL     1       0.491   2.324  -4.006  0.00  0.00    +0.008 A 
ATOM      6  C   UNL     1       0.786   2.276  -2.651  0.00  0.00    -0.019 A 
ATOM      7  C   UNL     1      -0.246   2.174  -1.734  0.00  0.00    +0.036 A 
ATOM      8  N   UNL     1      -0.017   2.119  -0.360  0.00  0.00    -0.336 N 
ATOM      9  C   UNL     1       1.244   2.757   0.019  0.00  0.00    +0.105 C 
ATOM     10  C   UNL     1       2.400   2.087  -0.729  0.00  0.00    +0.029 C 
ATOM     11  C   UNL     1       2.229   2.339  -2.242  0.00  0.00    +0.049 C 
ATOM     12  C   UNL     1       2.782   3.730  -2.450  0.00  0.00    -0.023 C 
ATOM     13  C   UNL     1       3.583   4.056  -1.466  0.00  0.00    -0.030 C 
ATOM     14  C   UNL     1       3.684   2.922  -0.465  0.00  0.00    +0.033 C 
ATOM     15  H   UNL     1      -0.056   1.168  -0.025  0.00  0.00    +0.147 HD
ENDROOT
BRANCH   9  16
ATOM     16  C   UNL     1       1.194   4.220  -0.341  0.00  0.00    -0.025 A 
ATOM     17  C   UNL     1       0.306   4.666  -1.302  0.00  0.00    +0.005 A 
ATOM     18  C   UNL     1       0.257   6.008  -1.627  0.00  0.00    +0.003 A 
ATOM     19  C   UNL     1       1.104   6.903  -1.001  0.00  0.00    +0.033 A 
ATOM     20  C   UNL     1       1.996   6.456  -0.044  0.00  0.00    +0.127 A 
ATOM     21  C   UNL     1       2.041   5.114   0.286  0.00  0.00    +0.038 A 
BRANCH  20  22
ATOM     22  N   UNL     1       2.902   7.415   0.627  0.00  0.00    +0.056 N 
ATOM     23  O   UNL     1       3.688   7.021   1.470  0.00  0.00    -0.126 OA
ATOM     24  O   UNL     1       2.862   8.597   0.337  0.00  0.00    -0.126 OA
ENDBRANCH  20  22
ENDBRANCH   9  16
BRANCH   3  25
ATOM     25  N   UNL     1      -3.252   2.116  -3.996  0.00  0.00    +0.057 N 
ATOM     26  O   UNL     1      -3.508   2.276  -5.176  0.00  0.00    -0.126 OA
ATOM     27  O   UNL     1      -4.151   1.911  -3.200  0.00  0.00    -0.126 OA
ENDBRANCH   3  25
TORSDOF 3
