REMARK  Name = ZINC11911157
REMARK  4 active torsions:
REMARK  status: ('A' for Active; 'I' for Inactive)
REMARK    1  A    between atoms: C_10  and  N_12
REMARK    2  A    between atoms: C_13  and  C_15
REMARK    3  A    between atoms: C_18  and  C_23
REMARK    4  A    between atoms: C_23  and  N_54
REMARK                            x       y       z     vdW  Elec       q    Type
REMARK                         _______ _______ _______ _____ _____    ______ ____
ROOT
ATOM      1  C   UNL     1      -1.147  -4.740  -0.847  0.00  0.00    +0.101 A 
ATOM      2  C   UNL     1      -1.728  -4.268   0.328  0.00  0.00    +0.020 A 
ATOM      3  C   UNL     1      -1.792  -2.891   0.543  0.00  0.00    +0.020 A 
ATOM      4  C   UNL     1      -1.304  -2.032  -0.387  0.00  0.00    +0.003 A 
ATOM      5  N   UNL     1      -0.738  -2.484  -1.532  0.00  0.00    -0.327 N 
ATOM      6  H   UNL     1      -0.394  -1.848  -2.178  0.00  0.00    +0.169 HD
ATOM      7  C   UNL     1      -0.645  -3.803  -1.787  0.00  0.00    +0.261 A 
ATOM      8  O   UNL     1      -0.133  -4.191  -2.823  0.00  0.00    -0.267 OA
ENDROOT
BRANCH   1  10
ATOM      9  N   UNL     1      -0.590  -6.627  -2.294  0.00  0.00    -0.304 N 
ATOM     10  C   UNL     1      -1.055  -6.184  -1.109  0.00  0.00    +0.250 C 
ATOM     11  O   UNL     1      -1.399  -6.980  -0.255  0.00  0.00    -0.270 OA
ATOM     12  H   UNL     1      -0.243  -5.996  -2.944  0.00  0.00    +0.150 HD
BRANCH   9  22
ATOM     13  C   UNL     1      -4.502  -9.049  -4.068  0.00  0.00    +0.000 A 
ATOM     14  C   UNL     1      -4.347  -8.190  -2.996  0.00  0.00    +0.000 A 
ATOM     15  C   UNL     1      -3.082  -7.884  -2.541  0.00  0.00    +0.006 A 
ATOM     16  C   UNL     1      -1.960  -8.431  -3.151  0.00  0.00    -0.024 A 
ATOM     17  C   UNL     1      -2.115  -9.283  -4.222  0.00  0.00    -0.042 A 
ATOM     18  C   UNL     1      -3.390  -9.593  -4.677  0.00  0.00    +0.004 A 
ATOM     19  C   UNL     1      -0.944  -9.902  -4.941  0.00  0.00    +0.035 C 
ATOM     20  C   UNL     1       0.317  -9.821  -4.083  0.00  0.00    +0.007 C 
ATOM     21  C   UNL     1       0.490  -8.372  -3.613  0.00  0.00    +0.027 C 
ATOM     22  C   UNL     1      -0.609  -8.059  -2.600  0.00  0.00    +0.104 C 
ENDBRANCH   9  22
ENDBRANCH   1  10
BRANCH   4  23
ATOM     23  C   UNL     1      -1.387  -0.548  -0.140  0.00  0.00    -0.025 C 
BRANCH  23  29
ATOM     24  C   UNL     1      -0.059   1.471  -0.001  0.00  0.00    -0.078 C 
ATOM     25  C   UNL     1       1.374   2.009  -0.008  0.00  0.00    -0.019 C 
ATOM     26  C   UNL     1       2.115   1.489   1.228  0.00  0.00    -0.004 C 
ATOM     27  C   UNL     1       2.087  -0.042   1.223  0.00  0.00    -0.019 C 
ATOM     28  C   UNL     1       0.633  -0.520   1.194  0.00  0.00    -0.078 C 
ATOM     29  N   UNL     1      -0.017  -0.006  -0.030  0.00  0.00    +0.383 N 
ATOM     30  H   UNL     1       0.527  -0.308  -0.848  0.00  0.00    -0.081 HD
ENDBRANCH  23  29
ENDBRANCH   4  23
TORSDOF 4
