REMARK  Name = ZINC15550450
REMARK  13 active torsions:
REMARK  status: ('A' for Active; 'I' for Inactive)
REMARK    1  A    between atoms: C_1  and  C_2
REMARK    2  A    between atoms: C_2  and  C_3
REMARK    3  A    between atoms: C_3  and  N_4
REMARK    4  A    between atoms: C_5  and  N_28
REMARK    5  A    between atoms: C_6  and  C_13
REMARK    6  A    between atoms: N_9  and  C_12
REMARK    7  A    between atoms: C_13  and  C_15
REMARK    8  A    between atoms: C_15  and  N_54
REMARK    9  A    between atoms: C_16  and  C_18
REMARK   10  A    between atoms: C_16  and  C_25
REMARK   11  A    between atoms: C_16  and  N_54
REMARK   12  A    between atoms: C_25  and  C_26
REMARK   13  A    between atoms: C_25  and  C_27
REMARK                            x       y       z     vdW  Elec       q    Type
REMARK                         _______ _______ _______ _____ _____    ______ ____
ROOT
ATOM      1  C   UNL     1       0.659   1.577   1.162  0.00  0.00    +0.155 C 
ATOM      2  O   UNL     1      -0.107   2.519   1.174  0.00  0.00    -0.294 OA
ENDROOT
BRANCH   1   5
ATOM      3  N   UNL     1       0.185   0.172   4.537  0.00  0.00    -0.281 N 
ATOM      4  C   UNL     1       0.001   0.973   3.446  0.00  0.00    +0.116 A 
ATOM      5  C   UNL     1       0.814   0.779   2.316  0.00  0.00    +0.118 A 
ATOM      6  C   UNL     1       1.833  -0.277   2.376  0.00  0.00    +0.269 A 
ATOM      7  O   UNL     1       2.568  -0.485   1.429  0.00  0.00    -0.267 OA
ATOM      8  N   UNL     1       1.938  -1.010   3.503  0.00  0.00    -0.263 N 
ATOM      9  C   UNL     1       1.129  -0.782   4.551  0.00  0.00    +0.333 A 
ATOM     10  O   UNL     1       1.256  -1.465   5.548  0.00  0.00    -0.246 OA
ATOM     11  C   UNL     1       2.948  -2.068   3.586  0.00  0.00    +0.157 C 
BRANCH   4  12
ATOM     12  N   UNL     1      -0.956   1.940   3.452  0.00  0.00    -0.344 N 
ATOM     13  H   UNL     1      -1.336   2.251   2.615  0.00  0.00    +0.144 HD
ATOM     14  H   UNL     1      -1.259   2.317   4.292  0.00  0.00    +0.144 HD
ENDBRANCH   4  12
BRANCH   3  15
ATOM     15  C   UNL     1      -0.661   0.362   5.718  0.00  0.00    +0.128 C 
BRANCH  15  17
ATOM     16  C   UNL     1      -0.889   1.573   7.891  0.00  0.00    +0.005 C 
ATOM     17  C   UNL     1      -0.005   1.375   6.657  0.00  0.00    +0.018 C 
ENDBRANCH  15  17
ENDBRANCH   3  15
ENDBRANCH   1   5
BRANCH   1  18
ATOM     18  C   UNL     1       1.445   1.260  -0.084  0.00  0.00    -0.000 C 
BRANCH  18  19
ATOM     19  N   UNL     1       1.100   2.237  -1.135  0.00  0.00    +0.389 N 
ATOM     20  H   UNL     1       1.258   3.187  -0.778  0.00  0.00    -0.084 HD
ATOM     21  H   UNL     1       0.112   2.127  -1.389  0.00  0.00    -0.084 HD
BRANCH  19  22
ATOM     22  C   UNL     1       1.937   2.020  -2.330  0.00  0.00    -0.038 C 
BRANCH  22  23
ATOM     23  C   UNL     1       3.250   2.740  -2.162  0.00  0.00    -0.061 A 
ATOM     24  C   UNL     1       3.280   3.996  -1.585  0.00  0.00    +0.005 A 
ATOM     25  C   UNL     1       4.484   4.655  -1.425  0.00  0.00    +0.038 A 
ATOM     26  C   UNL     1       5.660   4.062  -1.855  0.00  0.00    +0.123 A 
ATOM     27  C   UNL     1       5.628   2.807  -2.438  0.00  0.00    +0.038 A 
ATOM     28  C   UNL     1       4.423   2.147  -2.591  0.00  0.00    +0.005 A 
ATOM     29  F   UNL     1       6.837   4.709  -1.706  0.00  0.00    -0.205 F 
ENDBRANCH  22  23
BRANCH  22  30
ATOM     30  C   UNL     1       1.208   2.567  -3.559  0.00  0.00    -0.027 C 
ATOM     31  C   UNL     1      -0.055   1.743  -3.812  0.00  0.00    +0.006 C 
ATOM     32  C   UNL     1       0.824   4.028  -3.315  0.00  0.00    +0.006 C 
ENDBRANCH  22  30
ENDBRANCH  19  22
ENDBRANCH  18  19
ENDBRANCH   1  18
TORSDOF 9
