REMARK  Name = ZINC67476716
REMARK  13 active torsions:
REMARK  status: ('A' for Active; 'I' for Inactive)
REMARK    1  A    between atoms: C_1  and  C_2
REMARK    2  A    between atoms: C_2  and  C_3
REMARK    3  A    between atoms: C_3  and  C_4
REMARK    4  A    between atoms: C_4  and  N_5
REMARK    5  A    between atoms: C_6  and  N_31
REMARK    6  A    between atoms: C_7  and  N_14
REMARK    7  A    between atoms: N_14  and  C_15
REMARK    8  A    between atoms: C_15  and  C_16
REMARK    9  A    between atoms: C_17  and  C_19
REMARK   10  A    between atoms: C_19  and  C_21
REMARK   11  A    between atoms: C_19  and  O_22
REMARK   12  A    between atoms: O_22  and  C_23
REMARK   13  A    between atoms: C_27  and  C_29
REMARK                            x       y       z     vdW  Elec       q    Type
REMARK                         _______ _______ _______ _____ _____    ______ ____
ROOT
ATOM      1  N   UNL     1       2.998  -2.024  -3.521  0.00  0.00    -0.280 N 
ATOM      2  C   UNL     1       2.315  -2.232  -4.696  0.00  0.00    +0.127 A 
ATOM      3  C   UNL     1       1.358  -3.225  -4.753  0.00  0.00    +0.140 A 
ATOM      4  C   UNL     1       1.111  -3.997  -3.601  0.00  0.00    +0.277 A 
ATOM      5  O   UNL     1       0.272  -4.881  -3.623  0.00  0.00    -0.266 OA
ATOM      6  N   UNL     1       1.809  -3.752  -2.475  0.00  0.00    -0.273 N 
ATOM      7  H   UNL     1       1.640  -4.283  -1.681  0.00  0.00    +0.173 HD
ATOM      8  C   UNL     1       2.741  -2.783  -2.441  0.00  0.00    +0.331 A 
ATOM      9  O   UNL     1       3.360  -2.587  -1.412  0.00  0.00    -0.246 OA
ENDROOT
BRANCH   3  10
ATOM     10  N   UNL     1       0.640  -3.463  -5.943  0.00  0.00    -0.261 N 
ATOM     11  C   UNL     1      -0.674  -3.161  -6.011  0.00  0.00    +0.260 C 
ATOM     12  O   UNL     1      -1.272  -3.286  -7.059  0.00  0.00    -0.271 OA
BRANCH  10  13
ATOM     13  C   UNL     1       1.319  -4.039  -7.106  0.00  0.00    +0.110 C 
ATOM     14  C   UNL     1       1.119  -5.556  -7.116  0.00  0.00    +0.025 C 
ENDBRANCH  10  13
BRANCH  11  15
ATOM     15  C   UNL     1      -1.397  -2.667  -4.784  0.00  0.00    +0.256 C 
ATOM     16  C   UNL     1      -0.914  -1.257  -4.440  0.00  0.00    +0.062 C 
BRANCH  15  17
ATOM     17  O   UNL     1      -2.803  -2.640  -5.039  0.00  0.00    -0.480 OA
BRANCH  17  18
ATOM     18  C   UNL     1      -3.627  -2.736  -3.963  0.00  0.00    +0.123 A 
ATOM     19  C   UNL     1      -3.096  -2.731  -2.680  0.00  0.00    +0.046 A 
ATOM     20  C   UNL     1      -3.929  -2.827  -1.581  0.00  0.00    +0.005 A 
ATOM     21  C   UNL     1      -5.295  -2.929  -1.751  0.00  0.00    +0.019 A 
ATOM     22  C   UNL     1      -5.838  -2.934  -3.038  0.00  0.00    +0.055 A 
ATOM     23  C   UNL     1      -4.996  -2.831  -4.146  0.00  0.00    +0.064 A 
BRANCH  22  24
ATOM     24  C   UNL     1      -7.255  -3.039  -3.219  0.00  0.00    +0.099 C 
ATOM     25  N   UNL     1      -8.379  -3.122  -3.363  0.00  0.00    -0.191 NA
ENDBRANCH  22  24
ENDBRANCH  17  18
ENDBRANCH  15  17
ENDBRANCH  11  15
ENDBRANCH   3  10
BRANCH   2  26
ATOM     26  N   UNL     1       2.581  -1.460  -5.802  0.00  0.00    -0.343 N 
ATOM     27  H   UNL     1       3.203  -0.719  -5.737  0.00  0.00    +0.144 HD
ATOM     28  H   UNL     1       2.147  -1.657  -6.647  0.00  0.00    +0.144 HD
ENDBRANCH   2  26
BRANCH   1  29
ATOM     29  C   UNL     1       4.016  -0.973  -3.447  0.00  0.00    +0.128 C 
BRANCH  29  30
ATOM     30  C   UNL     1       5.376  -1.551  -3.846  0.00  0.00    +0.021 C 
BRANCH  30  32
ATOM     31  C   UNL     1       7.798  -1.032  -4.167  0.00  0.00    +0.004 C 
ATOM     32  C   UNL     1       6.439  -0.454  -3.769  0.00  0.00    -0.002 C 
ENDBRANCH  30  32
ENDBRANCH  29  30
ENDBRANCH   1  29
TORSDOF 10
