REMARK  Name = ZINC11124970
REMARK  6 active torsions:
REMARK  status: ('A' for Active; 'I' for Inactive)
REMARK    1  A    between atoms: C_1  and  C_2
REMARK    2  A    between atoms: C_10  and  C_11
REMARK    3  A    between atoms: C_11  and  O_13
REMARK    4  A    between atoms: O_13  and  C_14
REMARK    5  A    between atoms: C_14  and  C_16
REMARK    6  A    between atoms: C_14  and  C_17
REMARK                            x       y       z     vdW  Elec       q    Type
REMARK                         _______ _______ _______ _____ _____    ______ ____
ROOT
ATOM      1  C   UNL     1      -4.067   6.160  -2.076  0.00  0.00    +0.048 C 
ATOM      2  C   UNL     1      -2.747   6.531  -1.452  0.00  0.00    +0.010 A 
ATOM      3  C   UNL     1      -2.160   7.868  -1.367  0.00  0.00    +0.025 A 
ATOM      4  C   UNL     1      -2.565   9.138  -1.786  0.00  0.00    +0.012 A 
ATOM      5  C   UNL     1      -1.760  10.217  -1.554  0.00  0.00    +0.002 A 
ATOM      6  C   UNL     1      -0.543  10.060  -0.904  0.00  0.00    +0.024 A 
ATOM      7  C   UNL     1      -0.125   8.816  -0.482  0.00  0.00    +0.084 A 
ATOM      8  C   UNL     1      -0.927   7.702  -0.708  0.00  0.00    +0.154 A 
ATOM      9  O   UNL     1      -0.792   6.393  -0.421  0.00  0.00    -0.446 OA
ATOM     10  C   UNL     1      -1.861   5.692  -0.853  0.00  0.00    +0.216 A 
ATOM     11 CL   UNL     1       1.400   8.639   0.329  0.00  0.00    -0.080 Cl
ENDROOT
BRANCH  10  12
ATOM     12  C   UNL     1      -2.039   4.243  -0.703  0.00  0.00    +0.376 C 
ATOM     13  O   UNL     1      -3.044   3.706  -1.129  0.00  0.00    -0.241 OA
BRANCH  12  14
ATOM     14  O   UNL     1      -1.089   3.506  -0.093  0.00  0.00    -0.447 OA
BRANCH  14  15
ATOM     15  C   UNL     1      -1.331   2.079   0.020  0.00  0.00    +0.259 C 
ATOM     16  C   UNL     1      -2.068   1.789   1.329  0.00  0.00    +0.062 C 
BRANCH  15  17
ATOM     17  C   UNL     1      -0.016   1.344   0.009  0.00  0.00    +0.251 C 
ATOM     18  O   UNL     1       1.026   1.964   0.003  0.00  0.00    -0.272 OA
ATOM     19  N   UNL     1       0.002  -0.004   0.002  0.00  0.00    -0.326 N 
ATOM     20  H   UNL     1       0.849  -0.478  -0.009  0.00  0.00    +0.145 HD
ATOM     21  H   UNL     1      -0.831  -0.500   0.007  0.00  0.00    +0.145 HD
ENDBRANCH  15  17
ENDBRANCH  14  15
ENDBRANCH  12  14
ENDBRANCH  10  12
TORSDOF 4
