REMARK  Name = ZINC20701775
REMARK  4 active torsions:
REMARK  status: ('A' for Active; 'I' for Inactive)
REMARK    1  A    between atoms: C_1  and  N_2
REMARK    2  A    between atoms: C_3  and  C_5
REMARK    3  A    between atoms: C_12  and  C_21
REMARK    4  A    between atoms: C_26  and  O_27
REMARK                            x       y       z     vdW  Elec       q    Type
REMARK                         _______ _______ _______ _____ _____    ______ ____
ROOT
ATOM      1  C   UNL     1      -3.388   0.851   3.240  0.00  0.00    +0.058 A 
ATOM      2  C   UNL     1      -4.174  -0.150   2.668  0.00  0.00    +0.015 A 
ATOM      3  C   UNL     1      -3.979  -0.500   1.350  0.00  0.00    +0.001 A 
ATOM      4  C   UNL     1      -3.009   0.136   0.597  0.00  0.00    +0.006 A 
ATOM      5  C   UNL     1      -2.216   1.133   1.147  0.00  0.00    -0.019 A 
ATOM      6  C   UNL     1      -2.402   1.498   2.469  0.00  0.00    +0.044 A 
ATOM      7  N   UNL     1      -1.651   2.492   3.076  0.00  0.00    -0.336 N 
ATOM      8  C   UNL     1      -0.327   2.677   2.455  0.00  0.00    +0.109 C 
ATOM      9  C   UNL     1      -0.518   2.982   0.968  0.00  0.00    +0.029 C 
ATOM     10  C   UNL     1      -1.183   1.774   0.268  0.00  0.00    +0.049 C 
ATOM     11  C   UNL     1      -0.037   0.823   0.011  0.00  0.00    -0.023 C 
ATOM     12  C   UNL     1       1.104   1.466   0.024  0.00  0.00    -0.030 C 
ATOM     13  C   UNL     1       0.880   2.942   0.290  0.00  0.00    +0.033 C 
ATOM     14  H   UNL     1      -1.949   3.116   3.932  0.00  0.00    +0.147 HD
ENDROOT
BRANCH   8  15
ATOM     15  C   UNL     1       0.408   3.817   3.112  0.00  0.00    +0.017 A 
ATOM     16  C   UNL     1       1.729   3.663   3.488  0.00  0.00    +0.029 A 
ATOM     17  C   UNL     1       2.404   4.709   4.090  0.00  0.00    +0.043 A 
ATOM     18  C   UNL     1       1.760   5.912   4.317  0.00  0.00    +0.043 A 
ATOM     19  C   UNL     1       0.439   6.071   3.942  0.00  0.00    +0.084 A 
ATOM     20  C   UNL     1      -0.239   5.024   3.332  0.00  0.00    +0.140 A 
ATOM     21 CL   UNL     1      -0.370   7.581   4.225  0.00  0.00    -0.080 Cl
ATOM     22 CL   UNL     1       4.063   4.512   4.562  0.00  0.00    -0.083 Cl
BRANCH  20  23
ATOM     23  O   UNL     1      -1.536   5.179   2.957  0.00  0.00    -0.505 OA
ATOM     24  H   UNL     1      -2.049   6.136   3.133  0.00  0.00    +0.292 HD
ENDBRANCH  20  23
ENDBRANCH   8  15
BRANCH   1  27
ATOM     25  C   UNL     1      -4.627   0.897   6.828  0.00  0.00    +0.128 C 
ATOM     26  N   UNL     1      -4.428   0.519   5.427  0.00  0.00    -0.314 N 
ATOM     27  C   UNL     1      -3.588   1.231   4.650  0.00  0.00    +0.246 C 
ATOM     28  O   UNL     1      -2.997   2.188   5.111  0.00  0.00    -0.270 OA
ATOM     29  H   UNL     1      -4.963  -0.347   5.009  0.00  0.00    +0.149 HD
ENDBRANCH   1  27
TORSDOF 3
