REMARK  Name = ZINC09156656
REMARK  4 active torsions:
REMARK  status: ('A' for Active; 'I' for Inactive)
REMARK    1  A    between atoms: C_1  and  O_2
REMARK    2  A    between atoms: O_2  and  C_3
REMARK    3  A    between atoms: C_5  and  C_10
REMARK    4  A    between atoms: C_8  and  O_9
REMARK                            x       y       z     vdW  Elec       q    Type
REMARK                         _______ _______ _______ _____ _____    ______ ____
ROOT
ATOM      1  C   UNL     1      -0.018   1.463   0.010  0.00  0.00    +0.209 C 
ATOM      2  N   UNL     1       1.389   1.904  -0.001  0.00  0.00    -0.293 N 
ATOM      3  C   UNL     1       2.319   1.204  -0.723  0.00  0.00    +0.183 C 
ATOM      4  N   UNL     1       2.196  -0.095  -0.933  0.00  0.00    -0.183 NA
ATOM      5  C   UNL     1       1.083  -0.718  -0.478  0.00  0.00    +0.236 A 
ATOM      6  N   UNL     1       0.002  -0.004   0.002  0.00  0.00    -0.285 N 
ATOM      7  C   UNL     1      -0.946  -0.909   0.418  0.00  0.00    +0.076 A 
ATOM      8  C   UNL     1      -2.209  -0.798   0.986  0.00  0.00    +0.077 A 
ATOM      9  C   UNL     1      -2.926  -1.937   1.296  0.00  0.00    +0.164 A 
ATOM     10  C   UNL     1      -2.394  -3.198   1.042  0.00  0.00    +0.164 A 
ATOM     11  C   UNL     1      -1.142  -3.326   0.477  0.00  0.00    +0.079 A 
ATOM     12  C   UNL     1      -0.405  -2.182   0.159  0.00  0.00    +0.095 A 
ATOM     13  N   UNL     1       0.829  -1.998  -0.388  0.00  0.00    -0.210 NA
ATOM     14  O   UNL     1      -3.119  -4.311   1.359  0.00  0.00    -0.488 OA
ATOM     15  C   UNL     1      -4.294  -4.535   0.577  0.00  0.00    +0.232 C 
ATOM     16  C   UNL     1      -5.470  -3.749   1.134  0.00  0.00    +0.082 C 
ATOM     17  C   UNL     1      -5.261  -2.246   1.036  0.00  0.00    +0.232 C 
ATOM     18  O   UNL     1      -4.168  -1.831   1.857  0.00  0.00    -0.488 OA
ATOM     19  N   UNL     1       3.401   1.865  -1.238  0.00  0.00    -0.331 N 
ATOM     20  H   UNL     1       1.655   2.689   0.502  0.00  0.00    +0.151 HD
ATOM     21  H   UNL     1       4.067   1.381  -1.750  0.00  0.00    +0.145 HD
ATOM     22  H   UNL     1       3.503   2.819  -1.090  0.00  0.00    +0.145 HD
ENDROOT
BRANCH   1  25
ATOM     23  C   UNL     1      -2.700   2.861  -2.253  0.00  0.00    +0.162 A 
ATOM     24  C   UNL     1      -2.047   2.384  -1.128  0.00  0.00    +0.056 A 
ATOM     25  C   UNL     1      -0.729   1.976  -1.216  0.00  0.00    -0.003 A 
ATOM     26  C   UNL     1      -0.064   2.032  -2.426  0.00  0.00    +0.011 A 
ATOM     27  C   UNL     1      -0.711   2.502  -3.553  0.00  0.00    +0.049 A 
ATOM     28  C   UNL     1      -2.031   2.918  -3.471  0.00  0.00    +0.158 A 
BRANCH  23  30
ATOM     29  C   UNL     1      -4.619   3.182  -0.885  0.00  0.00    +0.277 C 
ATOM     30  O   UNL     1      -3.995   3.269  -2.167  0.00  0.00    -0.491 OA
ENDBRANCH  23  30
BRANCH  28  31
ATOM     31  O   UNL     1      -2.669   3.381  -4.579  0.00  0.00    -0.503 OA
ATOM     32  H   UNL     1      -3.124   2.695  -5.087  0.00  0.00    +0.292 HD
ENDBRANCH  28  31
ENDBRANCH   1  25
TORSDOF 3
