REMARK  Name = ZINC15225105
REMARK  6 active torsions:
REMARK  status: ('A' for Active; 'I' for Inactive)
REMARK    1  A    between atoms: C_1  and  C_2
REMARK    2  A    between atoms: C_2  and  C_4
REMARK    3  A    between atoms: C_2  and  O_10
REMARK    4  A    between atoms: O_10  and  C_11
REMARK    5  A    between atoms: C_11  and  C_13
REMARK    6  A    between atoms: C_27  and  C_28
REMARK                            x       y       z     vdW  Elec       q    Type
REMARK                         _______ _______ _______ _____ _____    ______ ____
ROOT
ATOM      1  C   UNL     1      -1.252   2.110  -0.184  0.00  0.00    +0.073 A 
ATOM      2  C   UNL     1      -1.249   3.552   0.064  0.00  0.00    +0.015 A 
ATOM      3  C   UNL     1      -2.439   4.282   0.154  0.00  0.00    +0.011 A 
ATOM      4  C   UNL     1      -2.390   5.624   0.393  0.00  0.00    +0.001 A 
ATOM      5  C   UNL     1      -1.170   6.277   0.549  0.00  0.00    +0.002 A 
ATOM      6  C   UNL     1       0.007   5.598   0.467  0.00  0.00    +0.028 A 
ATOM      7  C   UNL     1      -0.004   4.212   0.221  0.00  0.00    +0.072 A 
ATOM      8  N   UNL     1       1.131   3.519   0.134  0.00  0.00    -0.247 NA
ATOM      9  C   UNL     1       1.156   2.217  -0.097  0.00  0.00    +0.072 A 
ATOM     10  C   UNL     1      -0.023   1.468  -0.261  0.00  0.00    -0.007 A 
ATOM     11  C   UNL     1       0.006  -0.014  -0.513  0.00  0.00    +0.038 C 
ATOM     12  C   UNL     1       1.346  -0.451  -1.098  0.00  0.00    +0.009 C 
ATOM     13  C   UNL     1       2.479   0.024  -0.178  0.00  0.00    +0.037 C 
ATOM     14  C   UNL     1       2.468   1.537  -0.187  0.00  0.00    -0.021 C 
ATOM     15  C   UNL     1       3.610   2.240  -0.273  0.00  0.00    +0.013 C 
ENDROOT
BRANCH  15  16
ATOM     16  C   UNL     1       4.909   1.549  -0.189  0.00  0.00    -0.025 A 
ATOM     17  C   UNL     1       5.050   0.416   0.617  0.00  0.00    +0.008 A 
ATOM     18  C   UNL     1       6.267  -0.229   0.686  0.00  0.00    +0.001 A 
ATOM     19  C   UNL     1       7.349   0.249  -0.031  0.00  0.00    +0.000 A 
ATOM     20  C   UNL     1       7.218   1.374  -0.826  0.00  0.00    +0.001 A 
ATOM     21  C   UNL     1       6.006   2.027  -0.910  0.00  0.00    +0.008 A 
ENDBRANCH  15  16
BRANCH   1  22
ATOM     22  C   UNL     1      -2.517   1.365  -0.350  0.00  0.00    +0.341 C 
ATOM     23  O   UNL     1      -3.067   0.877   0.617  0.00  0.00    -0.245 OA
BRANCH  22  24
ATOM     24  O   UNL     1      -3.061   1.226  -1.575  0.00  0.00    -0.449 OA
BRANCH  24  26
ATOM     25  C   UNL     1      -5.486   1.441  -1.502  0.00  0.00    +0.062 C 
ATOM     26  C   UNL     1      -4.304   0.482  -1.664  0.00  0.00    +0.259 C 
BRANCH  26  27
ATOM     27  C   UNL     1      -4.389  -0.198  -3.006  0.00  0.00    +0.261 C 
ATOM     28  O   UNL     1      -3.490  -0.067  -3.809  0.00  0.00    -0.271 OA
ATOM     29  N   UNL     1      -5.463  -0.950  -3.314  0.00  0.00    -0.237 N 
ATOM     30  C   UNL     1      -5.539  -1.558  -4.515  0.00  0.00    +0.303 C 
ATOM     31  O   UNL     1      -4.637  -1.427  -5.320  0.00  0.00    -0.253 OA
ATOM     32  N   UNL     1      -6.614  -2.310  -4.823  0.00  0.00    -0.313 N 
ATOM     33  H   UNL     1      -6.183  -1.054  -2.672  0.00  0.00    +0.159 HD
ATOM     34  H   UNL     1      -7.333  -2.415  -4.181  0.00  0.00    +0.146 HD
ATOM     35  H   UNL     1      -6.668  -2.748  -5.687  0.00  0.00    +0.146 HD
ENDBRANCH  26  27
ENDBRANCH  24  26
ENDBRANCH  22  24
ENDBRANCH   1  22
TORSDOF 5
