REMARK  Name = ZINC01004401
REMARK  6 active torsions:
REMARK  status: ('A' for Active; 'I' for Inactive)
REMARK    1  A    between atoms: C_1  and  O_2
REMARK    2  A    between atoms: O_2  and  C_3
REMARK    3  A    between atoms: C_5  and  C_11
REMARK    4  A    between atoms: C_8  and  O_9
REMARK    5  A    between atoms: C_24  and  N_28
REMARK    6  A    between atoms: C_25  and  C_26
REMARK                            x       y       z     vdW  Elec       q    Type
REMARK                         _______ _______ _______ _____ _____    ______ ____
ROOT
ATOM      1  C   UNL     1      -4.959   3.898   0.061  0.00  0.00    +0.098 C 
ATOM      2  C   UNL     1      -3.636   3.177   0.049  0.00  0.00    +0.008 A 
ATOM      3  C   UNL     1      -3.628   1.781   0.046  0.00  0.00    +0.009 A 
ATOM      4  C   UNL     1      -2.463   1.079   0.033  0.00  0.00    +0.009 A 
ATOM      5  C   UNL     1      -1.237   1.766   0.018  0.00  0.00    -0.014 A 
ATOM      6  C   UNL     1      -0.013   1.076   0.008  0.00  0.00    +0.008 A 
ATOM      7  C   UNL     1       1.155   1.776   0.001  0.00  0.00    +0.001 A 
ATOM      8  C   UNL     1       1.155   3.170   0.007  0.00  0.00    +0.001 A 
ATOM      9  C   UNL     1      -0.013   3.871   0.021  0.00  0.00    +0.012 A 
ATOM     10  C   UNL     1      -1.236   3.182   0.028  0.00  0.00    +0.025 A 
ATOM     11  C   UNL     1      -2.465   3.878   0.040  0.00  0.00    +0.142 A 
ATOM     12  O   UNL     1      -2.458   5.233   0.042  0.00  0.00    -0.440 OA
ATOM     13  C   UNL     1      -3.546   5.910   0.445  0.00  0.00    +0.199 C 
ATOM     14  C   UNL     1      -4.770   5.329   0.476  0.00  0.00    +0.098 C 
ENDROOT
BRANCH   1  17
ATOM     15  C   UNL     1      -7.351   3.218  -2.784  0.00  0.00    +0.163 A 
ATOM     16  C   UNL     1      -6.792   3.253  -1.516  0.00  0.00    +0.054 A 
ATOM     17  C   UNL     1      -5.563   3.856  -1.320  0.00  0.00    -0.030 A 
ATOM     18  C   UNL     1      -4.884   4.414  -2.387  0.00  0.00    +0.028 A 
ATOM     19  C   UNL     1      -5.434   4.377  -3.655  0.00  0.00    +0.086 A 
ATOM     20  C   UNL     1      -6.669   3.779  -3.858  0.00  0.00    +0.177 A 
ATOM     21 CL   UNL     1      -4.580   5.080  -4.993  0.00  0.00    -0.080 Cl
BRANCH  15  23
ATOM     22  C   UNL     1      -9.205   2.074  -1.829  0.00  0.00    +0.277 C 
ATOM     23  O   UNL     1      -8.562   2.630  -2.978  0.00  0.00    -0.491 OA
ENDBRANCH  15  23
BRANCH  20  24
ATOM     24  O   UNL     1      -7.212   3.743  -5.105  0.00  0.00    -0.502 OA
ATOM     25  H   UNL     1      -6.970   2.959  -5.617  0.00  0.00    +0.292 HD
ENDBRANCH  20  24
ENDBRANCH   1  17
BRANCH  13  26
ATOM     26  N   UNL     1      -3.414   7.220   0.833  0.00  0.00    -0.328 N 
ATOM     27  H   UNL     1      -4.192   7.719   1.126  0.00  0.00    +0.145 HD
ATOM     28  H   UNL     1      -2.543   7.646   0.814  0.00  0.00    +0.145 HD
ENDBRANCH  13  26
BRANCH  14  29
ATOM     29  C   UNL     1      -5.900   6.092   0.914  0.00  0.00    +0.101 C 
ATOM     30  N   UNL     1      -6.797   6.697   1.261  0.00  0.00    -0.191 NA
ENDBRANCH  14  29
TORSDOF 5
