REMARK  Name = ZINC00889543
REMARK  6 active torsions:
REMARK  status: ('A' for Active; 'I' for Inactive)
REMARK    1  A    between atoms: C_1  and  C_2
REMARK    2  A    between atoms: C_7  and  C_15
REMARK    3  A    between atoms: C_13  and  C_14
REMARK    4  A    between atoms: C_15  and  C_17
REMARK    5  A    between atoms: C_15  and  N_60
REMARK    6  A    between atoms: N_21  and  C_22
REMARK                            x       y       z     vdW  Elec       q    Type
REMARK                         _______ _______ _______ _____ _____    ______ ____
ROOT
ATOM      1  C   UNL     1       2.531  -0.331  -0.056  0.00  0.00    +0.039 C 
ENDROOT
BRANCH   1   8
ATOM      2  C   UNL     1       5.892  -0.435   7.177  0.00  0.00    +0.044 C 
ATOM      3  C   UNL     1       5.277  -0.183   5.825  0.00  0.00    -0.046 A 
ATOM      4  C   UNL     1       5.139   1.119   5.365  0.00  0.00    +0.004 A 
ATOM      5  C   UNL     1       4.585   1.370   4.142  0.00  0.00    +0.010 A 
ATOM      6  C   UNL     1       4.152   0.304   3.345  0.00  0.00    -0.001 A 
ATOM      7  C   UNL     1       3.553   0.537   2.030  0.00  0.00    +0.017 A 
ATOM      8  C   UNL     1       3.151  -0.535   1.303  0.00  0.00    +0.011 A 
ATOM      9  C   UNL     1       3.307  -1.841   1.815  0.00  0.00    +0.251 A 
ATOM     10  O   UNL     1       2.935  -2.790   1.147  0.00  0.00    -0.268 OA
ATOM     11  N   UNL     1       3.861  -2.064   3.020  0.00  0.00    -0.322 N 
ATOM     12  H   UNL     1       3.963  -3.003   3.349  0.00  0.00    +0.169 HD
ATOM     13  C   UNL     1       4.290  -1.018   3.808  0.00  0.00    +0.052 A 
ATOM     14  C   UNL     1       4.858  -1.248   5.057  0.00  0.00    -0.024 A 
ATOM     15  C   UNL     1       5.015  -2.657   5.568  0.00  0.00    +0.046 C 
ENDBRANCH   1   8
BRANCH   1  21
ATOM     16  C   UNL     1       4.699  -0.761  -1.042  0.00  0.00    -0.077 C 
ATOM     17  C   UNL     1       5.462  -1.691  -1.989  0.00  0.00    -0.019 C 
ATOM     18  C   UNL     1       4.895  -1.548  -3.404  0.00  0.00    -0.004 C 
ATOM     19  C   UNL     1       3.398  -1.870  -3.381  0.00  0.00    -0.019 C 
ATOM     20  C   UNL     1       2.695  -0.935  -2.394  0.00  0.00    -0.077 C 
ATOM     21  N   UNL     1       3.270  -1.139  -1.047  0.00  0.00    +0.389 N 
ATOM     22  H   UNL     1       3.187  -2.131  -0.796  0.00  0.00    -0.080 HD
ENDBRANCH   1  21
BRANCH   1  23
ATOM     23  C   UNL     1       1.095  -0.789  -0.026  0.00  0.00    +0.143 A 
ATOM     24  N   UNL     1       0.669  -2.028  -0.023  0.00  0.00    -0.115 NA
ATOM     25  N   UNL     1      -0.619  -2.006   0.005  0.00  0.00    -0.023 NA
ATOM     26  N   UNL     1      -1.025  -0.784   0.026  0.00  0.00    -0.044 NA
ATOM     27  N   UNL     1       0.002  -0.004   0.002  0.00  0.00    -0.227 N 
BRANCH  27  28
ATOM     28  C   UNL     1      -0.018   1.461   0.010  0.00  0.00    +0.111 C 
ATOM     29  C   UNL     1      -0.768   1.972   1.257  0.00  0.00    +0.027 C 
ATOM     30  C   UNL     1      -1.536   3.220   0.752  0.00  0.00    +0.002 C 
ATOM     31  C   UNL     1      -1.983   2.796  -0.668  0.00  0.00    +0.002 C 
ATOM     32  C   UNL     1      -0.790   1.984  -1.214  0.00  0.00    +0.027 C 
ENDBRANCH  27  28
ENDBRANCH   1  23
TORSDOF 4
