REMARK  Name = ZINC13540613
REMARK  7 active torsions:
REMARK  status: ('A' for Active; 'I' for Inactive)
REMARK    1  A    between atoms: C_1  and  C_2
REMARK    2  A    between atoms: C_2  and  O_3
REMARK    3  A    between atoms: O_3  and  C_4
REMARK    4  A    between atoms: C_4  and  C_6
REMARK    5  A    between atoms: C_9  and  N_12
REMARK    6  A    between atoms: C_17  and  C_35
REMARK    7  A    between atoms: C_35  and  C_36
REMARK                            x       y       z     vdW  Elec       q    Type
REMARK                         _______ _______ _______ _____ _____    ______ ____
ROOT
ATOM      1  N   UNL     1      -6.683  -4.065   0.045  0.00  0.00    -0.210 N 
ATOM      2  C   UNL     1      -7.789  -3.320   0.147  0.00  0.00    +0.232 C 
ATOM      3  O   UNL     1      -7.814  -2.111   0.240  0.00  0.00    -0.274 OA
ATOM      4  C   UNL     1      -9.004  -4.220   0.127  0.00  0.00    +0.108 C 
ATOM      5  C   UNL     1      -9.677  -4.194   1.516  0.00  0.00    +0.076 C 
ATOM      6  N   UNL     1      -9.956  -5.620   1.831  0.00  0.00    -0.295 NA
ATOM      7  C   UNL     1      -8.774  -6.340   1.319  0.00  0.00    +0.136 C 
ATOM      8  C   UNL     1      -8.393  -5.642  -0.010  0.00  0.00    +0.123 C 
ATOM      9  C   UNL     1      -6.905  -5.380  -0.053  0.00  0.00    +0.233 C 
ATOM     10  O   UNL     1      -6.047  -6.230  -0.157  0.00  0.00    -0.274 OA
ATOM     11  C   UNL     1      -7.645  -6.315   2.309  0.00  0.00    +0.006 A 
ATOM     12  C   UNL     1      -6.929  -5.301   2.905  0.00  0.00    +0.046 A 
ATOM     13  C   UNL     1      -5.919  -5.601   3.805  0.00  0.00    +0.124 A 
ATOM     14  C   UNL     1      -5.633  -6.923   4.102  0.00  0.00    +0.040 A 
ATOM     15  C   UNL     1      -6.348  -7.941   3.506  0.00  0.00    +0.026 A 
ATOM     16  C   UNL     1      -7.365  -7.647   2.600  0.00  0.00    +0.039 A 
ATOM     17  N   UNL     1      -8.215  -8.488   1.878  0.00  0.00    -0.283 N 
ATOM     18  C   UNL     1      -9.073  -7.798   1.101  0.00  0.00    +0.243 C 
ATOM     19  O   UNL     1      -9.921  -8.262   0.369  0.00  0.00    -0.273 OA
ATOM     20  F   UNL     1      -5.216  -4.608   4.391  0.00  0.00    -0.205 F 
ATOM     21  H   UNL     1     -10.060  -5.757   2.825  0.00  0.00    +0.124 HD
ATOM     22  H   UNL     1      -8.191  -9.457   1.929  0.00  0.00    +0.155 HD
ENDROOT
BRANCH   1  26
ATOM     23  C   UNL     1      -2.853  -2.418   0.015  0.00  0.00    +0.059 A 
ATOM     24  C   UNL     1      -3.356  -3.041  -1.130  0.00  0.00    +0.017 A 
ATOM     25  C   UNL     1      -4.622  -3.584  -1.117  0.00  0.00    +0.025 A 
ATOM     26  C   UNL     1      -5.398  -3.513   0.035  0.00  0.00    +0.044 A 
ATOM     27  C   UNL     1      -4.901  -2.894   1.177  0.00  0.00    +0.025 A 
ATOM     28  C   UNL     1      -3.634  -2.354   1.172  0.00  0.00    +0.017 A 
BRANCH  23  29
ATOM     29  C   UNL     1      -1.498  -1.835   0.005  0.00  0.00    +0.339 C 
ATOM     30  O   UNL     1      -1.059  -1.299   1.003  0.00  0.00    -0.245 OA
BRANCH  29  31
ATOM     31  O   UNL     1      -0.746  -1.898  -1.112  0.00  0.00    -0.461 OA
BRANCH  31  33
ATOM     32  C   UNL     1       1.255  -1.481  -2.402  0.00  0.00    +0.048 C 
ATOM     33  C   UNL     1       0.557  -1.313  -1.051  0.00  0.00    +0.229 C 
ENDBRANCH  31  33
ENDBRANCH  29  31
ENDBRANCH  23  29
ENDBRANCH   1  26
BRANCH   5  34
ATOM     34  C   UNL     1     -10.979  -3.393   1.462  0.00  0.00    +0.115 C 
BRANCH  34  35
ATOM     35  C   UNL     1     -11.555  -3.277   2.850  0.00  0.00    +0.212 C 
ATOM     36  O   UNL     1     -10.980  -3.784   3.790  0.00  0.00    -0.276 OA
ATOM     37  N   UNL     1     -12.709  -2.609   3.047  0.00  0.00    -0.329 N 
ATOM     38  H   UNL     1     -13.169  -2.203   2.296  0.00  0.00    +0.145 HD
ATOM     39  H   UNL     1     -13.080  -2.534   3.940  0.00  0.00    +0.145 HD
ENDBRANCH  34  35
ENDBRANCH   5  34
TORSDOF 6
