REMARK  Name = ZINC08231996
REMARK  10 active torsions:
REMARK  status: ('A' for Active; 'I' for Inactive)
REMARK    1  A    between atoms: C_4  and  O_7
REMARK    2  A    between atoms: O_7  and  C_8
REMARK    3  A    between atoms: C_8  and  C_9
REMARK    4  A    between atoms: C_17  and  C_18
REMARK    5  A    between atoms: N_20  and  C_21
REMARK    6  A    between atoms: C_21  and  C_22
REMARK    7  A    between atoms: C_22  and  C_23
REMARK    8  A    between atoms: C_23  and  C_24
REMARK    9  A    between atoms: C_25  and  C_31
REMARK   10  A    between atoms: C_26  and  N_30
REMARK                            x       y       z     vdW  Elec       q    Type
REMARK                         _______ _______ _______ _____ _____    ______ ____
ROOT
ATOM      1  C   UNL     1      -0.292   1.272  -4.907  0.00  0.00    +0.280 C 
ATOM      2  O   UNL     1       0.705   0.587  -5.032  0.00  0.00    -0.267 OA
ATOM      3  N   UNL     1      -0.745   1.585  -3.677  0.00  0.00    -0.309 N 
ATOM      4  H   UNL     1      -1.540   2.131  -3.578  0.00  0.00    +0.149 HD
ENDROOT
BRANCH   1  13
ATOM      5  C   UNL     1      -0.639   1.508  -7.382  0.00  0.00    +0.048 A 
ATOM      6  C   UNL     1      -1.627   2.185  -8.222  0.00  0.00    +0.027 A 
ATOM      7  C   UNL     1      -1.810   2.309  -9.602  0.00  0.00    +0.012 A 
ATOM      8  C   UNL     1      -2.865   3.032 -10.082  0.00  0.00    +0.001 A 
ATOM      9  C   UNL     1      -3.754   3.644  -9.209  0.00  0.00    +0.004 A 
ATOM     10  C   UNL     1      -3.591   3.534  -7.845  0.00  0.00    +0.047 A 
ATOM     11  C   UNL     1      -2.525   2.803  -7.333  0.00  0.00    +0.136 A 
ATOM     12  O   UNL     1      -2.118   2.518  -6.080  0.00  0.00    -0.450 OA
ATOM     13  C   UNL     1      -1.003   1.759  -6.098  0.00  0.00    +0.197 A 
BRANCH   5  14
ATOM     14  C   UNL     1       0.541   0.695  -7.848  0.00  0.00    +0.269 C 
BRANCH  14  15
ATOM     15  O   UNL     1       0.151  -0.672  -7.993  0.00  0.00    -0.487 OA
BRANCH  15  19
ATOM     16  C   UNL     1       3.050  -3.323  -9.255  0.00  0.00    +0.000 A 
ATOM     17  C   UNL     1       1.769  -3.773  -8.994  0.00  0.00    +0.004 A 
ATOM     18  C   UNL     1       0.796  -2.888  -8.571  0.00  0.00    +0.045 A 
ATOM     19  C   UNL     1       1.106  -1.545  -8.409  0.00  0.00    +0.121 A 
ATOM     20  C   UNL     1       2.390  -1.095  -8.677  0.00  0.00    +0.045 A 
ATOM     21  C   UNL     1       3.361  -1.985  -9.093  0.00  0.00    +0.004 A 
ENDBRANCH  15  19
ENDBRANCH  14  15
ENDBRANCH   5  14
ENDBRANCH   1  13
BRANCH   3  22
ATOM     22  C   UNL     1      -0.037   1.099  -2.490  0.00  0.00    +0.105 C 
BRANCH  22  23
ATOM     23  C   UNL     1      -0.753   1.593  -1.232  0.00  0.00    +0.025 C 
BRANCH  23  24
ATOM     24  C   UNL     1      -0.013   1.086   0.008  0.00  0.00    +0.060 C 
BRANCH  24  25
ATOM     25  C   UNL     1      -0.718   1.572   1.248  0.00  0.00    +0.082 A 
ATOM     26  C   UNL     1      -1.755   0.895   1.931  0.00  0.00    +0.113 A 
ATOM     27  C   UNL     1      -2.115   1.691   3.015  0.00  0.00    +0.129 A 
ATOM     28  N   UNL     1      -1.332   2.789   2.979  0.00  0.00    -0.263 N 
ATOM     29  H   UNL     1      -1.359   3.548   3.630  0.00  0.00    +0.190 HD
ATOM     30  N   UNL     1      -0.474   2.686   1.879  0.00  0.00    -0.176 NA
BRANCH  27  31
ATOM     31  N   UNL     1      -3.092   1.410   3.951  0.00  0.00    -0.342 N 
ATOM     32  H   UNL     1      -3.603   0.588   3.886  0.00  0.00    +0.144 HD
ATOM     33  H   UNL     1      -3.267   2.035   4.672  0.00  0.00    +0.144 HD
ENDBRANCH  27  31
BRANCH  26  34
ATOM     34  C   UNL     1      -2.325  -0.370   1.576  0.00  0.00    +0.104 C 
ATOM     35  N   UNL     1      -2.778  -1.373   1.294  0.00  0.00    -0.191 NA
ENDBRANCH  26  34
ENDBRANCH  24  25
ENDBRANCH  23  24
ENDBRANCH  22  23
ENDBRANCH   3  22
TORSDOF 10
