REMARK  Name = ZINC64891197
REMARK  7 active torsions:
REMARK  status: ('A' for Active; 'I' for Inactive)
REMARK    1  A    between atoms: C_1  and  C_2
REMARK    2  A    between atoms: C_2  and  C_3
REMARK    3  A    between atoms: C_3  and  N_4
REMARK    4  A    between atoms: C_8  and  C_15
REMARK    5  A    between atoms: C_18  and  C_21
REMARK    6  A    between atoms: N_26  and  C_28
REMARK    7  A    between atoms: C_31  and  C_34
REMARK                            x       y       z     vdW  Elec       q    Type
REMARK                         _______ _______ _______ _____ _____    ______ ____
ROOT
ATOM      1  C   UNL     1       4.217  -5.946   0.652  0.00  0.00    +0.168 C 
ATOM      2  N   UNL     1       3.970  -7.203   0.475  0.00  0.00    -0.067 NA
ATOM      3  O   UNL     1       4.985  -8.003   1.051  0.00  0.00    -0.369 OA
ATOM      4  C   UNL     1       5.937  -7.100   1.633  0.00  0.00    +0.297 C 
ATOM      5  N   UNL     1       5.399  -5.761   1.345  0.00  0.00    -0.289 N 
ATOM      6  H   UNL     1       5.796  -4.912   1.595  0.00  0.00    +0.151 HD
ENDROOT
BRANCH   1  11
ATOM      7  N   UNL     1       0.744  -1.983  -1.294  0.00  0.00    -0.292 N 
ATOM      8  C   UNL     1       1.735  -2.780  -0.731  0.00  0.00    +0.070 A 
ATOM      9  C   UNL     1       2.906  -2.494  -0.042  0.00  0.00    +0.029 A 
ATOM     10  C   UNL     1       3.709  -3.519   0.407  0.00  0.00    +0.013 A 
ATOM     11  C   UNL     1       3.350  -4.848   0.169  0.00  0.00    +0.020 A 
ATOM     12  C   UNL     1       2.176  -5.139  -0.523  0.00  0.00    +0.039 A 
ATOM     13  C   UNL     1       1.370  -4.108  -0.972  0.00  0.00    +0.068 A 
ATOM     14  N   UNL     1       0.167  -4.074  -1.674  0.00  0.00    -0.306 N 
ATOM     15  H   UNL     1      -0.333  -4.846  -1.982  0.00  0.00    +0.170 HD
ATOM     16  C   UNL     1      -0.185  -2.786  -1.847  0.00  0.00    +0.328 A 
ATOM     17  O   UNL     1      -1.189  -2.405  -2.419  0.00  0.00    -0.247 OA
BRANCH   7  18
ATOM     18  C   UNL     1       0.712  -0.518  -1.282  0.00  0.00    +0.127 C 
BRANCH  18  20
ATOM     19  C   UNL     1      -0.053   1.495  -0.017  0.00  0.00    +0.005 C 
ATOM     20  C   UNL     1      -0.021  -0.034  -0.029  0.00  0.00    +0.018 C 
ENDBRANCH  18  20
ENDBRANCH   7  18
ENDBRANCH   1  11
BRANCH   4  21
ATOM     21  C   UNL     1       6.036  -7.330   3.143  0.00  0.00    +0.077 C 
ATOM     22  C   UNL     1       4.643  -7.246   3.808  0.00  0.00    +0.106 C 
ATOM     23  C   UNL     1       4.683  -8.307   4.886  0.00  0.00    +0.220 C 
ATOM     24  O   UNL     1       3.905  -8.384   5.814  0.00  0.00    -0.275 OA
ATOM     25  N   UNL     1       5.705  -9.152   4.667  0.00  0.00    -0.271 N 
ATOM     26  C   UNL     1       6.448  -8.786   3.455  0.00  0.00    +0.123 C 
BRANCH  25  27
ATOM     27  C   UNL     1       6.021 -10.239   5.488  0.00  0.00    +0.036 A 
ATOM     28  C   UNL     1       5.329 -10.438   6.676  0.00  0.00    +0.024 A 
ATOM     29  C   UNL     1       5.644 -11.513   7.484  0.00  0.00    +0.005 A 
ATOM     30  C   UNL     1       6.645 -12.391   7.112  0.00  0.00    -0.050 A 
ATOM     31  C   UNL     1       7.336 -12.195   5.930  0.00  0.00    +0.005 A 
ATOM     32  C   UNL     1       7.022 -11.126   5.114  0.00  0.00    +0.024 A 
ATOM     33  C   UNL     1       6.986 -13.562   7.997  0.00  0.00    +0.044 C 
ENDBRANCH  25  27
ENDBRANCH   4  21
TORSDOF 5
