REMARK  Name = ZINC40923658
REMARK  5 active torsions:
REMARK  status: ('A' for Active; 'I' for Inactive)
REMARK    1  A    between atoms: C_1  and  C_2
REMARK    2  A    between atoms: C_2  and  C_3
REMARK    3  A    between atoms: C_3  and  O_4
REMARK    4  A    between atoms: O_4  and  C_5
REMARK    5  A    between atoms: C_10  and  C_11
REMARK                            x       y       z     vdW  Elec       q    Type
REMARK                         _______ _______ _______ _____ _____    ______ ____
ROOT
ATOM      1  C   UNL     1       0.787  -4.750  -1.299  0.00  0.00    +0.181 C 
ATOM      2  C   UNL     1       1.861  -5.608  -0.665  0.00  0.00    +0.041 C 
ATOM      3  C   UNL     1       1.940  -6.938  -0.883  0.00  0.00    +0.020 C 
ATOM      4  C   UNL     1       3.023  -7.768  -0.235  0.00  0.00    +0.052 C 
ATOM      5  C   UNL     1       4.279  -6.915  -0.040  0.00  0.00    +0.014 C 
ATOM      6  C   UNL     1       3.911  -5.708   0.829  0.00  0.00    +0.080 C 
ATOM      7  C   UNL     1       2.788  -4.957   0.170  0.00  0.00    +0.163 C 
ATOM      8  O   UNL     1       2.677  -3.762   0.363  0.00  0.00    -0.292 OA
ATOM      9  N   UNL     1       1.044  -7.595  -1.692  0.00  0.00    -0.286 N 
ATOM     10  C   UNL     1      -0.120  -6.934  -2.045  0.00  0.00    +0.240 A 
ATOM     11  N   UNL     1      -0.255  -5.596  -1.860  0.00  0.00    -0.201 N 
ATOM     12  N   UNL     1      -1.536  -5.288  -2.313  0.00  0.00    -0.042 NA
ATOM     13  N   UNL     1      -2.058  -6.398  -2.725  0.00  0.00    -0.021 NA
ATOM     14  N   UNL     1      -1.230  -7.367  -2.569  0.00  0.00    -0.092 NA
ATOM     15  H   UNL     1       1.221  -8.496  -2.006  0.00  0.00    +0.155 HD
ENDROOT
BRANCH   1  21
ATOM     16  C   UNL     1       1.341  -2.529  -2.322  0.00  0.00    +0.126 A 
ATOM     17  C   UNL     1       1.909  -1.761  -3.329  0.00  0.00    +0.047 A 
ATOM     18  C   UNL     1       2.522  -2.376  -4.403  0.00  0.00    +0.019 A 
ATOM     19  C   UNL     1       2.570  -3.757  -4.476  0.00  0.00    +0.018 A 
ATOM     20  C   UNL     1       2.005  -4.525  -3.474  0.00  0.00    +0.025 A 
ATOM     21  C   UNL     1       1.396  -3.913  -2.394  0.00  0.00    +0.024 A 
ATOM     22 BR   UNL     1       3.410  -4.596  -5.948  0.00  0.00    -0.050 Br
BRANCH  16  23
ATOM     23  O   UNL     1       0.738  -1.926  -1.265  0.00  0.00    -0.492 OA
BRANCH  23  24
ATOM     24  C   UNL     1       0.718  -0.497  -1.257  0.00  0.00    +0.229 C 
BRANCH  24  26
ATOM     25  C   UNL     1      -0.019   1.526   0.010  0.00  0.00    +0.007 C 
ATOM     26  C   UNL     1       0.002  -0.004   0.002  0.00  0.00    +0.038 C 
ENDBRANCH  24  26
ENDBRANCH  23  24
ENDBRANCH  16  23
ENDBRANCH   1  21
TORSDOF 4
