REMARK  Name = ZINC52392319
REMARK  4 active torsions:
REMARK  status: ('A' for Active; 'I' for Inactive)
REMARK    1  A    between atoms: C_1  and  C_2
REMARK    2  A    between atoms: C_5  and  C_8
REMARK    3  A    between atoms: C_13  and  N_17
REMARK    4  A    between atoms: C_20  and  C_23
REMARK                            x       y       z     vdW  Elec       q    Type
REMARK                         _______ _______ _______ _____ _____    ______ ____
ROOT
ATOM      1  C   UNL     1       0.194  -4.253  -0.199  0.00  0.00    +0.002 A 
ATOM      2  C   UNL     1      -0.698  -4.952  -0.940  0.00  0.00    +0.056 A 
ATOM      3  S   UNL     1      -0.288  -6.651  -0.592  0.00  0.00    -0.076 S 
ATOM      4  C   UNL     1       1.060  -6.392   0.530  0.00  0.00    +0.114 A 
ATOM      5  C   UNL     1       1.165  -4.987   0.606  0.00  0.00    +0.055 A 
ATOM      6  C   UNL     1       2.194  -4.498   1.454  0.00  0.00    +0.133 A 
ATOM      7  N   UNL     1       2.967  -5.360   2.096  0.00  0.00    -0.220 NA
ATOM      8  C   UNL     1       2.814  -6.666   1.974  0.00  0.00    +0.224 A 
ATOM      9  N   UNL     1       1.871  -7.179   1.209  0.00  0.00    -0.228 NA
ENDROOT
BRANCH   1  14
ATOM     10  C   UNL     1       0.171   1.504  -0.241  0.00  0.00    +0.044 C 
ATOM     11  C   UNL     1       0.177  -0.003  -0.230  0.00  0.00    -0.050 A 
ATOM     12  C   UNL     1       0.544  -0.699  -1.368  0.00  0.00    +0.004 A 
ATOM     13  C   UNL     1       0.551  -2.078  -1.364  0.00  0.00    +0.009 A 
ATOM     14  C   UNL     1       0.189  -2.771  -0.209  0.00  0.00    -0.017 A 
ATOM     15  C   UNL     1      -0.179  -2.065   0.935  0.00  0.00    +0.009 A 
ATOM     16  C   UNL     1      -0.178  -0.685   0.920  0.00  0.00    +0.004 A 
ENDBRANCH   1  14
BRANCH   6  17
ATOM     17  N   UNL     1       2.386  -3.137   1.607  0.00  0.00    -0.314 N 
ATOM     18  C   UNL     1       1.917  -2.327   2.741  0.00  0.00    +0.107 C 
ATOM     19  C   UNL     1       2.385  -0.877   2.494  0.00  0.00    +0.033 C 
ATOM     20  C   UNL     1       3.576  -1.058   1.516  0.00  0.00    +0.093 C 
ATOM     21  C   UNL     1       3.101  -2.258   0.663  0.00  0.00    +0.119 C 
BRANCH  20  22
ATOM     22  C   UNL     1       3.768   0.171   0.666  0.00  0.00    +0.215 C 
ATOM     23  O   UNL     1       3.660   0.097  -0.540  0.00  0.00    -0.276 OA
ATOM     24  N   UNL     1       4.059   1.353   1.245  0.00  0.00    -0.329 N 
ATOM     25  H   UNL     1       4.145   1.412   2.209  0.00  0.00    +0.145 HD
ATOM     26  H   UNL     1       4.183   2.144   0.698  0.00  0.00    +0.145 HD
ENDBRANCH  20  22
ENDBRANCH   6  17
TORSDOF 3
