REMARK  Name = ZINC39681114
REMARK  8 active torsions:
REMARK  status: ('A' for Active; 'I' for Inactive)
REMARK    1  A    between atoms: C_1  and  C_2
REMARK    2  A    between atoms: C_12  and  O_13
REMARK    3  A    between atoms: O_13  and  C_14
REMARK    4  A    between atoms: C_14  and  C_15
REMARK    5  A    between atoms: C_19  and  C_28
REMARK    6  A    between atoms: N_30  and  C_31
REMARK    7  A    between atoms: C_31  and  C_33
REMARK    8  A    between atoms: C_31  and  C_34
REMARK                            x       y       z     vdW  Elec       q    Type
REMARK                         _______ _______ _______ _____ _____    ______ ____
ROOT
ATOM      1  C   UNL     1       0.217  -6.185   3.538  0.00  0.00    +0.253 C 
ATOM      2  O   UNL     1       0.251  -6.523   2.374  0.00  0.00    -0.272 OA
ATOM      3  N   UNL     1       0.195  -7.117   4.511  0.00  0.00    -0.297 N 
ATOM      4  C   UNL     1       0.146  -6.901   5.976  0.00  0.00    +0.121 C 
ATOM      5  C   UNL     1      -0.808  -7.996   6.502  0.00  0.00    +0.100 C 
ATOM      6  C   UNL     1      -0.759  -9.104   5.436  0.00  0.00    -0.004 C 
ATOM      7  C   UNL     1       0.206  -8.592   4.357  0.00  0.00    +0.115 C 
ATOM      8  C   UNL     1      -0.233 -10.400   6.045  0.00  0.00    -0.010 C 
ATOM      9  C   UNL     1      -0.248 -11.501   4.981  0.00  0.00    -0.082 C 
ATOM     10  N   UNL     1      -1.618 -11.689   4.487  0.00  0.00    +0.379 N 
ATOM     11  C   UNL     1      -2.082 -10.466   3.821  0.00  0.00    -0.082 C 
ATOM     12  C   UNL     1      -2.145  -9.322   4.836  0.00  0.00    -0.010 C 
ATOM     13  H   UNL     1      -1.636 -12.456   3.831  0.00  0.00    -0.086 HD
ATOM     14  H   UNL     1      -2.228 -11.900   5.263  0.00  0.00    -0.086 HD
ENDROOT
BRANCH   5  15
ATOM     15  C   UNL     1      -2.208  -7.453   6.633  0.00  0.00    +0.219 C 
ATOM     16  O   UNL     1      -2.589  -6.573   5.891  0.00  0.00    -0.275 OA
ATOM     17  N   UNL     1      -3.036  -7.946   7.575  0.00  0.00    -0.308 N 
ATOM     18  H   UNL     1      -2.731  -8.650   8.169  0.00  0.00    +0.149 HD
BRANCH  17  19
ATOM     19  C   UNL     1      -4.397  -7.418   7.703  0.00  0.00    +0.100 C 
ATOM     20  C   UNL     1      -4.378  -6.167   8.584  0.00  0.00    +0.033 C 
BRANCH  19  21
ATOM     21  C   UNL     1      -5.283  -8.462   8.333  0.00  0.00    -0.025 A 
ATOM     22  C   UNL     1      -4.822  -9.248   9.377  0.00  0.00    +0.025 A 
ATOM     23  C   UNL     1      -5.664 -10.195   9.930  0.00  0.00    +0.111 A 
ATOM     24  N   UNL     1      -6.891 -10.355   9.474  0.00  0.00    -0.263 NA
ATOM     25  C   UNL     1      -7.363  -9.626   8.482  0.00  0.00    +0.111 A 
ATOM     26  C   UNL     1      -6.581  -8.655   7.885  0.00  0.00    +0.025 A 
ENDBRANCH  19  21
ENDBRANCH  17  19
ENDBRANCH   5  15
BRANCH   1  27
ATOM     27  C   UNL     1       0.200  -4.721   3.897  0.00  0.00    +0.324 C 
BRANCH  27  28
ATOM     28  O   UNL     1       0.229  -3.937   2.703  0.00  0.00    -0.479 OA
BRANCH  28  40
ATOM     29  C   UNL     1       0.251   1.996   0.842  0.00  0.00    +0.045 C 
ATOM     30  C   UNL     1       0.262   0.494   0.710  0.00  0.00    -0.033 A 
ATOM     31  C   UNL     1       0.299  -0.098  -0.510  0.00  0.00    +0.096 A 
ATOM     32  C   UNL     1       0.309  -1.506  -0.606  0.00  0.00    +0.338 A 
ATOM     33  O   UNL     1       0.343  -2.026  -1.706  0.00  0.00    -0.245 OA
ATOM     34  O   UNL     1       0.283  -2.287   0.485  0.00  0.00    -0.418 OA
ATOM     35  C   UNL     1       0.245  -1.760   1.728  0.00  0.00    +0.181 A 
ATOM     36  C   UNL     1       0.239  -0.366   1.898  0.00  0.00    +0.024 A 
ATOM     37  C   UNL     1       0.206   0.182   3.184  0.00  0.00    +0.012 A 
ATOM     38  C   UNL     1       0.185  -0.650   4.280  0.00  0.00    +0.004 A 
ATOM     39  C   UNL     1       0.196  -2.027   4.116  0.00  0.00    +0.049 A 
ATOM     40  C   UNL     1       0.218  -2.586   2.851  0.00  0.00    +0.164 A 
ENDBRANCH  28  40
ENDBRANCH  27  28
ENDBRANCH   1  27
TORSDOF 6
