REMARK  Name = ZINC11998517
REMARK  3 active torsions:
REMARK  status: ('A' for Active; 'I' for Inactive)
REMARK    1  A    between atoms: C_11  and  C_16
REMARK    2  A    between atoms: C_25  and  C_27
REMARK    3  A    between atoms: N_32  and  C_35
REMARK                            x       y       z     vdW  Elec       q    Type
REMARK                         _______ _______ _______ _____ _____    ______ ____
ROOT
ATOM      1  C   UNL     1       6.243   6.212   5.392  0.00  0.00    +0.224 C 
ATOM      2  O   UNL     1       6.854   5.408   6.063  0.00  0.00    -0.275 OA
ATOM      3  N   UNL     1       4.979   5.947   5.006  0.00  0.00    -0.301 N 
ATOM      4  C   UNL     1       4.297   4.736   5.479  0.00  0.00    +0.108 C 
ATOM      5  C   UNL     1       3.843   3.917   4.264  0.00  0.00    +0.026 C 
ATOM      6  C   UNL     1       3.063   4.834   3.316  0.00  0.00    -0.015 C 
ATOM      7  C   UNL     1       3.813   6.091   2.866  0.00  0.00    +0.026 C 
ATOM      8  C   UNL     1       4.268   6.866   4.109  0.00  0.00    +0.108 C 
ATOM      9  C   UNL     1       1.552   4.943   3.518  0.00  0.00    +0.021 C 
ATOM     10  C   UNL     1       2.112   4.178   2.317  0.00  0.00    +0.082 C 
ENDROOT
BRANCH   1  21
ATOM     11  C   UNL     1      12.923   7.513   5.508  0.00  0.00    +0.001 A 
ATOM     12  C   UNL     1      12.810   6.275   4.896  0.00  0.00    +0.002 A 
ATOM     13  C   UNL     1      11.586   5.741   4.531  0.00  0.00    +0.026 A 
ATOM     14  C   UNL     1      10.456   6.508   4.806  0.00  0.00    +0.047 A 
ATOM     15  C   UNL     1      10.578   7.775   5.432  0.00  0.00    +0.003 A 
ATOM     16  C   UNL     1      11.827   8.291   5.790  0.00  0.00    +0.010 A 
ATOM     17  C   UNL     1       9.229   8.286   5.564  0.00  0.00    -0.018 A 
ATOM     18  C   UNL     1       8.399   7.357   5.043  0.00  0.00    +0.032 A 
ATOM     19  N   UNL     1       9.126   6.289   4.585  0.00  0.00    -0.357 N 
ATOM     20  H   UNL     1       8.753   5.497   4.168  0.00  0.00    +0.166 HD
ATOM     21  C   UNL     1       6.897   7.509   4.989  0.00  0.00    +0.122 C 
ATOM     22  C   UNL     1       6.483   8.618   5.963  0.00  0.00    +0.019 C 
ATOM     23  C   UNL     1       7.335   9.864   5.707  0.00  0.00    +0.006 C 
ATOM     24  C   UNL     1       8.775   9.595   6.159  0.00  0.00    +0.037 C 
ENDBRANCH   1  21
BRANCH  10  25
ATOM     25  C   UNL     1       2.007   2.675   2.339  0.00  0.00    +0.219 C 
ATOM     26  O   UNL     1       1.146   2.136   3.002  0.00  0.00    -0.275 OA
ATOM     27  N   UNL     1       2.871   1.928   1.622  0.00  0.00    -0.298 N 
ATOM     28  C   UNL     1       3.923   2.561   0.812  0.00  0.00    +0.126 C 
ATOM     29  C   UNL     1       3.857   1.984  -0.607  0.00  0.00    +0.125 C 
ATOM     30  N   UNL     1       3.922   0.518  -0.539  0.00  0.00    -0.314 N 
ATOM     31  C   UNL     1       2.766  -0.034   0.179  0.00  0.00    +0.125 C 
ATOM     32  C   UNL     1       2.786   0.460   1.629  0.00  0.00    +0.126 C 
BRANCH  30  33
ATOM     33  C   UNL     1       4.029  -0.035  -1.810  0.00  0.00    +0.099 A 
ATOM     34  C   UNL     1       4.110  -1.416  -1.957  0.00  0.00    +0.042 A 
ATOM     35  C   UNL     1       4.210  -1.953  -3.227  0.00  0.00    +0.005 A 
ATOM     36  C   UNL     1       4.239  -1.087  -4.312  0.00  0.00    +0.018 A 
ATOM     37  C   UNL     1       4.161   0.274  -4.094  0.00  0.00    +0.084 A 
ATOM     38  N   UNL     1       4.056   0.836  -2.860  0.00  0.00    -0.350 N 
ATOM     39  H   UNL     1       3.999   1.853  -2.727  0.00  0.00    +0.166 HD
ENDBRANCH  30  33
ENDBRANCH  10  25
TORSDOF 3
