REMARK  Name = ZINC15708057
REMARK  6 active torsions:
REMARK  status: ('A' for Active; 'I' for Inactive)
REMARK    1  A    between atoms: C_4  and  N_7
REMARK    2  A    between atoms: C_8  and  C_10
REMARK    3  A    between atoms: C_10  and  C_11
REMARK    4  A    between atoms: C_11  and  C_12
REMARK    5  A    between atoms: C_21  and  N_24
REMARK    6  A    between atoms: C_25  and  C_27
REMARK                            x       y       z     vdW  Elec       q    Type
REMARK                         _______ _______ _______ _____ _____    ______ ____
ROOT
ATOM      1  C   UNL     1      -7.584   2.429  -2.750  0.00  0.00    -0.050 C 
ATOM      2  C   UNL     1      -8.656   3.510  -2.956  0.00  0.00    +0.089 C 
ATOM      3  N   UNL     1      -8.932   4.248  -1.731  0.00  0.00    -0.318 N 
ATOM      4  C   UNL     1      -8.201   4.163  -0.603  0.00  0.00    +0.200 C 
ATOM      5  O   UNL     1      -8.434   4.895   0.335  0.00  0.00    -0.278 OA
ATOM      6  C   UNL     1      -7.097   3.158  -0.522  0.00  0.00    +0.021 C 
ATOM      7  C   UNL     1      -5.293   2.245  -1.710  0.00  0.00    -0.055 C 
ATOM      8  C   UNL     1      -4.750   2.697  -0.330  0.00  0.00    +0.056 C 
ATOM      9  C   UNL     1      -5.856   3.620   0.256  0.00  0.00    +0.014 C 
ATOM     10  H   UNL     1      -9.698   4.843  -1.727  0.00  0.00    +0.149 HD
ATOM     11  N   UNL     1      -6.542   3.035  -1.841  0.00  0.00    +0.391 N 
ATOM     12  H   UNL     1      -6.301   3.964  -2.205  0.00  0.00    -0.080 HD
ENDROOT
BRANCH   8  13
ATOM     13  N   UNL     1      -3.499   3.442  -0.493  0.00  0.00    -0.310 N 
ATOM     14  C   UNL     1      -2.322   2.784  -0.523  0.00  0.00    +0.251 C 
ATOM     15  O   UNL     1      -2.300   1.573  -0.414  0.00  0.00    -0.270 OA
ATOM     16  H   UNL     1      -3.517   4.407  -0.580  0.00  0.00    +0.149 HD
BRANCH  14  17
ATOM     17  C   UNL     1      -1.071   3.529  -0.686  0.00  0.00    +0.074 A 
ATOM     18  C   UNL     1       0.229   3.052  -0.742  0.00  0.00    +0.021 A 
ATOM     19  C   UNL     1       1.229   3.978  -0.909  0.00  0.00    +0.008 A 
ATOM     20  C   UNL     1       0.905   5.294  -1.005  0.00  0.00    +0.046 A 
ATOM     21  S   UNL     1      -0.823   5.287  -0.864  0.00  0.00    -0.092 S 
ENDBRANCH  14  17
ENDBRANCH   8  13
BRANCH   1  22
ATOM     22  C   UNL     1      -6.981   2.031  -4.099  0.00  0.00    -0.005 C 
BRANCH  22  23
ATOM     23  C   UNL     1      -8.052   1.354  -4.956  0.00  0.00    +0.094 C 
BRANCH  23  25
ATOM     24  N   UNL     1      -8.188   0.214  -7.147  0.00  0.00    -0.285 N 
ATOM     25  C   UNL     1      -7.429   0.850  -6.232  0.00  0.00    +0.217 C 
ATOM     26  O   UNL     1      -6.245   1.015  -6.436  0.00  0.00    -0.275 OA
ATOM     27  H   UNL     1      -9.147   0.147  -7.020  0.00  0.00    +0.155 HD
BRANCH  24  31
ATOM     28  C   UNL     1      -6.413  -1.463 -10.523  0.00  0.00    +0.000 A 
ATOM     29  C   UNL     1      -5.726  -1.436  -9.324  0.00  0.00    +0.002 A 
ATOM     30  C   UNL     1      -6.311  -0.881  -8.203  0.00  0.00    +0.023 A 
ATOM     31  C   UNL     1      -7.591  -0.349  -8.281  0.00  0.00    +0.033 A 
ATOM     32  C   UNL     1      -8.281  -0.381  -9.486  0.00  0.00    +0.023 A 
ATOM     33  C   UNL     1      -7.688  -0.934 -10.605  0.00  0.00    +0.002 A 
ENDBRANCH  24  31
ENDBRANCH  23  25
ENDBRANCH  22  23
ENDBRANCH   1  22
TORSDOF 6
