REMARK  Name = ZINC48633298
REMARK  6 active torsions:
REMARK  status: ('A' for Active; 'I' for Inactive)
REMARK    1  A    between atoms: C_1  and  C_2
REMARK    2  A    between atoms: C_8  and  O_10
REMARK    3  A    between atoms: O_10  and  C_11
REMARK    4  A    between atoms: C_11  and  C_13
REMARK    5  A    between atoms: C_16  and  N_20
REMARK    6  A    between atoms: C_18  and  O_19
REMARK                            x       y       z     vdW  Elec       q    Type
REMARK                         _______ _______ _______ _____ _____    ______ ____
ROOT
ATOM      1  C   UNL     1       4.047   0.697   2.495  0.00  0.00    +0.100 A 
ATOM      2  C   UNL     1       4.751   0.974   1.317  0.00  0.00    +0.020 A 
ATOM      3  C   UNL     1       6.030   1.445   1.379  0.00  0.00    +0.024 A 
ATOM      4  C   UNL     1       6.645   1.654   2.613  0.00  0.00    +0.028 A 
ATOM      5  C   UNL     1       5.959   1.384   3.791  0.00  0.00    +0.069 A 
ATOM      6  C   UNL     1       4.660   0.912   3.740  0.00  0.00    +0.133 A 
ENDROOT
BRANCH   4   7
ATOM      7  N   UNL     1       7.949   2.134   2.665  0.00  0.00    -0.358 N 
ATOM      8  H   UNL     1       8.429   2.322   1.843  0.00  0.00    +0.142 HD
ATOM      9  H   UNL     1       8.378   2.280   3.522  0.00  0.00    +0.142 HD
ENDBRANCH   4   7
BRANCH   1  10
ATOM     10  C   UNL     1       2.668   0.189   2.428  0.00  0.00    +0.343 C 
ATOM     11  O   UNL     1       2.057  -0.045   3.452  0.00  0.00    -0.245 OA
BRANCH  10  12
ATOM     12  O   UNL     1       2.083  -0.016   1.231  0.00  0.00    -0.458 OA
BRANCH  12  19
ATOM     13  C   UNL     1      -0.019   1.526   0.010  0.00  0.00    +0.011 C 
ATOM     14  C   UNL     1       0.002  -0.004   0.002  0.00  0.00    +0.027 C 
ATOM     15  C   UNL     1       0.718  -0.497  -1.257  0.00  0.00    +0.007 C 
ATOM     16  C   UNL     1       0.739  -2.027  -1.265  0.00  0.00    +0.000 C 
ATOM     17  C   UNL     1       1.479  -2.534  -0.026  0.00  0.00    +0.004 C 
ATOM     18  C   UNL     1       0.763  -2.041   1.233  0.00  0.00    +0.045 C 
ATOM     19  C   UNL     1       0.742  -0.511   1.242  0.00  0.00    +0.180 C 
ENDBRANCH  12  19
ENDBRANCH  10  12
ENDBRANCH   1  10
BRANCH   6  20
ATOM     20  O   UNL     1       3.983   0.653   4.886  0.00  0.00    -0.506 OA
ATOM     21  H   UNL     1       4.092  -0.251   5.212  0.00  0.00    +0.292 HD
ENDBRANCH   6  20
TORSDOF 5
