REMARK  Name = ZINC66976032
REMARK  6 active torsions:
REMARK  status: ('A' for Active; 'I' for Inactive)
REMARK    1  A    between atoms: C_1  and  C_2
REMARK    2  A    between atoms: N_4  and  C_5
REMARK    3  A    between atoms: C_5  and  C_6
REMARK    4  A    between atoms: C_6  and  N_7
REMARK    5  A    between atoms: N_13  and  C_16
REMARK    6  A    between atoms: C_16  and  C_17
REMARK                            x       y       z     vdW  Elec       q    Type
REMARK                         _______ _______ _______ _____ _____    ______ ____
ROOT
ATOM      1  N   UNL     1      -2.911  -3.856  -0.721  0.00  0.00    -0.298 N 
ATOM      2  C   UNL     1      -4.055  -4.566  -0.773  0.00  0.00    +0.302 C 
ATOM      3  O   UNL     1      -5.120  -3.995  -0.907  0.00  0.00    -0.253 OA
ATOM      4  N   UNL     1      -4.018  -5.910  -0.676  0.00  0.00    -0.283 N 
ATOM      5  C   UNL     1      -2.756  -6.613  -0.398  0.00  0.00    +0.124 C 
ATOM      6  C   UNL     1      -2.573  -7.717  -1.444  0.00  0.00    +0.104 C 
ATOM      7  N   UNL     1      -3.768  -8.571  -1.464  0.00  0.00    -0.291 NA
ATOM      8  C   UNL     1      -4.958  -7.813  -1.876  0.00  0.00    +0.104 C 
ATOM      9  C   UNL     1      -5.240  -6.712  -0.841  0.00  0.00    +0.124 C 
ATOM     10  H   UNL     1      -2.071  -4.302  -0.531  0.00  0.00    +0.150 HD
ENDROOT
BRANCH   1  11
ATOM     11  C   UNL     1      -2.936  -2.409  -0.951  0.00  0.00    +0.124 C 
BRANCH  11  12
ATOM     12  C   UNL     1      -1.517  -1.849  -0.836  0.00  0.00    +0.123 C 
BRANCH  12  16
ATOM     13  C   UNL     1      -0.424   1.796  -1.249  0.00  0.00    +0.109 C 
ATOM     14  C   UNL     1      -0.398   0.308  -1.013  0.00  0.00    +0.210 C 
ATOM     15  O   UNL     1       0.652  -0.250  -0.776  0.00  0.00    -0.276 OA
ATOM     16  N   UNL     1      -1.542  -0.403  -1.065  0.00  0.00    -0.314 N 
ATOM     17  H   UNL     1      -2.382   0.044  -1.255  0.00  0.00    +0.149 HD
ENDBRANCH  12  16
ENDBRANCH  11  12
ENDBRANCH   1  11
BRANCH   7  18
ATOM     18  C   UNL     1      -3.565  -9.741  -2.329  0.00  0.00    +0.181 C 
BRANCH  18  19
ATOM     19  C   UNL     1      -4.702 -10.712  -2.137  0.00  0.00    +0.234 C 
ATOM     20  O   UNL     1      -5.532 -10.511  -1.276  0.00  0.00    -0.274 OA
ATOM     21  N   UNL     1      -4.796 -11.803  -2.922  0.00  0.00    -0.270 N 
ATOM     22  C   UNL     1      -3.873 -11.995  -4.049  0.00  0.00    +0.114 C 
ATOM     23  C   UNL     1      -4.699 -12.454  -5.258  0.00  0.00    +0.024 C 
ATOM     24  C   UNL     1      -5.333 -13.807  -4.937  0.00  0.00    +0.038 C 
ATOM     25  C   UNL     1      -6.062 -13.749  -3.620  0.00  0.00    -0.026 A 
ATOM     26  C   UNL     1      -5.772 -12.778  -2.673  0.00  0.00    +0.039 A 
ATOM     27  C   UNL     1      -6.455 -12.758  -1.463  0.00  0.00    +0.024 A 
ATOM     28  C   UNL     1      -7.423 -13.708  -1.200  0.00  0.00    +0.002 A 
ATOM     29  C   UNL     1      -7.710 -14.678  -2.142  0.00  0.00    +0.000 A 
ATOM     30  C   UNL     1      -7.038 -14.694  -3.353  0.00  0.00    +0.005 A 
ENDBRANCH  18  19
ENDBRANCH   7  18
TORSDOF 5
