REMARK  Name = ZINC09177310
REMARK  8 active torsions:
REMARK  status: ('A' for Active; 'I' for Inactive)
REMARK    1  A    between atoms: C_1  and  C_2
REMARK    2  A    between atoms: C_2  and  O_3
REMARK    3  A    between atoms: O_3  and  C_4
REMARK    4  A    between atoms: C_14  and  C_30
REMARK    5  A    between atoms: C_16  and  C_21
REMARK    6  A    between atoms: C_21  and  C_23
REMARK    7  A    between atoms: C_26  and  C_29
REMARK    8  A    between atoms: C_34  and  N_36
REMARK                            x       y       z     vdW  Elec       q    Type
REMARK                         _______ _______ _______ _____ _____    ______ ____
ROOT
ATOM      1  C   UNL     1       1.462   2.043   0.375  0.00  0.00    +0.122 A 
ATOM      2  C   UNL     1       2.638   1.299   0.348  0.00  0.00    +0.048 A 
ATOM      3  C   UNL     1       2.620  -0.059   0.286  0.00  0.00    +0.032 A 
ATOM      4  C   UNL     1       1.398  -0.769   0.245  0.00  0.00    +0.081 A 
ATOM      5  C   UNL     1       0.220   0.012   0.273  0.00  0.00    +0.044 A 
ATOM      6  C   UNL     1       0.243   1.383   0.336  0.00  0.00    +0.063 A 
ATOM      7  S   UNL     1      -1.055  -1.223   0.207  0.00  0.00    -0.052 S 
ATOM      8  C   UNL     1       0.018  -2.651   0.149  0.00  0.00    +0.169 A 
ATOM      9  N   UNL     1       1.212  -2.106   0.183  0.00  0.00    -0.224 NA
ATOM     10  N   UNL     1      -0.323  -3.991   0.085  0.00  0.00    -0.232 N 
ATOM     11  C   UNL     1       0.615  -5.119   0.033  0.00  0.00    +0.152 C 
ATOM     12  C   UNL     1      -0.232  -6.369  -0.025  0.00  0.00    +0.077 C 
ATOM     13  C   UNL     1      -1.525  -5.965  -0.015  0.00  0.00    +0.250 C 
ATOM     14  C   UNL     1      -1.572  -4.490   0.054  0.00  0.00    +0.293 C 
ATOM     15  O   UNL     1      -2.588  -3.825   0.078  0.00  0.00    -0.266 OA
ATOM     16  O   UNL     1      -2.602  -6.782  -0.060  0.00  0.00    -0.282 OA
ENDROOT
BRANCH  11  17
ATOM     17  C   UNL     1       1.474  -5.136   1.272  0.00  0.00    -0.020 A 
ATOM     18  C   UNL     1       0.903  -4.922   2.512  0.00  0.00    +0.006 A 
ATOM     19  C   UNL     1       1.691  -4.938   3.648  0.00  0.00    +0.003 A 
ATOM     20  C   UNL     1       3.050  -5.168   3.543  0.00  0.00    +0.033 A 
ATOM     21  C   UNL     1       3.621  -5.383   2.302  0.00  0.00    +0.127 A 
ATOM     22  C   UNL     1       2.832  -5.372   1.167  0.00  0.00    +0.038 A 
BRANCH  21  23
ATOM     23  N   UNL     1       5.076  -5.629   2.190  0.00  0.00    +0.056 N 
ATOM     24  O   UNL     1       5.785  -5.550   3.177  0.00  0.00    -0.126 OA
ATOM     25  O   UNL     1       5.565  -5.910   1.110  0.00  0.00    -0.126 OA
ENDBRANCH  21  23
ENDBRANCH  11  17
BRANCH  12  26
ATOM     26  C   UNL     1       0.251  -7.751  -0.087  0.00  0.00    +0.195 C 
ATOM     27  O   UNL     1       0.052  -8.507   0.845  0.00  0.00    -0.287 OA
BRANCH  26  28
ATOM     28  C   UNL     1       0.981  -8.226  -1.282  0.00  0.00    +0.022 A 
ATOM     29  C   UNL     1       1.279  -7.340  -2.320  0.00  0.00    +0.012 A 
ATOM     30  C   UNL     1       1.963  -7.789  -3.430  0.00  0.00    +0.004 A 
ATOM     31  C   UNL     1       2.345  -9.116  -3.522  0.00  0.00    -0.050 A 
ATOM     32  C   UNL     1       2.049 -10.000  -2.499  0.00  0.00    +0.004 A 
ATOM     33  C   UNL     1       1.369  -9.564  -1.381  0.00  0.00    +0.012 A 
ATOM     34  C   UNL     1       3.087  -9.601  -4.740  0.00  0.00    +0.044 C 
ENDBRANCH  26  28
ENDBRANCH  12  26
BRANCH   1  35
ATOM     35  O   UNL     1       1.508   3.401   0.437  0.00  0.00    -0.492 OA
BRANCH  35  37
ATOM     36  C   UNL     1       2.654   5.526   0.542  0.00  0.00    +0.048 C 
ATOM     37  C   UNL     1       2.803   4.005   0.474  0.00  0.00    +0.225 C 
ENDBRANCH  35  37
ENDBRANCH   1  35
TORSDOF 6
