REMARK  Name = ZINC07683997
REMARK  13 active torsions:
REMARK  status: ('A' for Active; 'I' for Inactive)
REMARK    1  A    between atoms: C_1  and  C_2
REMARK    2  A    between atoms: C_2  and  N_52
REMARK    3  A    between atoms: C_3  and  C_4
REMARK    4  A    between atoms: C_3  and  N_52
REMARK    5  A    between atoms: N_6  and  C_7
REMARK    6  A    between atoms: C_8  and  C_15
REMARK    7  A    between atoms: C_10  and  C_14
REMARK    8  A    between atoms: C_16  and  C_17
REMARK    9  A    between atoms: C_16  and  N_52
REMARK   10  A    between atoms: N_19  and  C_20
REMARK   11  A    between atoms: C_20  and  C_21
REMARK   12  A    between atoms: C_20  and  C_22
REMARK   13  A    between atoms: C_20  and  C_23
REMARK                            x       y       z     vdW  Elec       q    Type
REMARK                         _______ _______ _______ _____ _____    ______ ____
ROOT
ATOM      1  C   UNL     1      -0.465   2.023   0.163  0.00  0.00    +0.020 C 
ENDROOT
BRANCH   1   2
ATOM      2  C   UNL     1      -0.969   2.068  -1.256  0.00  0.00    +0.201 C 
ATOM      3  O   UNL     1      -0.637   2.976  -1.989  0.00  0.00    -0.278 OA
ATOM      4  N   UNL     1      -1.789   1.101  -1.712  0.00  0.00    -0.286 N 
ATOM      5  H   UNL     1      -2.096   0.403  -1.112  0.00  0.00    +0.155 HD
BRANCH   4   6
ATOM      6  C   UNL     1      -2.199   1.103  -3.050  0.00  0.00    +0.055 A 
ATOM      7  C   UNL     1      -3.521   0.826  -3.374  0.00  0.00    -0.028 A 
ATOM      8  C   UNL     1      -3.922   0.829  -4.695  0.00  0.00    +0.008 A 
ATOM      9  C   UNL     1      -3.010   1.108  -5.696  0.00  0.00    -0.049 A 
ATOM     10  C   UNL     1      -1.693   1.384  -5.378  0.00  0.00    +0.025 A 
ATOM     11  C   UNL     1      -1.286   1.387  -4.058  0.00  0.00    +0.063 A 
ATOM     12 CL   UNL     1       0.367   1.741  -3.658  0.00  0.00    -0.082 Cl
ATOM     13  C   UNL     1      -3.452   1.110  -7.137  0.00  0.00    +0.044 C 
ATOM     14  C   UNL     1      -4.516   0.522  -2.284  0.00  0.00    +0.046 C 
ENDBRANCH   4   6
ENDBRANCH   1   2
BRANCH   1  15
ATOM     15  N   UNL     1       0.506   3.120   0.356  0.00  0.00    +0.391 N 
ATOM     16  H   UNL     1       1.107   3.183  -0.474  0.00  0.00    -0.080 HD
BRANCH  15  18
ATOM     17  C   UNL     1       2.407   1.809   1.158  0.00  0.00    -0.017 C 
ATOM     18  C   UNL     1       1.349   2.847   1.539  0.00  0.00    -0.081 C 
ENDBRANCH  15  18
BRANCH  15  19
ATOM     19  C   UNL     1      -0.208   4.402   0.530  0.00  0.00    +0.019 C 
BRANCH  19  20
ATOM     20  C   UNL     1       0.796   5.526   0.503  0.00  0.00    +0.197 C 
ATOM     21  O   UNL     1       1.976   5.281   0.371  0.00  0.00    -0.278 OA
ATOM     22  N   UNL     1       0.382   6.803   0.626  0.00  0.00    -0.312 N 
ATOM     23  H   UNL     1      -0.563   6.998   0.732  0.00  0.00    +0.149 HD
BRANCH  22  24
ATOM     24  C   UNL     1       1.357   7.895   0.600  0.00  0.00    +0.026 C 
ATOM     25  C   UNL     1       2.108   7.876  -0.733  0.00  0.00    +0.031 C 
ATOM     26  C   UNL     1       0.631   9.232   0.758  0.00  0.00    +0.031 C 
ATOM     27  C   UNL     1       2.353   7.717   1.748  0.00  0.00    +0.031 C 
ENDBRANCH  22  24
ENDBRANCH  19  20
ENDBRANCH  15  19
ENDBRANCH   1  15
TORSDOF 7
