REMARK  Name = ZINC04150088
REMARK  8 active torsions:
REMARK  status: ('A' for Active; 'I' for Inactive)
REMARK    1  A    between atoms: C_1  and  C_2
REMARK    2  A    between atoms: C_2  and  C_4
REMARK    3  A    between atoms: C_7  and  N_10
REMARK    4  A    between atoms: C_24  and  N_29
REMARK    5  A    between atoms: N_29  and  S_30
REMARK    6  A    between atoms: S_30  and  C_33
REMARK    7  A    between atoms: C_36  and  N_39
REMARK    8  A    between atoms: C_40  and  C_42
REMARK                            x       y       z     vdW  Elec       q    Type
REMARK                         _______ _______ _______ _____ _____    ______ ____
ROOT
ATOM      1  N   UNL     1      -1.000   1.426   2.739  0.00  0.00    -0.269 N 
ATOM      2  C   UNL     1      -1.598   0.220   2.689  0.00  0.00    +0.306 C 
ATOM      3  O   UNL     1      -1.264  -0.657   3.462  0.00  0.00    -0.252 OA
ATOM      4  N   UNL     1      -2.568  -0.015   1.783  0.00  0.00    -0.284 N 
ATOM      5  C   UNL     1      -2.904   0.990   0.767  0.00  0.00    +0.114 C 
ATOM      6  C   UNL     1      -2.919   0.356  -0.617  0.00  0.00    +0.027 C 
ATOM      7  C   UNL     1      -3.770  -0.915  -0.628  0.00  0.00    +0.018 C 
ATOM      8  C   UNL     1      -3.183  -1.900   0.386  0.00  0.00    +0.054 C 
ATOM      9  C   UNL     1      -3.313  -1.284   1.790  0.00  0.00    +0.119 C 
ATOM     10  C   UNL     1      -1.713  -2.105   0.101  0.00  0.00    +0.027 A 
ATOM     11  C   UNL     1      -1.155  -3.272   0.517  0.00  0.00    +0.024 A 
ATOM     12  C   UNL     1       0.226  -3.478   0.415  0.00  0.00    +0.031 A 
ATOM     13  C   UNL     1       1.007  -2.478  -0.095  0.00  0.00    +0.112 A 
ATOM     14  C   UNL     1       0.395  -1.286  -0.527  0.00  0.00    +0.274 A 
ATOM     15  O   UNL     1       1.084  -0.370  -0.947  0.00  0.00    -0.266 OA
ATOM     16  N   UNL     1      -0.953  -1.146  -0.481  0.00  0.00    -0.310 N 
ATOM     17  C   UNL     1      -1.520   0.045  -1.115  0.00  0.00    +0.130 C 
ATOM     18  H   UNL     1      -1.325   2.152   2.184  0.00  0.00    +0.156 HD
ENDROOT
BRANCH   1  22
ATOM     19  C   UNL     1       2.240   2.035   5.269  0.00  0.00    +0.017 A 
ATOM     20  C   UNL     1       1.312   3.062   5.057  0.00  0.00    +0.013 A 
ATOM     21  C   UNL     1       0.248   2.857   4.224  0.00  0.00    +0.024 A 
ATOM     22  C   UNL     1       0.086   1.630   3.587  0.00  0.00    +0.035 A 
ATOM     23  C   UNL     1       1.003   0.604   3.800  0.00  0.00    +0.024 A 
ATOM     24  C   UNL     1       2.073   0.802   4.626  0.00  0.00    +0.013 A 
BRANCH  19  26
ATOM     25  C   UNL     1       4.452   1.194   6.288  0.00  0.00    +0.091 C 
ATOM     26  C   UNL     1       3.385   2.250   6.163  0.00  0.00    +0.160 C 
ATOM     27  O   UNL     1       3.472   3.278   6.801  0.00  0.00    -0.292 OA
ENDBRANCH  19  26
ENDBRANCH   1  22
BRANCH  13  28
ATOM     28  N   UNL     1       2.395  -2.638  -0.186  0.00  0.00    -0.211 N 
ATOM     29  H   UNL     1       2.933  -1.962  -0.628  0.00  0.00    +0.174 HD
BRANCH  28  30
ATOM     30  S   UNL     1       3.119  -3.980   0.460  0.00  0.00    +0.072 S 
ATOM     31  O   UNL     1       2.357  -5.099   0.030  0.00  0.00    -0.150 OA
ATOM     32  O   UNL     1       4.510  -3.858   0.197  0.00  0.00    -0.150 OA
BRANCH  30  33
ATOM     33  C   UNL     1       2.928  -3.883   2.209  0.00  0.00    +0.109 A 
ATOM     34  C   UNL     1       3.795  -3.106   2.956  0.00  0.00    +0.030 A 
ATOM     35  C   UNL     1       3.644  -3.025   4.327  0.00  0.00    +0.025 A 
ATOM     36  C   UNL     1       2.628  -3.731   4.956  0.00  0.00    +0.033 A 
ATOM     37  C   UNL     1       1.762  -4.515   4.203  0.00  0.00    +0.025 A 
ATOM     38  C   UNL     1       1.915  -4.588   2.833  0.00  0.00    +0.030 A 
BRANCH  36  39
ATOM     39  N   UNL     1       2.476  -3.654   6.345  0.00  0.00    -0.286 N 
ATOM     40  C   UNL     1       3.562  -3.561   7.137  0.00  0.00    +0.214 C 
ATOM     41  O   UNL     1       4.665  -3.459   6.644  0.00  0.00    -0.276 OA
ATOM     42  C   UNL     1       3.405  -3.581   8.636  0.00  0.00    +0.109 C 
ATOM     43  H   UNL     1       1.589  -3.668   6.737  0.00  0.00    +0.155 HD
ENDBRANCH  36  39
ENDBRANCH  30  33
ENDBRANCH  28  30
ENDBRANCH  13  28
TORSDOF 6
