REMARK  Name = ZINC39675083
REMARK  7 active torsions:
REMARK  status: ('A' for Active; 'I' for Inactive)
REMARK    1  A    between atoms: C_1  and  C_2
REMARK    2  A    between atoms: C_4  and  C_32
REMARK    3  A    between atoms: N_5  and  C_7
REMARK    4  A    between atoms: C_7  and  C_8
REMARK    5  A    between atoms: C_8  and  N_9
REMARK    6  A    between atoms: C_10  and  C_12
REMARK    7  A    between atoms: C_23  and  C_25
REMARK                            x       y       z     vdW  Elec       q    Type
REMARK                         _______ _______ _______ _____ _____    ______ ____
ROOT
ATOM      1  C   UNL     1       2.723  -6.622   3.912  0.00  0.00    +0.100 C 
ATOM      2  C   UNL     1       1.967  -7.789   3.238  0.00  0.00    +0.121 C 
ATOM      3  N   UNL     1       3.023  -8.573   2.555  0.00  0.00    -0.300 N 
ATOM      4  C   UNL     1       4.164  -8.558   3.501  0.00  0.00    +0.115 C 
ATOM      5  C   UNL     1       4.163  -7.132   4.087  0.00  0.00    -0.004 C 
ATOM      6  C   UNL     1       4.535  -7.168   5.566  0.00  0.00    -0.010 C 
ATOM      7  C   UNL     1       5.990  -7.623   5.710  0.00  0.00    -0.082 C 
ATOM      8  N   UNL     1       6.869  -6.696   4.986  0.00  0.00    +0.379 N 
ATOM      9  C   UNL     1       6.565  -6.737   3.551  0.00  0.00    -0.082 C 
ATOM     10  C   UNL     1       5.135  -6.245   3.315  0.00  0.00    -0.010 C 
ATOM     11  C   UNL     1       2.959  -9.166   1.346  0.00  0.00    +0.219 C 
ATOM     12  O   UNL     1       3.916  -9.779   0.920  0.00  0.00    -0.275 OA
ATOM     13  H   UNL     1       6.725  -5.759   5.332  0.00  0.00    -0.086 HD
ATOM     14  H   UNL     1       7.831  -6.962   5.133  0.00  0.00    -0.086 HD
ENDROOT
BRANCH  11  15
ATOM     15  C   UNL     1       1.700  -9.069   0.524  0.00  0.00    +0.079 C 
ATOM     16  C   UNL     1       1.884  -9.833  -0.793  0.00  0.00    +0.017 C 
ATOM     17  C   UNL     1       0.665  -9.569  -1.680  0.00  0.00    +0.027 C 
ATOM     18  C   UNL     1      -0.598  -9.798  -0.903  0.00  0.00    -0.031 C 
ATOM     19  C   UNL     1      -0.655  -9.850   0.389  0.00  0.00    -0.030 C 
ATOM     20  C   UNL     1       0.534  -9.695   1.293  0.00  0.00    +0.039 C 
ENDBRANCH  11  15
BRANCH   1  22
ATOM     21  N   UNL     1       2.765  -4.172   3.574  0.00  0.00    -0.313 N 
ATOM     22  C   UNL     1       2.701  -5.402   3.028  0.00  0.00    +0.218 C 
ATOM     23  O   UNL     1       2.627  -5.528   1.824  0.00  0.00    -0.275 OA
ATOM     24  H   UNL     1       2.824  -4.072   4.537  0.00  0.00    +0.149 HD
BRANCH  21  25
ATOM     25  C   UNL     1       2.744  -2.986   2.714  0.00  0.00    +0.127 C 
BRANCH  25  26
ATOM     26  C   UNL     1       2.827  -1.727   3.579  0.00  0.00    +0.162 C 
BRANCH  26  31
ATOM     27  C   UNL     1       4.381   2.075   0.695  0.00  0.00    +0.067 C 
ATOM     28  C   UNL     1       3.508   1.115   1.461  0.00  0.00    +0.060 A 
ATOM     29  C   UNL     1       2.112   1.158   1.538  0.00  0.00    +0.047 A 
ATOM     30  C   UNL     1       1.707   0.129   2.317  0.00  0.00    +0.036 A 
ATOM     31  N   UNL     1       2.807  -0.542   2.719  0.00  0.00    -0.267 N 
ATOM     32  N   UNL     1       3.925   0.094   2.164  0.00  0.00    -0.176 NA
ATOM     33  C   UNL     1       0.281  -0.208   2.673  0.00  0.00    +0.065 C 
ENDBRANCH  26  31
ENDBRANCH  25  26
ENDBRANCH  21  25
ENDBRANCH   1  22
TORSDOF 5
