REMARK  Name = ZINC54158534
REMARK  7 active torsions:
REMARK  status: ('A' for Active; 'I' for Inactive)
REMARK    1  A    between atoms: C_1  and  C_2
REMARK    2  A    between atoms: C_6  and  N_18
REMARK    3  A    between atoms: C_7  and  C_8
REMARK    4  A    between atoms: C_10  and  C_13
REMARK    5  A    between atoms: C_13  and  C_15
REMARK    6  A    between atoms: C_13  and  C_16
REMARK    7  A    between atoms: C_16  and  N_17
REMARK                            x       y       z     vdW  Elec       q    Type
REMARK                         _______ _______ _______ _____ _____    ______ ____
ROOT
ATOM      1  C   UNL     1       0.035   0.268   2.334  0.00  0.00    +0.261 A 
ATOM      2  N   UNL     1       0.297  -0.127   3.560  0.00  0.00    -0.192 NA
ATOM      3  C   UNL     1       0.214   0.908   4.399  0.00  0.00    +0.173 A 
ATOM      4  N   UNL     1      -0.103   1.978   3.727  0.00  0.00    -0.061 NA
ATOM      5  O   UNL     1      -0.221   1.587   2.367  0.00  0.00    -0.333 OA
ENDROOT
BRANCH   1  12
ATOM      6  C   UNL     1       2.421  -1.197   1.606  0.00  0.00    +0.044 C 
ATOM      7  C   UNL     1       1.173  -1.300   0.767  0.00  0.00    -0.036 A 
ATOM      8  C   UNL     1       1.159  -2.101  -0.356  0.00  0.00    +0.004 A 
ATOM      9  C   UNL     1       0.013  -2.196  -1.126  0.00  0.00    +0.003 A 
ATOM     10  C   UNL     1      -1.124  -1.490  -0.776  0.00  0.00    +0.033 A 
ATOM     11  C   UNL     1      -1.122  -0.685   0.344  0.00  0.00    +0.139 A 
ATOM     12  C   UNL     1       0.028  -0.589   1.129  0.00  0.00    +0.072 A 
BRANCH  11  13
ATOM     13  N   UNL     1      -2.340   0.070   0.716  0.00  0.00    +0.057 N 
ATOM     14  O   UNL     1      -3.299   0.072  -0.020  0.00  0.00    -0.126 OA
ATOM     15  O   UNL     1      -2.375   0.686   1.756  0.00  0.00    -0.126 OA
ENDBRANCH  11  13
ENDBRANCH   1  12
BRANCH   3  16
ATOM     16  C   UNL     1       0.448   0.847   5.886  0.00  0.00    +0.040 C 
ATOM     17  C   UNL     1      -0.820   1.289   6.621  0.00  0.00    +0.014 C 
BRANCH  16  18
ATOM     18  C   UNL     1       1.603   1.778   6.259  0.00  0.00    -0.075 C 
BRANCH  18  19
ATOM     19  N   UNL     1       1.911   1.630   7.688  0.00  0.00    +0.379 N 
ATOM     20  H   UNL     1       1.096   1.870   8.234  0.00  0.00    -0.090 HD
ATOM     21  H   UNL     1       2.174   0.675   7.878  0.00  0.00    -0.090 HD
ATOM     22  H   UNL     1       2.673   2.244   7.934  0.00  0.00    -0.090 HD
ENDBRANCH  18  19
ENDBRANCH  16  18
ENDBRANCH   3  16
TORSDOF 5
