REMARK  Name = ZINC49037424
REMARK  8 active torsions:
REMARK  status: ('A' for Active; 'I' for Inactive)
REMARK    1  A    between atoms: C_3  and  C_8
REMARK    2  A    between atoms: C_10  and  C_13
REMARK    3  A    between atoms: C_13  and  C_14
REMARK    4  A    between atoms: C_14  and  C_16
REMARK    5  A    between atoms: C_14  and  N_37
REMARK    6  A    between atoms: N_18  and  C_19
REMARK    7  A    between atoms: C_20  and  C_34
REMARK    8  A    between atoms: C_22  and  C_26
REMARK                            x       y       z     vdW  Elec       q    Type
REMARK                         _______ _______ _______ _____ _____    ______ ____
ROOT
ATOM      1  C   UNL     1       9.234   1.630  -1.487  0.00  0.00    +0.203 C 
ATOM      2  O   UNL     1      10.073   2.493  -1.631  0.00  0.00    -0.277 OA
ATOM      3  N   UNL     1       9.607   0.341  -1.363  0.00  0.00    -0.290 N 
ATOM      4  H   UNL     1       8.943  -0.341  -1.178  0.00  0.00    +0.154 HD
ENDROOT
BRANCH   3   5
ATOM      5  C   UNL     1      10.927  -0.006  -1.497  0.00  0.00    +0.021 C 
ATOM      6  C   UNL     1      11.258  -0.876  -2.457  0.00  0.00    +0.058 C 
ATOM      7  C   UNL     1      12.662  -1.348  -2.700  0.00  0.00    +0.052 C 
ATOM      8  C   UNL     1      13.658  -0.404  -2.024  0.00  0.00    +0.024 C 
ATOM      9  C   UNL     1      13.224  -0.195  -0.569  0.00  0.00    +0.014 C 
ATOM     10  C   UNL     1      11.924   0.615  -0.562  0.00  0.00    +0.052 C 
BRANCH   8  11
ATOM     11  C   UNL     1      15.037  -1.012  -2.062  0.00  0.00    -0.039 A 
ATOM     12  C   UNL     1      15.270  -2.233  -1.460  0.00  0.00    +0.042 A 
ATOM     13  C   UNL     1      16.536  -2.793  -1.494  0.00  0.00    +0.126 A 
ATOM     14  C   UNL     1      17.569  -2.128  -2.132  0.00  0.00    +0.076 A 
ATOM     15  C   UNL     1      17.334  -0.904  -2.735  0.00  0.00    +0.126 A 
ATOM     16  C   UNL     1      16.066  -0.349  -2.704  0.00  0.00    +0.042 A 
ATOM     17  F   UNL     1      18.342  -0.254  -3.357  0.00  0.00    -0.205 F 
ATOM     18  F   UNL     1      16.763  -3.987  -0.905  0.00  0.00    -0.205 F 
ENDBRANCH   8  11
BRANCH   6  19
ATOM     19  C   UNL     1      10.232  -1.377  -3.287  0.00  0.00    +0.384 C 
ATOM     20  O   UNL     1       9.094  -0.934  -3.189  0.00  0.00    -0.241 OA
ATOM     21  O   UNL     1      10.480  -2.255  -4.105  0.00  0.00    -0.241 OA
ENDBRANCH   6  19
ENDBRANCH   3   5
BRANCH   1  22
ATOM     22  C   UNL     1       7.773   1.998  -1.448  0.00  0.00    +0.022 C 
BRANCH  22  23
ATOM     23  N   UNL     1       7.583   3.318  -2.063  0.00  0.00    +0.386 N 
ATOM     24  H   UNL     1       7.897   3.290  -3.022  0.00  0.00    -0.089 HD
ATOM     25  H   UNL     1       6.606   3.564  -2.036  0.00  0.00    -0.089 HD
ATOM     26  H   UNL     1       8.118   4.006  -1.554  0.00  0.00    -0.089 HD
ENDBRANCH  22  23
BRANCH  22  27
ATOM     27  C   UNL     1       7.297   2.040   0.006  0.00  0.00    +0.092 C 
BRANCH  27  30
ATOM     28  C   UNL     1       3.670   1.941   0.071  0.00  0.00    +0.220 A 
ATOM     29  N   UNL     1       4.886   1.369   0.032  0.00  0.00    -0.190 NA
ATOM     30  C   UNL     1       5.811   2.287   0.041  0.00  0.00    +0.227 A 
ATOM     31  O   UNL     1       5.218   3.487   0.087  0.00  0.00    -0.338 OA
ATOM     32  N   UNL     1       3.819   3.242   0.100  0.00  0.00    -0.054 NA
BRANCH  28  35
ATOM     33  C   UNL     1      -0.020   1.252   0.115  0.00  0.00    +0.042 A 
ATOM     34  C   UNL     1       1.182   1.938   0.112  0.00  0.00    +0.034 A 
ATOM     35  C   UNL     1       2.373   1.218   0.075  0.00  0.00    +0.111 A 
ATOM     36  N   UNL     1       2.360  -0.108   0.042  0.00  0.00    -0.249 NA
ATOM     37  C   UNL     1       1.232  -0.788   0.044  0.00  0.00    +0.149 A 
ATOM     38  C   UNL     1       0.009  -0.136   0.080  0.00  0.00    +0.141 A 
ATOM     39  F   UNL     1      -1.141  -0.844   0.081  0.00  0.00    -0.204 F 
ENDBRANCH  28  35
ENDBRANCH  27  30
ENDBRANCH  22  27
ENDBRANCH   1  22
TORSDOF 8
