REMARK  Name = ZINC63406140
REMARK  6 active torsions:
REMARK  status: ('A' for Active; 'I' for Inactive)
REMARK    1  A    between atoms: C_1  and  O_2
REMARK    2  A    between atoms: O_2  and  C_3
REMARK    3  A    between atoms: C_3  and  C_4
REMARK    4  A    between atoms: C_6  and  C_17
REMARK    5  A    between atoms: N_19  and  N_20
REMARK    6  A    between atoms: C_21  and  C_22
REMARK                            x       y       z     vdW  Elec       q    Type
REMARK                         _______ _______ _______ _____ _____    ______ ____
ROOT
ATOM      1  C   UNL     1       0.633  -2.108   1.011  0.00  0.00    +0.162 C 
ATOM      2  C   UNL     1       1.300  -2.766   2.236  0.00  0.00    +0.241 C 
ATOM      3  N   UNL     1       2.430  -3.513   1.666  0.00  0.00    -0.156 NA
ATOM      4  N   UNL     1       2.481  -3.381   0.447  0.00  0.00    -0.077 NA
ATOM      5  N   UNL     1       1.479  -2.574  -0.104  0.00  0.00    -0.175 N 
ATOM      6  C   UNL     1       1.310  -2.267  -1.452  0.00  0.00    +0.228 A 
ATOM      7  C   UNL     1       2.154  -2.742  -2.554  0.00  0.00    +0.204 A 
ATOM      8  N   UNL     1       1.690  -2.248  -3.668  0.00  0.00    -0.032 NA
ATOM      9  O   UNL     1       0.558  -1.455  -3.354  0.00  0.00    -0.239 OA
ATOM     10  N   UNL     1       0.370  -1.513  -1.952  0.00  0.00    -0.030 NA
ATOM     11  N   UNL     1       3.260  -3.575  -2.431  0.00  0.00    -0.338 N 
ATOM     12  H   UNL     1       3.533  -3.893  -1.556  0.00  0.00    +0.144 HD
ATOM     13  H   UNL     1       3.760  -3.837  -3.220  0.00  0.00    +0.144 HD
ENDROOT
BRANCH   2  14
ATOM     14  C   UNL     1       1.790  -1.716   3.200  0.00  0.00    +0.261 C 
ATOM     15  O   UNL     1       2.961  -1.403   3.212  0.00  0.00    -0.272 OA
ATOM     16  N   UNL     1       0.925  -1.124   4.047  0.00  0.00    -0.205 N 
ATOM     17  H   UNL     1      -0.012  -1.374   4.037  0.00  0.00    +0.177 HD
BRANCH  16  18
ATOM     18  N   UNL     1       1.380  -0.147   4.943  0.00  0.00    -0.188 NA
ATOM     19  C   UNL     1       0.540   0.428   5.766  0.00  0.00    +0.136 C 
BRANCH  19  20
ATOM     20  C   UNL     1       0.996   1.405   6.663  0.00  0.00    +0.000 C 
ATOM     21  C   UNL     1       0.241   2.104   7.601  0.00  0.00    +0.004 A 
ATOM     22  C   UNL     1      -1.130   2.069   7.941  0.00  0.00    +0.010 A 
ATOM     23  C   UNL     1      -1.602   2.882   8.920  0.00  0.00    +0.001 A 
ATOM     24  C   UNL     1      -0.762   3.763   9.609  0.00  0.00    +0.002 A 
ATOM     25  C   UNL     1       0.561   3.850   9.336  0.00  0.00    +0.026 A 
ATOM     26  C   UNL     1       1.130   3.030   8.325  0.00  0.00    +0.043 A 
ATOM     27  N   UNL     1       2.363   2.928   7.878  0.00  0.00    -0.380 N 
ATOM     28  C   UNL     1       2.411   1.916   6.817  0.00  0.00    +0.150 C 
ATOM     29  H   UNL     1       3.122   3.438   8.202  0.00  0.00    +0.160 HD
ENDBRANCH  19  20
ENDBRANCH  16  18
ENDBRANCH   2  14
BRANCH   1  30
ATOM     30  C   UNL     1       0.673  -0.582   1.123  0.00  0.00    +0.186 C 
BRANCH  30  32
ATOM     31  C   UNL     1      -0.017   1.425   0.010  0.00  0.00    +0.194 C 
ATOM     32  O   UNL     1       0.002  -0.004   0.002  0.00  0.00    -0.381 OA
ENDBRANCH  30  32
ENDBRANCH   1  30
TORSDOF 5
