REMARK  Name = ZINC51119549
REMARK  6 active torsions:
REMARK  status: ('A' for Active; 'I' for Inactive)
REMARK    1  A    between atoms: C_1  and  C_2
REMARK    2  A    between atoms: C_5  and  C_8
REMARK    3  A    between atoms: C_8  and  C_10
REMARK    4  A    between atoms: C_8  and  N_11
REMARK    5  A    between atoms: C_12  and  C_14
REMARK    6  A    between atoms: N_20  and  N_21
REMARK                            x       y       z     vdW  Elec       q    Type
REMARK                         _______ _______ _______ _____ _____    ______ ____
ROOT
ATOM      1  N   UNL     1       0.959  -4.758   1.029  0.00  0.00    -0.303 N 
ATOM      2  C   UNL     1       1.534  -5.972   0.919  0.00  0.00    +0.265 C 
ATOM      3  O   UNL     1       1.306  -6.667  -0.052  0.00  0.00    -0.268 OA
ATOM      4  H   UNL     1       1.142  -4.204   1.804  0.00  0.00    +0.150 HD
ENDROOT
BRANCH   2   5
ATOM      5  C   UNL     1       2.442  -6.459   1.979  0.00  0.00    +0.148 A 
ATOM      6  C   UNL     1       3.045  -7.718   1.864  0.00  0.00    +0.038 A 
ATOM      7  C   UNL     1       3.887  -8.130   2.880  0.00  0.00    +0.049 A 
ATOM      8  C   UNL     1       4.085  -7.266   3.959  0.00  0.00    +0.155 A 
ATOM      9  N   UNL     1       3.471  -6.088   3.985  0.00  0.00    -0.132 NA
ATOM     10  N   UNL     1       2.693  -5.702   3.040  0.00  0.00    -0.143 NA
ATOM     11  N   UNL     1       4.920  -7.637   5.000  0.00  0.00    -0.266 N 
ATOM     12  H   UNL     1       5.367  -8.497   4.981  0.00  0.00    +0.167 HD
BRANCH  11  13
ATOM     13  N   UNL     1       5.112  -6.791   6.055  0.00  0.00    -0.255 NA
ATOM     14  H   UNL     1       5.742  -7.195   6.732  0.00  0.00    +0.140 HD
ATOM     15  H   UNL     1       5.447  -5.892   5.742  0.00  0.00    +0.140 HD
ENDBRANCH  11  13
ENDBRANCH   2   5
BRANCH   1  16
ATOM     16  C   UNL     1       0.059  -4.275  -0.021  0.00  0.00    +0.100 C 
ATOM     17  C   UNL     1      -1.353  -4.805   0.234  0.00  0.00    +0.033 C 
BRANCH  16  22
ATOM     18  C   UNL     1      -0.018   1.503   0.010  0.00  0.00    +0.044 C 
ATOM     19  C   UNL     1       0.002  -0.004   0.002  0.00  0.00    -0.050 A 
ATOM     20  C   UNL     1       0.006  -0.689  -1.199  0.00  0.00    +0.004 A 
ATOM     21  C   UNL     1       0.025  -2.071  -1.206  0.00  0.00    +0.006 A 
ATOM     22  C   UNL     1       0.040  -2.768  -0.013  0.00  0.00    -0.027 A 
ATOM     23  C   UNL     1       0.037  -2.084   1.188  0.00  0.00    +0.006 A 
ATOM     24  C   UNL     1       0.023  -0.702   1.195  0.00  0.00    +0.004 A 
ENDBRANCH  16  22
ENDBRANCH   1  16
TORSDOF 4
