REMARK  Name = ZINC21999626
REMARK  12 active torsions:
REMARK  status: ('A' for Active; 'I' for Inactive)
REMARK    1  A    between atoms: C_1  and  C_2
REMARK    2  A    between atoms: C_2  and  C_3
REMARK    3  A    between atoms: C_3  and  C_4
REMARK    4  A    between atoms: C_4  and  O_6
REMARK    5  A    between atoms: C_4  and  O_7
REMARK    6  A    between atoms: O_7  and  C_8
REMARK    7  A    between atoms: C_23  and  C_38
REMARK    8  A    between atoms: C_26  and  O_37
REMARK    9  A    between atoms: C_29  and  C_36
REMARK   10  A    between atoms: C_30  and  C_32
REMARK   11  A    between atoms: C_32  and  C_34
REMARK   12  A    between atoms: C_34  and  O_35
REMARK                            x       y       z     vdW  Elec       q    Type
REMARK                         _______ _______ _______ _____ _____    ______ ____
ROOT
ATOM      1  C   UNL     1      -2.065   5.847  -4.304  0.00  0.00    +0.132 C 
ATOM      2  C   UNL     1      -1.460   4.676  -3.483  0.00  0.00    +0.036 C 
ATOM      3  C   UNL     1      -2.223   4.758  -2.156  0.00  0.00    +0.002 C 
ATOM      4  C   UNL     1      -1.534   4.127  -0.959  0.00  0.00    -0.000 C 
ATOM      5  C   UNL     1      -1.389   2.619  -1.178  0.00  0.00    +0.008 C 
ATOM      6  C   UNL     1      -0.637   1.998   0.003  0.00  0.00    +0.032 C 
ATOM      7  C   UNL     1      -1.369   2.368   1.279  0.00  0.00    -0.056 C 
ATOM      8  C   UNL     1      -1.699   1.409   2.132  0.00  0.00    +0.051 C 
ATOM      9  C   UNL     1      -2.428   1.726   3.370  0.00  0.00    +0.179 C 
ATOM     10  O   UNL     1      -2.699   0.854   4.174  0.00  0.00    -0.288 OA
ATOM     11  C   UNL     1      -2.824   3.124   3.613  0.00  0.00    +0.047 C 
ATOM     12  C   UNL     1      -2.489   4.049   2.747  0.00  0.00    -0.012 C 
ATOM     13  C   UNL     1      -1.686   3.816   1.513  0.00  0.00    +0.013 C 
ATOM     14  C   UNL     1      -2.400   4.386   0.284  0.00  0.00    +0.035 C 
ATOM     15  C   UNL     1      -2.671   5.877   0.479  0.00  0.00    +0.120 C 
ATOM     16  C   UNL     1      -3.247   6.537  -0.783  0.00  0.00    +0.039 C 
ATOM     17  C   UNL     1      -2.260   6.290  -1.908  0.00  0.00    -0.015 C 
ATOM     18  C   UNL     1      -2.629   6.858  -3.274  0.00  0.00    +0.093 C 
ATOM     19  C   UNL     1      -0.870   6.782  -1.500  0.00  0.00    +0.012 C 
ATOM     20  C   UNL     1      -0.360   4.563   1.670  0.00  0.00    +0.020 C 
ENDROOT
BRANCH  18  21
ATOM     21  C   UNL     1      -1.994   8.211  -3.469  0.00  0.00    +0.164 C 
ATOM     22  O   UNL     1      -0.908   8.299  -3.988  0.00  0.00    -0.295 OA
BRANCH  21  23
ATOM     23  C   UNL     1      -2.715   9.454  -3.014  0.00  0.00    +0.230 C 
BRANCH  23  24
ATOM     24  O   UNL     1      -1.915  10.601  -3.305  0.00  0.00    -0.388 OA
ATOM     25  H   UNL     1      -2.280  11.606  -3.044  0.00  0.00    +0.210 HD
ENDBRANCH  23  24
ENDBRANCH  21  23
ENDBRANCH  18  21
BRANCH  15  26
ATOM     26  O   UNL     1      -1.439   6.516   0.819  0.00  0.00    -0.391 OA
ATOM     27  H   UNL     1      -1.414   7.600   1.003  0.00  0.00    +0.210 HD
ENDBRANCH  15  26
BRANCH   1  28
ATOM     28  O   UNL     1      -3.116   5.366  -5.145  0.00  0.00    -0.348 OA
BRANCH  28  29
ATOM     29  C   UNL     1      -2.684   4.979  -6.451  0.00  0.00    +0.247 C 
BRANCH  29  30
ATOM     30  O   UNL     1      -2.204   6.127  -7.154  0.00  0.00    -0.367 OA
ATOM     31  H   UNL     1      -1.356   6.702  -6.753  0.00  0.00    +0.212 HD
ENDBRANCH  29  30
BRANCH  29  32
ATOM     32  C   UNL     1      -3.859   4.367  -7.216  0.00  0.00    +0.061 C 
BRANCH  32  34
ATOM     33  C   UNL     1      -4.544   3.229  -9.332  0.00  0.00    +0.004 C 
ATOM     34  C   UNL     1      -3.369   3.840  -8.567  0.00  0.00    +0.002 C 
ENDBRANCH  32  34
ENDBRANCH  29  32
ENDBRANCH  28  29
ENDBRANCH   1  28
TORSDOF 9
