REMARK  Name = ZINC64684846
REMARK  10 active torsions:
REMARK  status: ('A' for Active; 'I' for Inactive)
REMARK    1  A    between atoms: C_1  and  C_2
REMARK    2  A    between atoms: C_2  and  C_3
REMARK    3  A    between atoms: C_2  and  N_4
REMARK    4  A    between atoms: C_5  and  S_10
REMARK    5  A    between atoms: S_10  and  C_11
REMARK    6  A    between atoms: C_11  and  C_12
REMARK    7  A    between atoms: N_14  and  CA_15
REMARK    8  A    between atoms: CA_15  and  CB_17
REMARK    9  A    between atoms: CA_15  and  C_27
REMARK   10  A    between atoms: CB_17  and  CG_18
REMARK                            x       y       z     vdW  Elec       q    Type
REMARK                         _______ _______ _______ _____ _____    ______ ____
ROOT
ATOM      1  C   UNK A   0      -1.986   2.994   0.830  0.00  0.00    +0.224 C 
ATOM      2  O   UNK A   0      -3.118   2.658   1.108  0.00  0.00    -0.275 OA
ATOM      3  N   TRP A   1      -1.770   4.140   0.154  0.00  0.00    -0.301 N 
ATOM      4  H   TRP A   1      -0.865   4.408  -0.068  0.00  0.00    +0.150 HD
ENDROOT
BRANCH   1   5
ATOM      5  C   UNK A   0      -0.822   2.129   1.239  0.00  0.00    +0.167 C 
BRANCH   5   6
ATOM      6  S   UNK A   0      -1.434   0.669   2.124  0.00  0.00    -0.117 S 
BRANCH   6   8
ATOM      7  N   UNK A   0       0.470  -1.106   1.389  0.00  0.00    -0.228 NA
ATOM      8  C   UNK A   0       0.070  -0.259   2.533  0.00  0.00    +0.184 C 
ATOM      9  N   UNK A   0       1.196   0.672   2.771  0.00  0.00    -0.323 NA
ATOM     10  N   UNK A   0       2.360  -0.014   2.187  0.00  0.00    +0.409 N 
ATOM     11  N   UNK A   0       1.804  -0.652   0.985  0.00  0.00    -0.280 NA
ATOM     12  H   UNK A   0       1.035   1.559   2.317  0.00  0.00    +0.106 HD
ATOM     13  H   UNK A   0       3.077   0.650   1.938  0.00  0.00    -0.032 HD
ATOM     14  H   UNK A   0       2.376  -1.430   0.691  0.00  0.00    +0.121 HD
ATOM     15  H   UNK A   0       2.720  -0.708   2.825  0.00  0.00    -0.032 HD
BRANCH   7  17
ATOM     16  C   UNK A   0       0.110  -1.610  -0.980  0.00  0.00    +0.025 C 
ATOM     17  C   UNK A   0      -0.486  -0.982   0.281  0.00  0.00    +0.067 C 
ATOM     18  C   UNK A   0      -1.785  -1.704   0.646  0.00  0.00    +0.025 C 
ENDBRANCH   7  17
ENDBRANCH   6   8
ENDBRANCH   5   6
ENDBRANCH   1   5
BRANCH   3  19
ATOM     19  CA  TRP A   1      -2.902   4.981  -0.244  0.00  0.00    +0.190 C 
BRANCH  19  20
ATOM     20  C   TRP A   1      -3.460   4.484  -1.552  0.00  0.00    +0.376 C 
ATOM     21  O   TRP A   1      -4.645   4.627  -1.803  0.00  0.00    -0.244 OA
ATOM     22  OXT TRP A   1      -2.728   3.940  -2.361  0.00  0.00    -0.244 OA
ENDBRANCH  19  20
BRANCH  19  23
ATOM     23  CB  TRP A   1      -2.430   6.427  -0.406  0.00  0.00    +0.067 C 
BRANCH  23  24
ATOM     24  CG  TRP A   1      -1.986   6.964   0.930  0.00  0.00    -0.039 C 
ATOM     25  CD2 TRP A   1      -0.724   6.993   1.415  0.00  0.00    -0.001 A 
ATOM     26  CE3 TRP A   1       0.563   6.550   0.866  0.00  0.00    +0.010 A 
ATOM     27  CZ3 TRP A   1       1.684   6.715   1.605  0.00  0.00    +0.001 A 
ATOM     28  CH2 TRP A   1       1.647   7.297   2.880  0.00  0.00    +0.002 A 
ATOM     29  CZ2 TRP A   1       0.502   7.728   3.452  0.00  0.00    +0.026 A 
ATOM     30  CE2 TRP A   1      -0.736   7.604   2.764  0.00  0.00    +0.043 A 
ATOM     31  NE1 TRP A   1      -1.958   7.940   3.099  0.00  0.00    -0.380 N 
ATOM     32  CD1 TRP A   1      -2.860   7.584   1.997  0.00  0.00    +0.144 C 
ATOM     33  HE1 TRP A   1      -2.222   8.357   3.934  0.00  0.00    +0.160 HD
ENDBRANCH  23  24
ENDBRANCH  19  23
ENDBRANCH   3  19
TORSDOF 8
