REMARK  Name = ZINC49799851
REMARK  2 active torsions:
REMARK  status: ('A' for Active; 'I' for Inactive)
REMARK    1  A    between atoms: C_3  and  C_6
REMARK    2  A    between atoms: C_15  and  C_16
REMARK                            x       y       z     vdW  Elec       q    Type
REMARK                         _______ _______ _______ _____ _____    ______ ____
ROOT
ATOM      1  C   UNL     1       3.530   0.621   0.084  0.00  0.00    +0.282 C 
ATOM      2  O   UNL     1       2.329   0.640   0.278  0.00  0.00    -0.267 OA
ATOM      3  N   UNL     1       4.171  -0.557  -0.059  0.00  0.00    -0.293 N 
ATOM      4  C   UNL     1       3.396  -1.796  -0.168  0.00  0.00    +0.112 C 
ATOM      5  C   UNL     1       3.835  -2.786   0.922  0.00  0.00    +0.051 C 
ATOM      6  C   UNL     1       5.362  -2.806   0.895  0.00  0.00    -0.039 C 
ATOM      7  C   UNL     1       6.121  -1.486   1.039  0.00  0.00    +0.097 C 
ATOM      8  S   UNL     1       7.854  -2.005   0.761  0.00  0.00    -0.096 S 
ATOM      9  C   UNL     1       7.579  -3.765   0.638  0.00  0.00    +0.101 C 
ATOM     10  C   UNL     1       6.107  -3.884   0.731  0.00  0.00    +0.068 C 
ATOM     11  N   UNL     1       8.461  -4.716   0.500  0.00  0.00    -0.292 NA
ATOM     12  C   UNL     1       5.641  -0.584  -0.109  0.00  0.00    +0.127 C 
ATOM     13  H   UNL     1       8.171  -5.632   0.371  0.00  0.00    +0.187 HD
ENDROOT
BRANCH   1  16
ATOM     14  C   UNL     1       4.846   4.026   0.074  0.00  0.00    +0.042 A 
ATOM     15  C   UNL     1       3.790   3.123   0.275  0.00  0.00    +0.054 A 
ATOM     16  C   UNL     1       4.281   1.878   0.006  0.00  0.00    +0.189 A 
ATOM     17  O   UNL     1       5.577   2.007  -0.344  0.00  0.00    -0.458 OA
ATOM     18  C   UNL     1       5.922   3.300  -0.304  0.00  0.00    +0.196 A 
ENDBRANCH   1  16
BRANCH  10  19
ATOM     19  C   UNL     1       5.469  -5.213   0.642  0.00  0.00    +0.244 C 
ATOM     20  O   UNL     1       5.322  -5.745  -0.441  0.00  0.00    -0.270 OA
ATOM     21  N   UNL     1       5.049  -5.835   1.761  0.00  0.00    -0.325 N 
ATOM     22  H   UNL     1       5.100  -5.382   2.617  0.00  0.00    +0.145 HD
ATOM     23  H   UNL     1       4.695  -6.737   1.711  0.00  0.00    +0.145 HD
ENDBRANCH  10  19
TORSDOF 2
