REMARK  Name = ZINC20274643
REMARK  9 active torsions:
REMARK  status: ('A' for Active; 'I' for Inactive)
REMARK    1  A    between atoms: C_1  and  O_2
REMARK    2  A    between atoms: O_2  and  C_3
REMARK    3  A    between atoms: C_7  and  C_18
REMARK    4  A    between atoms: C_8  and  O_9
REMARK    5  A    between atoms: O_9  and  C_10
REMARK    6  A    between atoms: C_10  and  C_11
REMARK    7  A    between atoms: C_21  and  C_32
REMARK    8  A    between atoms: C_27  and  N_31
REMARK    9  A    between atoms: C_28  and  C_29
REMARK                            x       y       z     vdW  Elec       q    Type
REMARK                         _______ _______ _______ _____ _____    ______ ____
ROOT
ATOM      1  C   UNL     1      -2.289  -4.906  -0.025  0.00  0.00    +0.105 C 
ATOM      2  C   UNL     1      -3.291  -4.966  -1.149  0.00  0.00    +0.054 A 
ATOM      3  C   UNL     1      -3.124  -4.649  -2.501  0.00  0.00    +0.100 A 
ATOM      4  N   UNL     1      -4.276  -4.854  -3.111  0.00  0.00    -0.171 NA
ATOM      5  N   UNL     1      -5.205  -5.307  -2.161  0.00  0.00    -0.246 N 
ATOM      6  H   UNL     1      -6.132  -5.535  -2.333  0.00  0.00    +0.192 HD
ATOM      7  C   UNL     1      -4.581  -5.370  -0.966  0.00  0.00    +0.223 A 
ATOM      8  O   UNL     1      -5.064  -5.752   0.243  0.00  0.00    -0.423 OA
ATOM      9  C   UNL     1      -4.172  -5.990   1.225  0.00  0.00    +0.200 C 
ATOM     10  C   UNL     1      -2.871  -5.627   1.165  0.00  0.00    +0.098 C 
ENDROOT
BRANCH   1  15
ATOM     11  C   UNL     1      -0.463  -1.673   0.711  0.00  0.00    +0.162 A 
ATOM     12  C   UNL     1      -1.519  -0.824   1.000  0.00  0.00    +0.049 A 
ATOM     13  C   UNL     1      -2.817  -1.297   0.956  0.00  0.00    +0.004 A 
ATOM     14  C   UNL     1      -3.065  -2.617   0.625  0.00  0.00    +0.008 A 
ATOM     15  C   UNL     1      -2.015  -3.468   0.335  0.00  0.00    +0.011 A 
ATOM     16  C   UNL     1      -0.712  -2.999   0.372  0.00  0.00    +0.166 A 
BRANCH  11  18
ATOM     17  C   UNL     1       0.996   0.163   1.110  0.00  0.00    +0.277 C 
ATOM     18  O   UNL     1       0.815  -1.209   0.753  0.00  0.00    -0.491 OA
ENDBRANCH  11  18
BRANCH  16  19
ATOM     19  O   UNL     1       0.321  -3.834   0.082  0.00  0.00    -0.483 OA
BRANCH  19  20
ATOM     20  C   UNL     1       0.893  -4.561   1.171  0.00  0.00    +0.266 C 
BRANCH  20  21
ATOM     21  C   UNL     1       2.016  -5.428   0.662  0.00  0.00    +0.008 A 
ATOM     22  C   UNL     1       2.342  -5.418  -0.682  0.00  0.00    +0.008 A 
ATOM     23  C   UNL     1       3.373  -6.213  -1.149  0.00  0.00    +0.000 A 
ATOM     24  C   UNL     1       4.077  -7.018  -0.273  0.00  0.00    +0.001 A 
ATOM     25  C   UNL     1       3.752  -7.029   1.070  0.00  0.00    +0.020 A 
ATOM     26  C   UNL     1       2.724  -6.229   1.539  0.00  0.00    +0.047 A 
ATOM     27 CL   UNL     1       2.319  -6.237   3.227  0.00  0.00    -0.083 Cl
ENDBRANCH  20  21
ENDBRANCH  19  20
ENDBRANCH  16  19
ENDBRANCH   1  15
BRANCH   3  28
ATOM     28  C   UNL     1      -1.873  -4.166  -3.137  0.00  0.00    +0.003 A 
ATOM     29  C   UNL     1      -1.430  -4.735  -4.329  0.00  0.00    +0.010 A 
ATOM     30  C   UNL     1      -0.266  -4.283  -4.916  0.00  0.00    +0.001 A 
ATOM     31  C   UNL     1       0.461  -3.266  -4.323  0.00  0.00    +0.000 A 
ATOM     32  C   UNL     1       0.026  -2.698  -3.139  0.00  0.00    +0.001 A 
ATOM     33  C   UNL     1      -1.140  -3.139  -2.546  0.00  0.00    +0.010 A 
ENDBRANCH   3  28
BRANCH   9  34
ATOM     34  N   UNL     1      -4.610  -6.638   2.353  0.00  0.00    -0.328 N 
ATOM     35  H   UNL     1      -5.538  -6.911   2.426  0.00  0.00    +0.145 HD
ATOM     36  H   UNL     1      -3.992  -6.823   3.077  0.00  0.00    +0.145 HD
ENDBRANCH   9  34
BRANCH  10  37
ATOM     37  C   UNL     1      -2.014  -5.939   2.269  0.00  0.00    +0.101 C 
ATOM     38  N   UNL     1      -1.335  -6.185   3.146  0.00  0.00    -0.191 NA
ENDBRANCH  10  37
TORSDOF 8
