REMARK  Name = ZINC02359085
REMARK  9 active torsions:
REMARK  status: ('A' for Active; 'I' for Inactive)
REMARK    1  A    between atoms: C_1  and  C_2
REMARK    2  A    between atoms: C_5  and  C_16
REMARK    3  A    between atoms: C_7  and  S_8
REMARK    4  A    between atoms: S_8  and  N_11
REMARK    5  A    between atoms: N_11  and  C_12
REMARK    6  A    between atoms: C_12  and  C_13
REMARK    7  A    between atoms: C_12  and  C_14
REMARK    8  A    between atoms: C_12  and  C_15
REMARK    9  A    between atoms: C_22  and  C_29
REMARK                            x       y       z     vdW  Elec       q    Type
REMARK                         _______ _______ _______ _____ _____    ______ ____
ROOT
ATOM      1  C   UNL     1      -9.550   1.071  -0.885  0.00  0.00    +0.046 C 
ATOM      2  C   UNL     1      -8.257   1.832  -0.744  0.00  0.00    -0.024 A 
ATOM      3  C   UNL     1      -7.156   1.465  -1.498  0.00  0.00    +0.006 A 
ATOM      4  C   UNL     1      -5.969   2.156  -1.372  0.00  0.00    +0.012 A 
ATOM      5  C   UNL     1      -5.880   3.229  -0.483  0.00  0.00    +0.023 A 
ATOM      6  C   UNL     1      -6.992   3.590   0.278  0.00  0.00    +0.040 A 
ATOM      7  C   UNL     1      -8.175   2.894   0.140  0.00  0.00    +0.109 A 
ENDROOT
BRANCH   5   8
ATOM      8  C   UNL     1      -4.611   3.974  -0.344  0.00  0.00    +0.185 A 
ATOM      9  N   UNL     1      -4.297   4.807   0.628  0.00  0.00    -0.127 NA
ATOM     10  N   UNL     1      -3.116   5.281   0.438  0.00  0.00    -0.127 NA
ATOM     11  C   UNL     1      -2.606   4.777  -0.668  0.00  0.00    +0.186 A 
ATOM     12  N   UNL     1      -3.545   3.928  -1.200  0.00  0.00    -0.192 N 
ATOM     13  N   UNL     1      -3.305   3.236  -2.386  0.00  0.00    -0.168 NA
ATOM     14  C   UNL     1      -2.190   3.342  -3.046  0.00  0.00    +0.067 A 
ATOM     15  C   UNL     1      -1.125   4.221  -2.565  0.00  0.00    +0.008 A 
ATOM     16  C   UNL     1      -1.330   4.946  -1.367  0.00  0.00    +0.030 A 
ATOM     17  C   UNL     1      -0.330   5.790  -0.888  0.00  0.00    +0.012 A 
ATOM     18  C   UNL     1       0.851   5.910  -1.587  0.00  0.00    +0.001 A 
ATOM     19  C   UNL     1       1.054   5.199  -2.762  0.00  0.00    +0.001 A 
ATOM     20  C   UNL     1       0.081   4.360  -3.255  0.00  0.00    +0.010 A 
ATOM     21  C   UNL     1      -1.997   2.560  -4.320  0.00  0.00    +0.068 C 
ENDBRANCH   5   8
BRANCH   7  22
ATOM     22  S   UNL     1      -9.583   3.353   1.095  0.00  0.00    +0.059 S 
ATOM     23  O   UNL     1      -9.168   4.411   1.948  0.00  0.00    -0.153 OA
ATOM     24  O   UNL     1     -10.665   3.488   0.184  0.00  0.00    -0.153 OA
BRANCH  22  25
ATOM     25  N   UNL     1      -9.947   2.070   2.076  0.00  0.00    -0.185 NA
ATOM     26  H   UNL     1     -10.762   1.563   1.930  0.00  0.00    +0.149 HD
BRANCH  25  27
ATOM     27  C   UNL     1      -9.041   1.700   3.166  0.00  0.00    +0.032 C 
ATOM     28  C   UNL     1      -9.017   2.817   4.211  0.00  0.00    +0.029 C 
ATOM     29  C   UNL     1      -9.527   0.403   3.816  0.00  0.00    +0.029 C 
ATOM     30  C   UNL     1      -7.631   1.494   2.608  0.00  0.00    +0.029 C 
ENDBRANCH  25  27
ENDBRANCH  22  25
ENDBRANCH   7  22
TORSDOF 4
