REMARK  Name = ZINC36278220
REMARK  7 active torsions:
REMARK  status: ('A' for Active; 'I' for Inactive)
REMARK    1  A    between atoms: C_1  and  C_2
REMARK    2  A    between atoms: C_7  and  C_9
REMARK    3  A    between atoms: C_7  and  C_10
REMARK    4  A    between atoms: N_11  and  C_13
REMARK    5  A    between atoms: C_13  and  C_14
REMARK    6  A    between atoms: C_15  and  C_24
REMARK    7  A    between atoms: C_20  and  N_23
REMARK                            x       y       z     vdW  Elec       q    Type
REMARK                         _______ _______ _______ _____ _____    ______ ____
ROOT
ATOM      1  C   UNL     1       1.250  -2.200  -3.436  0.00  0.00    +0.035 A 
ATOM      2  C   UNL     1       0.977  -2.618  -4.704  0.00  0.00    +0.091 A 
ATOM      3  N   UNL     1       2.046  -2.354  -5.473  0.00  0.00    -0.228 NA
ATOM      4  C   UNL     1       2.983  -1.783  -4.730  0.00  0.00    +0.138 A 
ATOM      5  N   UNL     1       2.508  -1.669  -3.450  0.00  0.00    -0.303 N 
ATOM      6  C   UNL     1       3.279  -1.104  -2.471  0.00  0.00    +0.115 A 
ATOM      7  C   UNL     1       4.522  -0.645  -2.754  0.00  0.00    +0.041 A 
ATOM      8  C   UNL     1       5.034  -0.747  -4.064  0.00  0.00    +0.028 A 
ATOM      9  C   UNL     1       4.277  -1.315  -5.039  0.00  0.00    +0.048 A 
ENDROOT
BRANCH   2  10
ATOM     10  C   UNL     1      -0.283  -3.256  -5.157  0.00  0.00    +0.005 A 
ATOM     11  C   UNL     1      -0.879  -2.888  -6.367  0.00  0.00    +0.030 A 
ATOM     12  C   UNL     1      -2.051  -3.507  -6.751  0.00  0.00    +0.111 A 
ATOM     13  N   UNL     1      -2.608  -4.433  -5.993  0.00  0.00    -0.263 NA
ATOM     14  C   UNL     1      -2.077  -4.809  -4.845  0.00  0.00    +0.111 A 
ATOM     15  C   UNL     1      -0.904  -4.245  -4.389  0.00  0.00    +0.030 A 
ENDBRANCH   2  10
BRANCH   7  16
ATOM     16  N   UNL     1       5.301  -0.067  -1.742  0.00  0.00    -0.357 N 
ATOM     17  H   UNL     1       4.950   0.004  -0.841  0.00  0.00    +0.142 HD
ATOM     18  H   UNL     1       6.191   0.262  -1.944  0.00  0.00    +0.142 HD
ENDBRANCH   7  16
BRANCH   1  19
ATOM     19  C   UNL     1       0.333  -2.299  -2.244  0.00  0.00    -0.021 C 
BRANCH  19  29
ATOM     20  C   UNL     1      -0.892   2.417  -1.601  0.00  0.00    +0.009 C 
ATOM     21  C   UNL     1      -0.758   0.962  -1.129  0.00  0.00    -0.048 C 
ATOM     22  C   UNL     1      -2.122   0.220  -1.103  0.00  0.00    -0.011 C 
ATOM     23  C   UNL     1      -1.613  -1.247  -1.182  0.00  0.00    -0.067 C 
ATOM     24  C   UNL     1      -1.015  -1.603   0.164  0.00  0.00    -0.009 C 
ATOM     25  C   UNL     1      -0.150  -0.559   0.835  0.00  0.00    -0.036 C 
ATOM     26  C   UNL     1      -0.175   0.850   0.280  0.00  0.00    +0.011 C 
ATOM     27  C   UNL     1       1.308  -1.057   0.874  0.00  0.00    +0.011 C 
ATOM     28  C   UNL     1      -0.608  -0.471   2.315  0.00  0.00    +0.011 C 
ATOM     29  N   UNL     1      -0.595  -1.175  -2.250  0.00  0.00    +0.386 N 
ATOM     30  C   UNL     1       0.108   0.111  -2.086  0.00  0.00    -0.071 C 
ATOM     31  H   UNL     1      -1.078  -1.156  -3.151  0.00  0.00    -0.081 HD
ENDBRANCH  19  29
ENDBRANCH   1  19
TORSDOF 4
