REMARK  Name = ZINC32903122
REMARK  6 active torsions:
REMARK  status: ('A' for Active; 'I' for Inactive)
REMARK    1  A    between atoms: C_1  and  C_2
REMARK    2  A    between atoms: C_2  and  C_3
REMARK    3  A    between atoms: C_5  and  C_27
REMARK    4  A    between atoms: C_7  and  C_26
REMARK    5  A    between atoms: C_8  and  C_12
REMARK    6  A    between atoms: N_14  and  C_15
REMARK                            x       y       z     vdW  Elec       q    Type
REMARK                         _______ _______ _______ _____ _____    ______ ____
ROOT
ATOM      1  C   UNL     1       0.146   2.845  -1.237  0.00  0.00    +0.255 C 
ATOM      2  O   UNL     1      -0.948   3.301  -1.512  0.00  0.00    -0.269 OA
ATOM      3  N   UNL     1       1.227   3.650  -1.219  0.00  0.00    -0.281 N 
ATOM      4  H   UNL     1       2.227   3.224  -1.051  0.00  0.00    +0.155 HD
ENDROOT
BRANCH   3   5
ATOM      5  C   UNL     1       1.076   5.028  -1.414  0.00  0.00    +0.036 A 
ATOM      6  C   UNL     1       2.074   5.752  -2.055  0.00  0.00    +0.027 A 
ATOM      7  C   UNL     1       1.927   7.111  -2.256  0.00  0.00    +0.049 A 
ATOM      8  C   UNL     1       0.788   7.758  -1.807  0.00  0.00    +0.142 A 
ATOM      9  C   UNL     1      -0.212   7.036  -1.158  0.00  0.00    +0.077 A 
ATOM     10  C   UNL     1      -0.068   5.673  -0.962  0.00  0.00    +0.050 A 
ATOM     11  N   UNL     1      -1.359   7.705  -0.707  0.00  0.00    -0.280 N 
ATOM     12  C   UNL     1      -1.621   8.944  -1.177  0.00  0.00    +0.255 C 
ATOM     13  O   UNL     1      -2.590   9.555  -0.779  0.00  0.00    -0.272 OA
ATOM     14  C   UNL     1      -0.703   9.565  -2.200  0.00  0.00    +0.325 C 
ATOM     15  O   UNL     1       0.632   9.096  -1.995  0.00  0.00    -0.481 OA
ATOM     16  H   UNL     1      -2.029   7.222   0.019  0.00  0.00    +0.155 HD
ENDBRANCH   3   5
BRANCH   1  22
ATOM     17  C   UNL     1       0.665  -3.310   0.095  0.00  0.00    +0.130 A 
ATOM     18  N   UNL     1      -0.627  -3.168  -0.149  0.00  0.00    -0.237 NA
ATOM     19  C   UNL     1      -1.161  -2.011  -0.471  0.00  0.00    +0.050 A 
ATOM     20  C   UNL     1      -0.332  -0.866  -0.565  0.00  0.00    +0.032 A 
ATOM     21  C   UNL     1      -0.674   0.457  -0.889  0.00  0.00    -0.020 A 
ATOM     22  C   UNL     1       0.289   1.417  -0.923  0.00  0.00    +0.080 A 
ATOM     23  S   UNL     1       1.768   0.516  -0.493  0.00  0.00    -0.064 S 
ATOM     24  C   UNL     1       1.043  -1.091  -0.290  0.00  0.00    +0.113 A 
ATOM     25  N   UNL     1       1.493  -2.285   0.026  0.00  0.00    -0.225 NA
ATOM     26  C   UNL     1      -2.104   0.810  -1.206  0.00  0.00    +0.046 C 
ATOM     27  C   UNL     1      -2.640  -1.903  -0.740  0.00  0.00    +0.066 C 
BRANCH  17  29
ATOM     28  C   UNL     1       1.151  -4.848   1.978  0.00  0.00    +0.012 C 
ATOM     29  C   UNL     1       1.203  -4.670   0.459  0.00  0.00    +0.073 C 
ENDBRANCH  17  29
ENDBRANCH   1  22
TORSDOF 3
