REMARK  Name = ZINC01222994
REMARK  12 active torsions:
REMARK  status: ('A' for Active; 'I' for Inactive)
REMARK    1  A    between atoms: C_1  and  C_2
REMARK    2  A    between atoms: C_2  and  O_3
REMARK    3  A    between atoms: O_3  and  C_4
REMARK    4  A    between atoms: C_4  and  C_6
REMARK    5  A    between atoms: C_7  and  C_32
REMARK    6  A    between atoms: C_8  and  C_21
REMARK    7  A    between atoms: C_10  and  N_11
REMARK    8  A    between atoms: C_12  and  C_14
REMARK    9  A    between atoms: C_18  and  N_20
REMARK   10  A    between atoms: N_23  and  C_24
REMARK   11  A    between atoms: C_26  and  C_31
REMARK   12  A    between atoms: C_29  and  C_30
REMARK                            x       y       z     vdW  Elec       q    Type
REMARK                         _______ _______ _______ _____ _____    ______ ____
ROOT
ATOM      1  C   UNL     1       2.171   8.274   0.058  0.00  0.00    +0.091 A 
ATOM      2  C   UNL     1       1.897   9.634   0.057  0.00  0.00    -0.015 A 
ATOM      3  C   UNL     1       0.584  10.018   0.067  0.00  0.00    +0.080 A 
ATOM      4  S   UNL     1      -0.281   8.459   0.070  0.00  0.00    -0.068 S 
ATOM      5  C   UNL     1       1.085   7.392   0.069  0.00  0.00    +0.087 A 
ATOM      6  C   UNL     1       3.008  10.652   0.044  0.00  0.00    +0.046 C 
ENDROOT
BRANCH   5   7
ATOM      7  N   UNL     1       1.098   6.012   0.072  0.00  0.00    -0.275 N 
ATOM      8  C   UNL     1      -0.063   5.327   0.083  0.00  0.00    +0.249 C 
ATOM      9  O   UNL     1      -1.121   5.925   0.090  0.00  0.00    -0.270 OA
ATOM     10  H   UNL     1       1.942   5.535   0.066  0.00  0.00    +0.156 HD
BRANCH   8  11
ATOM     11  C   UNL     1      -0.049   3.849   0.086  0.00  0.00    +0.039 A 
ATOM     12  C   UNL     1       1.165   3.160   0.078  0.00  0.00    +0.013 A 
ATOM     13  C   UNL     1       1.175   1.780   0.082  0.00  0.00    +0.003 A 
ATOM     14  C   UNL     1      -0.014   1.075   0.094  0.00  0.00    +0.023 A 
ATOM     15  C   UNL     1      -1.228   1.752   0.096  0.00  0.00    +0.025 A 
ATOM     16  C   UNL     1      -1.249   3.138   0.098  0.00  0.00    +0.035 A 
BRANCH  15  17
ATOM     17  N   UNL     1      -2.427   1.035   0.103  0.00  0.00    -0.358 N 
ATOM     18  H   UNL     1      -2.412   0.065   0.106  0.00  0.00    +0.142 HD
ATOM     19  H   UNL     1      -3.275   1.507   0.105  0.00  0.00    +0.142 HD
ENDBRANCH  15  17
ENDBRANCH   8  11
ENDBRANCH   5   7
BRANCH   3  20
ATOM     20  C   UNL     1       0.028  11.372   0.067  0.00  0.00    +0.255 C 
ATOM     21  O   UNL     1       0.772  12.336   0.058  0.00  0.00    -0.269 OA
ATOM     22  N   UNL     1      -1.308  11.552   0.078  0.00  0.00    -0.281 N 
ATOM     23  H   UNL     1      -1.901  10.788   0.004  0.00  0.00    +0.155 HD
BRANCH  22  24
ATOM     24  C   UNL     1      -1.839  12.840   0.195  0.00  0.00    +0.037 A 
ATOM     25  C   UNL     1      -1.096  13.847   0.799  0.00  0.00    +0.027 A 
ATOM     26  C   UNL     1      -1.622  15.119   0.910  0.00  0.00    -0.049 A 
ATOM     27  C   UNL     1      -2.890  15.389   0.428  0.00  0.00    +0.004 A 
ATOM     28  C   UNL     1      -3.634  14.388  -0.169  0.00  0.00    +0.005 A 
ATOM     29  C   UNL     1      -3.112  13.115  -0.287  0.00  0.00    -0.029 A 
ATOM     30  C   UNL     1      -3.923  12.024  -0.938  0.00  0.00    +0.045 C 
ATOM     31  C   UNL     1      -0.816  16.213   1.561  0.00  0.00    +0.044 C 
ENDBRANCH  22  24
ENDBRANCH   3  20
BRANCH   1  32
ATOM     32  C   UNL     1       3.551   7.778   0.048  0.00  0.00    +0.342 C 
ATOM     33  O   UNL     1       4.115   7.570  -1.009  0.00  0.00    -0.245 OA
BRANCH  32  34
ATOM     34  O   UNL     1       4.195   7.552   1.211  0.00  0.00    -0.461 OA
BRANCH  34  36
ATOM     35  C   UNL     1       6.120   6.867   2.535  0.00  0.00    +0.048 C 
ATOM     36  C   UNL     1       5.559   7.061   1.125  0.00  0.00    +0.229 C 
ENDBRANCH  34  36
ENDBRANCH  32  34
ENDBRANCH   1  32
TORSDOF 8
