REMARK  Name = ZINC67640268
REMARK  9 active torsions:
REMARK  status: ('A' for Active; 'I' for Inactive)
REMARK    1  A    between atoms: C_1  and  C_2
REMARK    2  A    between atoms: C_9  and  C_11
REMARK    3  A    between atoms: C_11  and  C_12
REMARK    4  A    between atoms: C_12  and  N_13
REMARK    5  A    between atoms: N_16  and  C_17
REMARK    6  A    between atoms: N_16  and  C_18
REMARK    7  A    between atoms: C_18  and  C_20
REMARK    8  A    between atoms: C_18  and  C_21
REMARK    9  A    between atoms: C_25  and  O_27
REMARK                            x       y       z     vdW  Elec       q    Type
REMARK                         _______ _______ _______ _____ _____    ______ ____
ROOT
ATOM      1  N   UNL     1      -0.664  -8.162  -2.628  0.00  0.00    -0.299 N 
ATOM      2  C   UNL     1      -0.705  -9.035  -3.654  0.00  0.00    +0.302 C 
ATOM      3  O   UNL     1      -0.888  -8.634  -4.787  0.00  0.00    -0.253 OA
ATOM      4  N   UNL     1      -0.544 -10.353  -3.423  0.00  0.00    -0.282 N 
ATOM      5  C   UNL     1      -0.323 -10.837  -2.058  0.00  0.00    +0.134 C 
ATOM      6  H   UNL     1      -0.518  -8.482  -1.724  0.00  0.00    +0.150 HD
ENDROOT
BRANCH   4   7
ATOM      7  C   UNL     1      -0.589 -11.302  -4.538  0.00  0.00    +0.104 C 
ATOM      8  C   UNL     1       0.688 -12.145  -4.543  0.00  0.00    +0.033 C 
BRANCH   7   9
ATOM      9  C   UNL     1      -1.786 -12.205  -4.382  0.00  0.00    -0.024 A 
ATOM     10  C   UNL     1      -2.745 -12.259  -5.376  0.00  0.00    +0.006 A 
ATOM     11  C   UNL     1      -3.844 -13.086  -5.235  0.00  0.00    +0.004 A 
ATOM     12  C   UNL     1      -3.986 -13.861  -4.100  0.00  0.00    +0.045 A 
ATOM     13  C   UNL     1      -3.025 -13.808  -3.101  0.00  0.00    +0.117 A 
ATOM     14  C   UNL     1      -1.920 -12.982  -3.247  0.00  0.00    +0.050 A 
BRANCH  13  15
ATOM     15  O   UNL     1      -3.162 -14.569  -1.983  0.00  0.00    -0.507 OA
ATOM     16  H   UNL     1      -2.759 -15.445  -2.052  0.00  0.00    +0.292 HD
ENDBRANCH  13  15
ENDBRANCH   7   9
ENDBRANCH   4   7
BRANCH   1  17
ATOM     17  C   UNL     1      -0.839  -6.729  -2.878  0.00  0.00    +0.115 C 
BRANCH  17  18
ATOM     18  C   UNL     1      -0.749  -5.965  -1.555  0.00  0.00    +0.115 C 
BRANCH  18  27
ATOM     19  C   UNL     1      -1.920   1.817  -1.789  0.00  0.00    +0.045 C 
ATOM     20  C   UNL     1      -1.642   0.368  -1.483  0.00  0.00    -0.032 A 
ATOM     21  C   UNL     1      -1.463  -0.050  -0.172  0.00  0.00    +0.008 A 
ATOM     22  C   UNL     1      -1.209  -1.390   0.066  0.00  0.00    +0.044 A 
ATOM     23  C   UNL     1      -1.143  -2.267  -1.011  0.00  0.00    +0.125 A 
ATOM     24  N   UNL     1      -1.320  -1.829  -2.248  0.00  0.00    -0.240 NA
ATOM     25  C   UNL     1      -1.569  -0.559  -2.504  0.00  0.00    +0.116 A 
ATOM     26  N   UNL     1      -0.888  -3.618  -0.786  0.00  0.00    -0.270 N 
ATOM     27  C   UNL     1      -0.930  -4.492  -1.812  0.00  0.00    +0.220 C 
ATOM     28  O   UNL     1      -1.113  -4.091  -2.942  0.00  0.00    -0.275 OA
ATOM     29  H   UNL     1      -0.681  -3.931   0.108  0.00  0.00    +0.156 HD
ENDBRANCH  18  27
ENDBRANCH  17  18
ENDBRANCH   1  17
TORSDOF 6
