REMARK  Name = ZINC08478711
REMARK  7 active torsions:
REMARK  status: ('A' for Active; 'I' for Inactive)
REMARK    1  A    between atoms: C_1  and  C_2
REMARK    2  A    between atoms: C_5  and  O_9
REMARK    3  A    between atoms: C_7  and  C_8
REMARK    4  A    between atoms: O_9  and  C_10
REMARK    5  A    between atoms: C_10  and  C_12
REMARK    6  A    between atoms: C_10  and  C_13
REMARK    7  A    between atoms: N_15  and  C_16
REMARK                            x       y       z     vdW  Elec       q    Type
REMARK                         _______ _______ _______ _____ _____    ______ ____
ROOT
ATOM      1  C   UNL     1       0.728  -6.086  -1.253  0.00  0.00    +0.258 C 
ATOM      2  O   UNL     1       1.277  -6.459  -0.238  0.00  0.00    -0.271 OA
ATOM      3  N   UNL     1       0.681  -6.894  -2.331  0.00  0.00    -0.282 N 
ATOM      4  H   UNL     1       0.309  -6.568  -3.166  0.00  0.00    +0.155 HD
ENDROOT
BRANCH   3   5
ATOM      5  C   UNL     1       1.167  -8.203  -2.245  0.00  0.00    +0.036 A 
ATOM      6  C   UNL     1       1.766  -8.796  -3.349  0.00  0.00    +0.043 A 
ATOM      7  C   UNL     1       2.247 -10.089  -3.261  0.00  0.00    +0.044 A 
ATOM      8  C   UNL     1       2.131 -10.793  -2.075  0.00  0.00    +0.040 A 
ATOM      9  C   UNL     1       1.534 -10.205  -0.974  0.00  0.00    +0.044 A 
ATOM     10  C   UNL     1       1.057  -8.910  -1.055  0.00  0.00    +0.043 A 
ATOM     11 CL   UNL     1       1.390 -11.091   0.511  0.00  0.00    -0.083 Cl
ATOM     12 CL   UNL     1       2.995 -10.832  -4.641  0.00  0.00    -0.083 Cl
ENDBRANCH   3   5
BRANCH   1  13
ATOM     13  C   UNL     1       0.098  -4.718  -1.309  0.00  0.00    +0.256 C 
ATOM     14  C   UNL     1      -1.416  -4.860  -1.478  0.00  0.00    +0.062 C 
BRANCH  13  15
ATOM     15  O   UNL     1       0.379  -4.014  -0.098  0.00  0.00    -0.480 OA
BRANCH  15  20
ATOM     16  C   UNL     1       0.287   1.613  -0.328  0.00  0.00    +0.044 C 
ATOM     17  C   UNL     1       0.312   0.107  -0.266  0.00  0.00    -0.047 A 
ATOM     18  C   UNL     1      -0.061  -0.635  -1.372  0.00  0.00    +0.007 A 
ATOM     19  C   UNL     1      -0.039  -2.015  -1.318  0.00  0.00    +0.046 A 
ATOM     20  C   UNL     1       0.357  -2.657  -0.153  0.00  0.00    +0.122 A 
ATOM     21  C   UNL     1       0.731  -1.910   0.954  0.00  0.00    +0.049 A 
ATOM     22  C   UNL     1       0.713  -0.530   0.893  0.00  0.00    -0.044 A 
ATOM     23  C   UNL     1       1.124   0.282   2.094  0.00  0.00    +0.044 C 
ENDBRANCH  15  20
ENDBRANCH  13  15
ENDBRANCH   1  13
TORSDOF 4
