REMARK  Name = ZINC02781368
REMARK  5 active torsions:
REMARK  status: ('A' for Active; 'I' for Inactive)
REMARK    1  A    between atoms: C_1  and  C_2
REMARK    2  A    between atoms: C_7  and  C_8
REMARK    3  A    between atoms: C_8  and  N_9
REMARK    4  A    between atoms: N_14  and  S_15
REMARK    5  A    between atoms: S_15  and  C_18
REMARK                            x       y       z     vdW  Elec       q    Type
REMARK                         _______ _______ _______ _____ _____    ______ ____
ROOT
ATOM      1  N   UNL     1       3.106   1.310  -3.058  0.00  0.00    -0.265 N 
ATOM      2  C   UNL     1       4.139   1.937  -2.458  0.00  0.00    +0.110 A 
ATOM      3  C   UNL     1       3.711   2.381  -1.254  0.00  0.00    +0.066 A 
ATOM      4  C   UNL     1       2.367   2.003  -1.109  0.00  0.00    +0.160 A 
ATOM      5  N   UNL     1       2.004   1.363  -2.195  0.00  0.00    -0.155 NA
ATOM      6  N   UNL     1       1.553   2.269  -0.001  0.00  0.00    -0.198 N 
ATOM      7  H   UNL     1       1.912   2.752   0.760  0.00  0.00    +0.175 HD
ENDROOT
BRANCH   6   8
ATOM      8  S   UNL     1      -0.022   1.758   0.012  0.00  0.00    +0.074 S 
ATOM      9  O   UNL     1      -0.590   2.163  -1.226  0.00  0.00    -0.150 OA
ATOM     10  O   UNL     1      -0.566   2.150   1.264  0.00  0.00    -0.150 OA
BRANCH   8  11
ATOM     11  C   UNL     1       0.002  -0.004   0.002  0.00  0.00    +0.109 A 
ATOM     12  C   UNL     1      -0.006  -0.684  -1.215  0.00  0.00    +0.029 A 
ATOM     13  C   UNL     1       0.018  -2.044  -1.257  0.00  0.00    +0.010 A 
ATOM     14  C   UNL     1       0.038  -2.777  -0.059  0.00  0.00    -0.018 A 
ATOM     15  C   UNL     1       0.056  -4.182  -0.063  0.00  0.00    +0.008 A 
ATOM     16  C   UNL     1       0.076  -4.859   1.118  0.00  0.00    +0.001 A 
ATOM     17  C   UNL     1       0.079  -4.179   2.335  0.00  0.00    +0.001 A 
ATOM     18  C   UNL     1       0.062  -2.819   2.377  0.00  0.00    +0.008 A 
ATOM     19  C   UNL     1       0.041  -2.086   1.179  0.00  0.00    -0.016 A 
ATOM     20  C   UNL     1       0.022  -0.681   1.183  0.00  0.00    +0.037 A 
ENDBRANCH   8  11
ENDBRANCH   6   8
BRANCH   1  21
ATOM     21  C   UNL     1       3.132   0.682  -4.382  0.00  0.00    +0.178 C 
BRANCH  21  28
ATOM     22  C   UNL     1       0.318   0.030  -4.422  0.00  0.00    +0.044 C 
ATOM     23  C   UNL     1       1.344  -1.066  -4.286  0.00  0.00    -0.046 A 
ATOM     24  C   UNL     1       0.938  -2.384  -4.184  0.00  0.00    +0.004 A 
ATOM     25  C   UNL     1       1.879  -3.388  -4.054  0.00  0.00    +0.000 A 
ATOM     26  C   UNL     1       3.226  -3.075  -4.030  0.00  0.00    +0.000 A 
ATOM     27  C   UNL     1       3.631  -1.758  -4.136  0.00  0.00    +0.006 A 
ATOM     28  C   UNL     1       2.690  -0.754  -4.267  0.00  0.00    -0.023 A 
ENDBRANCH  21  28
ENDBRANCH   1  21
TORSDOF 4
