REMARK  Name = ZINC52984130
REMARK  5 active torsions:
REMARK  status: ('A' for Active; 'I' for Inactive)
REMARK    1  A    between atoms: C_1  and  C_2
REMARK    2  A    between atoms: C_5  and  N_11
REMARK    3  A    between atoms: C_6  and  C_8
REMARK    4  A    between atoms: N_11  and  C_12
REMARK    5  A    between atoms: N_16  and  C_18
REMARK                            x       y       z     vdW  Elec       q    Type
REMARK                         _______ _______ _______ _____ _____    ______ ____
ROOT
ATOM      1  N   UNL     1       0.005  -4.159  -0.267  0.00  0.00    -0.342 N 
ATOM      2  H   UNL     1       0.090  -4.717   0.522  0.00  0.00    +0.146 HD
ENDROOT
BRANCH   1   7
ATOM      3  C   UNL     1       0.036   1.493   0.227  0.00  0.00    +0.044 C 
ATOM      4  C   UNL     1       0.028  -0.009   0.106  0.00  0.00    -0.050 A 
ATOM      5  C   UNL     1       0.015  -0.600  -1.149  0.00  0.00    +0.005 A 
ATOM      6  C   UNL     1       0.007  -1.973  -1.276  0.00  0.00    +0.024 A 
ATOM      7  C   UNL     1       0.013  -2.777  -0.142  0.00  0.00    +0.042 A 
ATOM      8  C   UNL     1       0.027  -2.182   1.131  0.00  0.00    +0.084 A 
ATOM      9  C   UNL     1       0.040  -0.787   1.241  0.00  0.00    +0.020 A 
BRANCH   8  10
ATOM     10  C   UNL     1       0.034  -3.020   2.339  0.00  0.00    +0.388 C 
ATOM     11  O   UNL     1      -0.062  -2.502   3.444  0.00  0.00    -0.241 OA
ATOM     12  O   UNL     1       0.135  -4.236   2.240  0.00  0.00    -0.241 OA
ENDBRANCH   8  10
ENDBRANCH   1   7
BRANCH   1  13
ATOM     13  C   UNL     1      -0.131  -4.774  -1.589  0.00  0.00    +0.052 C 
ATOM     14  C   UNL     1      -1.624  -4.954  -1.946  0.00  0.00    +0.002 C 
ATOM     15  C   UNL     1      -1.648  -6.333  -2.652  0.00  0.00    -0.077 C 
ATOM     16  N   UNL     1      -0.656  -7.126  -1.882  0.00  0.00    +0.383 N 
ATOM     17  C   UNL     1       0.457  -6.197  -1.580  0.00  0.00    -0.056 C 
ATOM     18  H   UNL     1      -1.070  -7.465  -1.026  0.00  0.00    -0.081 HD
BRANCH  16  19
ATOM     19  C   UNL     1      -0.170  -8.252  -2.691  0.00  0.00    -0.069 C 
ATOM     20  C   UNL     1      -0.547  -9.663  -2.237  0.00  0.00    -0.017 C 
ATOM     21  C   UNL     1       0.889  -9.164  -2.068  0.00  0.00    -0.017 C 
ENDBRANCH  16  19
ENDBRANCH   1  13
TORSDOF 4
