REMARK  Name = ZINC20616177
REMARK  10 active torsions:
REMARK  status: ('A' for Active; 'I' for Inactive)
REMARK    1  A    between atoms: C_1  and  C_2
REMARK    2  A    between atoms: C_2  and  O_3
REMARK    3  A    between atoms: O_3  and  C_4
REMARK    4  A    between atoms: C_7  and  C_27
REMARK    5  A    between atoms: C_9  and  C_10
REMARK    6  A    between atoms: C_10  and  N_11
REMARK    7  A    between atoms: N_28  and  N_29
REMARK    8  A    between atoms: C_30  and  C_32
REMARK    9  A    between atoms: C_37  and  N_38
REMARK   10  A    between atoms: C_39  and  C_41
REMARK                            x       y       z     vdW  Elec       q    Type
REMARK                         _______ _______ _______ _____ _____    ______ ____
ROOT
ATOM      1  C   UNL     1      -4.264  -0.875   1.434  0.00  0.00    +0.122 A 
ATOM      2  C   UNL     1      -4.362  -2.250   1.604  0.00  0.00    +0.046 A 
ATOM      3  C   UNL     1      -4.598  -3.065   0.519  0.00  0.00    +0.013 A 
ATOM      4  C   UNL     1      -4.738  -2.507  -0.755  0.00  0.00    -0.005 A 
ATOM      5  C   UNL     1      -4.644  -1.122  -0.920  0.00  0.00    +0.014 A 
ATOM      6  C   UNL     1      -4.402  -0.315   0.171  0.00  0.00    -0.022 A 
ENDROOT
BRANCH   4   7
ATOM      7  C   UNL     1      -4.991  -3.374  -1.919  0.00  0.00    +0.138 C 
ATOM      8  N   UNL     1      -5.083  -4.660  -1.763  0.00  0.00    -0.187 NA
BRANCH   8   9
ATOM      9  N   UNL     1      -5.324  -5.485  -2.870  0.00  0.00    -0.203 N 
ATOM     10  C   UNL     1      -5.420  -6.819  -2.707  0.00  0.00    +0.265 C 
ATOM     11  O   UNL     1      -5.298  -7.307  -1.600  0.00  0.00    -0.268 OA
ATOM     12  H   UNL     1      -5.434  -5.043  -3.871  0.00  0.00    +0.178 HD
BRANCH  10  13
ATOM     13  C   UNL     1      -5.673  -7.687  -3.872  0.00  0.00    +0.060 A 
ATOM     14  C   UNL     1      -5.921  -7.125  -5.127  0.00  0.00    +0.015 A 
ATOM     15  C   UNL     1      -6.153  -7.942  -6.212  0.00  0.00    +0.001 A 
ATOM     16  C   UNL     1      -6.150  -9.320  -6.064  0.00  0.00    +0.002 A 
ATOM     17  C   UNL     1      -5.910  -9.890  -4.830  0.00  0.00    +0.024 A 
ATOM     18  C   UNL     1      -5.670  -9.083  -3.726  0.00  0.00    +0.046 A 
BRANCH  18  19
ATOM     19  N   UNL     1      -5.429  -9.656  -2.479  0.00  0.00    -0.285 N 
ATOM     20  C   UNL     1      -4.753 -10.818  -2.391  0.00  0.00    +0.214 C 
ATOM     21  O   UNL     1      -4.271 -11.316  -3.387  0.00  0.00    -0.276 OA
ATOM     22  C   UNL     1      -4.594 -11.498  -1.056  0.00  0.00    +0.109 C 
ATOM     23  H   UNL     1      -5.791  -9.159  -1.567  0.00  0.00    +0.155 HD
ENDBRANCH  18  19
ENDBRANCH  10  13
ENDBRANCH   8   9
ENDBRANCH   4   7
BRANCH   1  24
ATOM     24  O   UNL     1      -4.031  -0.075   2.507  0.00  0.00    -0.492 OA
BRANCH  24  26
ATOM     25  C   UNL     1      -3.643   0.338   4.857  0.00  0.00    +0.048 C 
ATOM     26  C   UNL     1      -3.900  -0.716   3.778  0.00  0.00    +0.225 C 
ENDBRANCH  24  26
ENDBRANCH   1  24
BRANCH   6  27
ATOM     27  C   UNL     1      -4.294   1.177  -0.007  0.00  0.00    -0.039 C 
BRANCH  27  28
ATOM     28  N   UNL     1      -2.878   1.566  -0.029  0.00  0.00    +0.383 N 
ATOM     29  C   UNL     1      -2.200   1.152   1.203  0.00  0.00    -0.073 C 
ATOM     30  C   UNL     1      -0.745   1.603   1.209  0.00  0.00    -0.007 C 
ATOM     31  C   UNL     1      -0.015   1.098  -0.038  0.00  0.00    +0.011 C 
ATOM     32  C   UNL     1      -0.780   1.612  -1.263  0.00  0.00    +0.020 C 
ATOM     33  C   UNL     1      -2.200   1.023  -1.216  0.00  0.00    -0.069 C 
ATOM     34  C   UNL     1      -0.910   3.116  -1.174  0.00  0.00    +0.023 A 
ATOM     35  C   UNL     1      -1.036   3.802  -2.341  0.00  0.00    +0.022 A 
ATOM     36  C   UNL     1      -1.223   5.188  -2.334  0.00  0.00    +0.007 A 
ATOM     37  C   UNL     1      -1.295   5.837  -1.137  0.00  0.00    +0.070 A 
ATOM     38  C   UNL     1      -1.159   5.101   0.049  0.00  0.00    +0.251 A 
ATOM     39  O   UNL     1      -1.268   5.664   1.126  0.00  0.00    -0.268 OA
ATOM     40  N   UNL     1      -0.906   3.768   0.013  0.00  0.00    -0.312 N 
ATOM     41  C   UNL     1      -0.620   3.115   1.290  0.00  0.00    +0.126 C 
ATOM     42  H   UNL     1      -2.828   2.664  -0.084  0.00  0.00    -0.081 HD
ENDBRANCH  27  28
ENDBRANCH   6  27
TORSDOF 8
