REMARK  Name = ZINC35328518
REMARK  3 active torsions:
REMARK  status: ('A' for Active; 'I' for Inactive)
REMARK    1  A    between atoms: C_6  and  N_7
REMARK    2  A    between atoms: N_10  and  C_13
REMARK    3  A    between atoms: C_13  and  C_14
REMARK                            x       y       z     vdW  Elec       q    Type
REMARK                         _______ _______ _______ _____ _____    ______ ____
ROOT
ATOM      1  C   UNL     1      -0.017   1.390   0.010  0.00  0.00    +0.025 A 
ATOM      2  C   UNL     1       1.146   2.107   0.002  0.00  0.00    +0.030 A 
ATOM      3  C   UNL     1       2.374   1.443  -0.013  0.00  0.00    +0.078 A 
ATOM      4  C   UNL     1       2.399   0.030  -0.021  0.00  0.00    +0.067 A 
ATOM      5  C   UNL     1       1.206  -0.688  -0.013  0.00  0.00    +0.038 A 
ATOM      6  C   UNL     1       0.002  -0.004   0.002  0.00  0.00    +0.025 A 
ATOM      7  C   UNL     1       3.709  -0.637  -0.037  0.00  0.00    +0.262 A 
ATOM      8  O   UNL     1       3.800  -1.851  -0.045  0.00  0.00    -0.267 OA
ATOM      9  N   UNL     1       4.810   0.150  -0.044  0.00  0.00    -0.294 N 
ATOM     10  C   UNL     1       4.691   1.505  -0.035  0.00  0.00    +0.203 A 
ATOM     11  N   UNL     1       3.549   2.122  -0.021  0.00  0.00    -0.237 NA
ENDROOT
BRANCH   6  12
ATOM     12  N   UNL     1      -1.201  -0.715   0.010  0.00  0.00    -0.358 N 
ATOM     13  H   UNL     1      -2.046  -0.239   0.021  0.00  0.00    +0.142 HD
ATOM     14  H   UNL     1      -1.191  -1.685   0.005  0.00  0.00    +0.142 HD
ENDBRANCH   6  12
BRANCH   9  15
ATOM     15  C   UNL     1       6.140  -0.462  -0.060  0.00  0.00    +0.163 C 
BRANCH  15  16
ATOM     16  C   UNL     1       6.583  -0.664  -1.486  0.00  0.00    -0.009 A 
ATOM     17  C   UNL     1       6.466  -1.910  -2.075  0.00  0.00    +0.009 A 
ATOM     18  C   UNL     1       6.872  -2.097  -3.383  0.00  0.00    +0.039 A 
ATOM     19  C   UNL     1       7.395  -1.037  -4.104  0.00  0.00    +0.125 A 
ATOM     20  C   UNL     1       7.511   0.210  -3.514  0.00  0.00    +0.058 A 
ATOM     21  C   UNL     1       7.100   0.397  -2.207  0.00  0.00    +0.049 A 
ATOM     22 CL   UNL     1       7.240   1.962  -1.468  0.00  0.00    -0.083 Cl
ATOM     23  F   UNL     1       7.793  -1.220  -5.382  0.00  0.00    -0.205 F 
ENDBRANCH  15  16
ENDBRANCH   9  15
TORSDOF 3
