REMARK  Name = ZINC20337786
REMARK  4 active torsions:
REMARK  status: ('A' for Active; 'I' for Inactive)
REMARK    1  A    between atoms: C_5  and  C_7
REMARK    2  A    between atoms: N_11  and  C_20
REMARK    3  A    between atoms: C_15  and  N_19
REMARK    4  A    between atoms: C_20  and  C_21
REMARK                            x       y       z     vdW  Elec       q    Type
REMARK                         _______ _______ _______ _____ _____    ______ ____
ROOT
ATOM      1  C   UNL     1       2.447   3.772  -0.002  0.00  0.00    +0.079 C 
ATOM      2  C   UNL     1       3.598   3.070   0.085  0.00  0.00    +0.192 C 
ATOM      3  C   UNL     1       3.601   1.589   0.087  0.00  0.00    +0.287 C 
ATOM      4  O   UNL     1       2.633   0.955   0.463  0.00  0.00    -0.266 OA
ATOM      5  N   UNL     1       4.726   0.969  -0.352  0.00  0.00    -0.253 N 
ATOM      6  C   UNL     1       5.807   1.752  -0.782  0.00  0.00    +0.080 A 
ATOM      7  C   UNL     1       6.852   1.166  -1.482  0.00  0.00    +0.029 A 
ATOM      8  C   UNL     1       7.917   1.937  -1.908  0.00  0.00    +0.025 A 
ATOM      9  C   UNL     1       7.944   3.299  -1.637  0.00  0.00    +0.028 A 
ATOM     10  C   UNL     1       6.901   3.890  -0.936  0.00  0.00    +0.071 A 
ATOM     11  C   UNL     1       5.834   3.119  -0.508  0.00  0.00    +0.152 A 
ATOM     12  O   UNL     1       4.809   3.694   0.181  0.00  0.00    -0.449 OA
ENDROOT
BRANCH   1  17
ATOM     13  C   UNL     1      -1.134   2.717   0.295  0.00  0.00    +0.004 A 
ATOM     14  C   UNL     1      -1.169   1.766  -0.716  0.00  0.00    +0.020 A 
ATOM     15  C   UNL     1      -0.022   1.505  -1.444  0.00  0.00    +0.111 A 
ATOM     16  N   UNL     1       1.098   2.151  -1.198  0.00  0.00    -0.255 NA
ATOM     17  C   UNL     1       1.174   3.073  -0.242  0.00  0.00    +0.067 A 
ATOM     18  C   UNL     1       0.054   3.383   0.535  0.00  0.00    +0.028 A 
ENDBRANCH   1  17
BRANCH   9  19
ATOM     19  N   UNL     1       9.024   4.076  -2.070  0.00  0.00    -0.358 N 
ATOM     20  H   UNL     1       9.046   5.155  -1.856  0.00  0.00    +0.142 HD
ATOM     21  H   UNL     1       9.850   3.608  -2.625  0.00  0.00    +0.142 HD
ENDBRANCH   9  19
BRANCH   5  22
ATOM     22  C   UNL     1       4.810  -0.494  -0.371  0.00  0.00    +0.209 C 
BRANCH  22  23
ATOM     23  C   UNL     1       5.356  -0.983   0.945  0.00  0.00    +0.228 C 
ATOM     24  O   UNL     1       5.646  -0.188   1.815  0.00  0.00    -0.274 OA
ATOM     25  N   UNL     1       5.522  -2.304   1.157  0.00  0.00    -0.328 N 
ATOM     26  H   UNL     1       5.920  -2.660   2.119  0.00  0.00    +0.145 HD
ATOM     27  H   UNL     1       5.259  -3.024   0.369  0.00  0.00    +0.145 HD
ENDBRANCH  22  23
ENDBRANCH   5  22
TORSDOF 4
