REMARK  Name = ZINC67277129
REMARK  7 active torsions:
REMARK  status: ('A' for Active; 'I' for Inactive)
REMARK    1  A    between atoms: C_1  and  C_2
REMARK    2  A    between atoms: C_2  and  C_3
REMARK    3  A    between atoms: C_2  and  C_4
REMARK    4  A    between atoms: C_4  and  C_5
REMARK    5  A    between atoms: C_5  and  C_6
REMARK    6  A    between atoms: C_11  and  N_13
REMARK    7  A    between atoms: C_14  and  C_16
REMARK                            x       y       z     vdW  Elec       q    Type
REMARK                         _______ _______ _______ _____ _____    ______ ____
ROOT
ATOM      1  N   UNL     1      -5.505   0.597  -2.132  0.00  0.00    -0.312 N 
ATOM      2  C   UNL     1      -6.019   1.519  -2.970  0.00  0.00    +0.216 C 
ATOM      3  O   UNL     1      -5.502   1.712  -4.050  0.00  0.00    -0.276 OA
ATOM      4  H   UNL     1      -5.918   0.443  -1.268  0.00  0.00    +0.149 HD
ENDROOT
BRANCH   2   5
ATOM      5  C   UNL     1      -7.235   2.311  -2.565  0.00  0.00    +0.075 C 
ATOM      6  C   UNL     1      -6.930   3.099  -1.290  0.00  0.00    +0.015 C 
ATOM      7  C   UNL     1      -8.170   3.893  -0.873  0.00  0.00    +0.036 C 
ATOM      8  C   UNL     1      -8.569   4.845  -1.995  0.00  0.00    +0.112 C 
ATOM      9  C   UNL     1      -8.853   4.075  -3.280  0.00  0.00    +0.036 C 
ATOM     10  C   UNL     1      -7.609   3.281  -3.688  0.00  0.00    +0.015 C 
ATOM     11  C   UNL     1      -7.487   5.875  -2.223  0.00  0.00    +0.244 C 
ATOM     12  O   UNL     1      -6.341   5.672  -2.563  0.00  0.00    -0.273 OA
ATOM     13  N   UNL     1      -8.065   7.067  -1.969  0.00  0.00    -0.238 N 
ATOM     14  C   UNL     1      -9.349   6.927  -1.616  0.00  0.00    +0.307 C 
ATOM     15  O   UNL     1     -10.079   7.859  -1.339  0.00  0.00    -0.252 OA
ATOM     16  N   UNL     1      -9.741   5.639  -1.603  0.00  0.00    -0.285 N 
ATOM     17  H   UNL     1      -7.607   7.919  -2.034  0.00  0.00    +0.159 HD
ATOM     18  H   UNL     1     -10.622   5.302  -1.378  0.00  0.00    +0.151 HD
ENDBRANCH   2   5
BRANCH   1  23
ATOM     19  C   UNL     1      -3.571  -0.661  -1.275  0.00  0.00    +0.009 C 
ATOM     20  C   UNL     1      -3.566  -2.202  -1.336  0.00  0.00    +0.005 C 
ATOM     21  C   UNL     1      -4.782  -2.551  -2.230  0.00  0.00    +0.002 C 
ATOM     22  C   UNL     1      -4.747  -1.436  -3.304  0.00  0.00    +0.022 C 
ATOM     23  C   UNL     1      -4.322  -0.172  -2.526  0.00  0.00    +0.076 C 
BRANCH  19  24
ATOM     24  C   UNL     1      -2.135  -0.131  -1.286  0.00  0.00    +0.005 C 
BRANCH  24  25
ATOM     25  C   UNL     1      -1.433  -0.534   0.013  0.00  0.00    +0.003 C 
BRANCH  25  27
ATOM     26  C   UNL     1      -0.019   1.526   0.010  0.00  0.00    +0.007 C 
ATOM     27  C   UNL     1       0.002  -0.004   0.002  0.00  0.00    -0.017 C 
ATOM     28  C   UNL     1       0.742  -0.511   1.242  0.00  0.00    +0.007 C 
ENDBRANCH  25  27
ENDBRANCH  24  25
ENDBRANCH  19  24
ENDBRANCH   1  23
TORSDOF 5
