REMARK  Name = ZINC39152434
REMARK  6 active torsions:
REMARK  status: ('A' for Active; 'I' for Inactive)
REMARK    1  A    between atoms: C_1  and  O_2
REMARK    2  A    between atoms: O_2  and  C_3
REMARK    3  A    between atoms: C_8  and  S_13
REMARK    4  A    between atoms: S_13  and  C_14
REMARK    5  A    between atoms: C_14  and  C_15
REMARK    6  A    between atoms: N_17  and  C_18
REMARK                            x       y       z     vdW  Elec       q    Type
REMARK                         _______ _______ _______ _____ _____    ______ ____
ROOT
ATOM      1  C   UNL     1       4.134  -5.910   6.817  0.00  0.00    +0.225 C 
ATOM      2  O   UNL     1       3.945  -7.051   6.453  0.00  0.00    -0.275 OA
ATOM      3  N   UNL     1       4.801  -5.669   7.963  0.00  0.00    -0.288 N 
ATOM      4  H   UNL     1       4.952  -4.756   8.254  0.00  0.00    +0.151 HD
ENDROOT
BRANCH   3   5
ATOM      5  C   UNL     1       5.299  -6.787   8.769  0.00  0.00    +0.224 C 
ATOM      6  N   UNL     1       5.745  -6.327  10.091  0.00  0.00    -0.316 N 
ATOM      7  C   UNL     1       7.089  -6.507  10.417  0.00  0.00    +0.043 A 
ATOM      8  C   UNL     1       7.695  -6.132  11.629  0.00  0.00    +0.025 A 
ATOM      9  C   UNL     1       9.034  -6.353  11.855  0.00  0.00    +0.017 A 
ATOM     10  C   UNL     1       9.831  -6.952  10.896  0.00  0.00    +0.019 A 
ATOM     11  C   UNL     1       9.260  -7.332   9.692  0.00  0.00    +0.032 A 
ATOM     12  C   UNL     1       7.920  -7.110   9.468  0.00  0.00    +0.033 A 
ATOM     13  S   UNL     1       6.865  -7.455   8.077  0.00  0.00    -0.082 S 
ATOM     14 BR   UNL     1      11.669  -7.248  11.224  0.00  0.00    -0.050 Br
ATOM     15  H   UNL     1       5.128  -5.914  10.715  0.00  0.00    +0.149 HD
ENDBRANCH   3   5
BRANCH   1  16
ATOM     16  C   UNL     1       3.621  -4.760   5.988  0.00  0.00    +0.173 C 
BRANCH  16  17
ATOM     17  S   UNL     1       2.774  -5.404   4.520  0.00  0.00    -0.079 S 
BRANCH  17  23
ATOM     18  C   UNL     1       0.626  -0.619   1.042  0.00  0.00    +0.122 A 
ATOM     19  C   UNL     1       1.203   0.144   2.052  0.00  0.00    +0.048 A 
ATOM     20  C   UNL     1       1.838  -0.465   3.111  0.00  0.00    +0.033 A 
ATOM     21  C   UNL     1       1.904  -1.859   3.173  0.00  0.00    +0.090 A 
ATOM     22  N   UNL     1       2.449  -2.728   4.066  0.00  0.00    -0.222 NA
ATOM     23  C   UNL     1       2.240  -3.958   3.666  0.00  0.00    +0.168 A 
ATOM     24  H   UNL     1       1.267  -4.729   1.981  0.00  0.00    +0.168 HD
ATOM     25  N   UNL     1       1.548  -3.951   2.488  0.00  0.00    -0.333 N 
ATOM     26  C   UNL     1       1.321  -2.627   2.152  0.00  0.00    +0.070 A 
ATOM     27  C   UNL     1       0.680  -2.001   1.094  0.00  0.00    +0.073 A 
BRANCH  18  29
ATOM     28  C   UNL     1      -0.017   1.425   0.010  0.00  0.00    +0.277 C 
ATOM     29  O   UNL     1       0.002  -0.004   0.002  0.00  0.00    -0.495 OA
ENDBRANCH  18  29
ENDBRANCH  17  23
ENDBRANCH  16  17
ENDBRANCH   1  16
TORSDOF 5
