REMARK  Name = ZINC49554587
REMARK  13 active torsions:
REMARK  status: ('A' for Active; 'I' for Inactive)
REMARK    1  A    between atoms: C_1  and  C_2
REMARK    2  A    between atoms: C_4  and  N_22
REMARK    3  A    between atoms: C_7  and  S_8
REMARK    4  A    between atoms: S_8  and  N_11
REMARK    5  A    between atoms: N_11  and  C_12
REMARK    6  A    between atoms: C_12  and  C_14
REMARK    7  A    between atoms: C_12  and  C_18
REMARK    8  A    between atoms: C_14  and  C_15
REMARK    9  A    between atoms: C_15  and  C_16
REMARK   10  A    between atoms: C_15  and  C_17
REMARK   11  A    between atoms: C_18  and  N_19
REMARK   12  A    between atoms: N_19  and  C_20
REMARK   13  A    between atoms: N_19  and  C_21
REMARK                            x       y       z     vdW  Elec       q    Type
REMARK                         _______ _______ _______ _____ _____    ______ ____
ROOT
ATOM      1  S   UNL     1      -0.235   0.183   2.667  0.00  0.00    +0.059 S 
ATOM      2  O   UNL     1      -0.289  -0.990   3.467  0.00  0.00    -0.153 OA
ATOM      3  O   UNL     1      -0.328   0.144   1.250  0.00  0.00    -0.153 OA
ENDROOT
BRANCH   1  10
ATOM      4  C   UNL     1      -0.694   0.912   5.564  0.00  0.00    +0.046 C 
ATOM      5  C   UNL     1      -1.662   1.512   4.577  0.00  0.00    -0.022 A 
ATOM      6  C   UNL     1      -2.674   2.341   5.019  0.00  0.00    +0.028 A 
ATOM      7  C   UNL     1      -3.565   2.893   4.108  0.00  0.00    +0.025 A 
ATOM      8  C   UNL     1      -3.435   2.610   2.754  0.00  0.00    +0.024 A 
ATOM      9  C   UNL     1      -2.421   1.780   2.319  0.00  0.00    +0.030 A 
ATOM     10  C   UNL     1      -1.532   1.236   3.228  0.00  0.00    +0.108 A 
BRANCH   7  11
ATOM     11  N   UNL     1      -4.590   3.731   4.552  0.00  0.00    -0.358 N 
ATOM     12  H   UNL     1      -4.681   3.928   5.498  0.00  0.00    +0.142 HD
ATOM     13  H   UNL     1      -5.212   4.117   3.915  0.00  0.00    +0.142 HD
ENDBRANCH   7  11
ENDBRANCH   1  10
BRANCH   1  14
ATOM     14  N   UNL     1       1.196   0.936   3.027  0.00  0.00    -0.189 NA
ATOM     15  H   UNL     1       1.811   0.532   3.659  0.00  0.00    +0.148 HD
BRANCH  14  16
ATOM     16  C   UNL     1       1.533   2.211   2.389  0.00  0.00    +0.060 C 
BRANCH  16  17
ATOM     17  C   UNL     1       1.149   3.363   3.320  0.00  0.00    +0.021 C 
BRANCH  17  18
ATOM     18  C   UNL     1       1.369   4.695   2.600  0.00  0.00    -0.016 C 
ATOM     19  C   UNL     1       0.392   4.810   1.428  0.00  0.00    +0.007 C 
ATOM     20  C   UNL     1       1.131   5.849   3.577  0.00  0.00    +0.007 C 
ENDBRANCH  17  18
ENDBRANCH  16  17
BRANCH  16  21
ATOM     21  C   UNL     1       3.037   2.260   2.111  0.00  0.00    -0.059 C 
BRANCH  21  22
ATOM     22  N   UNL     1       3.425   1.095   1.306  0.00  0.00    +0.377 N 
ATOM     23  C   UNL     1       2.808   1.191  -0.024  0.00  0.00    -0.097 C 
ATOM     24  C   UNL     1       4.886   1.060   1.166  0.00  0.00    -0.097 C 
ATOM     25  H   UNL     1       3.110   0.251   1.762  0.00  0.00    -0.083 HD
ENDBRANCH  21  22
ENDBRANCH  16  21
ENDBRANCH  14  16
ENDBRANCH   1  14
TORSDOF 8
