REMARK  Name = ZINC59858004
REMARK  5 active torsions:
REMARK  status: ('A' for Active; 'I' for Inactive)
REMARK    1  A    between atoms: C_1  and  C_2
REMARK    2  A    between atoms: C_3  and  C_17
REMARK    3  A    between atoms: C_4  and  C_16
REMARK    4  A    between atoms: N_5  and  C_7
REMARK    5  A    between atoms: C_10  and  N_13
REMARK                            x       y       z     vdW  Elec       q    Type
REMARK                         _______ _______ _______ _____ _____    ______ ____
ROOT
ATOM      1  C   UNL     1       0.076   1.381   0.079  0.00  0.00    +0.068 C 
ATOM      2  C   UNL     1      -0.009  -0.121  -0.013  0.00  0.00    +0.068 A 
ATOM      3  C   UNL     1      -0.246  -0.872  -1.194  0.00  0.00    +0.020 A 
ATOM      4  C   UNL     1      -0.245  -2.212  -0.827  0.00  0.00    +0.049 A 
ATOM      5  N   UNL     1      -0.021  -2.263   0.497  0.00  0.00    -0.236 N 
ATOM      6  N   UNL     1       0.127  -0.958   0.976  0.00  0.00    -0.171 NA
ATOM      7  C   UNL     1      -0.457  -3.389  -1.744  0.00  0.00    +0.066 C 
ENDROOT
BRANCH   3   8
ATOM      8  C   UNL     1      -0.446  -0.353  -2.497  0.00  0.00    +0.029 C 
ATOM      9  C   UNL     1      -1.648  -0.569  -3.152  0.00  0.00    +0.101 C 
ATOM     10  C   UNL     1      -1.838  -0.183  -4.559  0.00  0.00    +0.274 C 
ATOM     11  O   UNL     1      -0.838   0.396  -5.257  0.00  0.00    -0.268 OA
ATOM     12  N   UNL     1      -3.009  -0.417  -5.124  0.00  0.00    -0.154 NA
ATOM     13  C   UNL     1      -4.013  -0.986  -4.462  0.00  0.00    +0.164 C 
ATOM     14  S   UNL     1      -5.488  -1.243  -5.292  0.00  0.00    -0.016 S 
ATOM     15  N   UNL     1      -3.932  -1.371  -3.180  0.00  0.00    -0.262 N 
ATOM     16  C   UNL     1      -2.795  -1.202  -2.471  0.00  0.00    +0.255 C 
ATOM     17  O   UNL     1      -2.719  -1.556  -1.310  0.00  0.00    -0.270 OA
ATOM     18  H   UNL     1      -4.702  -1.781  -2.755  0.00  0.00    +0.157 HD
ENDBRANCH   3   8
BRANCH   5  19
ATOM     19  C   UNL     1       0.056  -3.431   1.268  0.00  0.00    +0.066 A 
ATOM     20  C   UNL     1       0.755  -4.533   0.793  0.00  0.00    +0.030 A 
ATOM     21  C   UNL     1       0.831  -5.682   1.556  0.00  0.00    +0.035 A 
ATOM     22  C   UNL     1       0.210  -5.736   2.790  0.00  0.00    +0.126 A 
ATOM     23  C   UNL     1      -0.487  -4.640   3.266  0.00  0.00    +0.035 A 
ATOM     24  C   UNL     1      -0.561  -3.486   2.510  0.00  0.00    +0.030 A 
BRANCH  22  25
ATOM     25  N   UNL     1       0.292  -6.969   3.604  0.00  0.00    +0.056 N 
ATOM     26  O   UNL     1       0.900  -7.928   3.190  0.00  0.00    -0.126 OA
ATOM     27  O   UNL     1      -0.250  -7.018   4.684  0.00  0.00    -0.126 OA
ENDBRANCH  22  25
ENDBRANCH   5  19
TORSDOF 3
