REMARK  Name = ZINC31973147
REMARK  7 active torsions:
REMARK  status: ('A' for Active; 'I' for Inactive)
REMARK    1  A    between atoms: C_1  and  C_2
REMARK    2  A    between atoms: C_2  and  O_3
REMARK    3  A    between atoms: O_3  and  C_4
REMARK    4  A    between atoms: C_7  and  C_10
REMARK    5  A    between atoms: C_11  and  C_20
REMARK    6  A    between atoms: C_14  and  C_19
REMARK    7  A    between atoms: C_21  and  C_22
REMARK                            x       y       z     vdW  Elec       q    Type
REMARK                         _______ _______ _______ _____ _____    ______ ____
ROOT
ATOM      1  C   UNL     1       1.260  -0.439  -0.012  0.00  0.00    +0.072 A 
ATOM      2  C   UNL     1       2.102   0.682  -0.014  0.00  0.00    +0.072 A 
ATOM      3  N   UNL     1       1.271   1.789  -0.001  0.00  0.00    -0.301 N 
ATOM      4  C   UNL     1       1.529   3.125   0.004  0.00  0.00    +0.096 A 
ATOM      5  C   UNL     1       0.517   4.022   0.017  0.00  0.00    -0.034 A 
ATOM      6  C   UNL     1      -0.814   3.582   0.028  0.00  0.00    +0.008 A 
ATOM      7  C   UNL     1      -1.082   2.245   0.030  0.00  0.00    +0.045 A 
ATOM      8  C   UNL     1      -0.016   1.327   0.009  0.00  0.00    +0.116 A 
ATOM      9  N   UNL     1       0.002  -0.004   0.002  0.00  0.00    -0.339 N 
ATOM     10  C   UNL     1       0.821   5.498   0.022  0.00  0.00    +0.045 C 
ATOM     11  H   UNL     1      -0.829  -0.725   0.006  0.00  0.00    +0.167 HD
ENDROOT
BRANCH   1  15
ATOM     12  C   UNL     1       2.504  -4.504  -0.045  0.00  0.00    +0.121 A 
ATOM     13  C   UNL     1       1.365  -4.134   0.657  0.00  0.00    +0.046 A 
ATOM     14  C   UNL     1       0.959  -2.817   0.670  0.00  0.00    +0.013 A 
ATOM     15  C   UNL     1       1.693  -1.855  -0.024  0.00  0.00    +0.001 A 
ATOM     16  C   UNL     1       2.834  -2.231  -0.734  0.00  0.00    +0.013 A 
ATOM     17  C   UNL     1       3.238  -3.549  -0.738  0.00  0.00    +0.046 A 
BRANCH  12  18
ATOM     18  O   UNL     1       2.902  -5.802  -0.056  0.00  0.00    -0.492 OA
BRANCH  18  20
ATOM     19  C   UNL     1       4.371  -7.612  -0.694  0.00  0.00    +0.048 C 
ATOM     20  C   UNL     1       4.083  -6.113  -0.798  0.00  0.00    +0.225 C 
ENDBRANCH  18  20
ENDBRANCH  12  18
ENDBRANCH   1  15
BRANCH   2  21
ATOM     21  C   UNL     1       3.506   0.682  -0.028  0.00  0.00    +0.035 C 
ATOM     22  C   UNL     1       4.197  -0.083   0.867  0.00  0.00    +0.098 C 
BRANCH  22  23
ATOM     23  C   UNL     1       5.604  -0.082   0.853  0.00  0.00    +0.380 C 
ATOM     24  O   UNL     1       6.205   0.600   0.043  0.00  0.00    -0.241 OA
ATOM     25  O   UNL     1       6.288  -0.839   1.739  0.00  0.00    -0.241 OA
ENDBRANCH  22  23
ENDBRANCH   2  21
TORSDOF 5
