REMARK  Name = ZINC67119336
REMARK  6 active torsions:
REMARK  status: ('A' for Active; 'I' for Inactive)
REMARK    1  A    between atoms: C_1  and  C_2
REMARK    2  A    between atoms: C_8  and  C_10
REMARK    3  A    between atoms: N_15  and  C_17
REMARK    4  A    between atoms: C_17  and  C_19
REMARK    5  A    between atoms: C_17  and  C_20
REMARK    6  A    between atoms: C_26  and  C_29
REMARK                            x       y       z     vdW  Elec       q    Type
REMARK                         _______ _______ _______ _____ _____    ______ ____
ROOT
ATOM      1  C   UNL     1       2.774  -4.053   1.303  0.00  0.00    +0.059 C 
ATOM      2  C   UNL     1       1.797  -5.072   1.896  0.00  0.00    +0.009 C 
ATOM      3  C   UNL     1       2.432  -5.712   3.134  0.00  0.00    -0.018 C 
ATOM      4  C   UNL     1       3.768  -6.348   2.745  0.00  0.00    -0.078 C 
ATOM      5  N   UNL     1       4.667  -5.318   2.210  0.00  0.00    +0.388 N 
ATOM      6  C   UNL     1       4.098  -4.749   0.982  0.00  0.00    -0.065 C 
ATOM      7  H   UNL     1       4.784  -4.587   2.895  0.00  0.00    -0.081 HD
ENDROOT
BRANCH   1  15
ATOM      8  C   UNL     1      -0.005   1.486   0.589  0.00  0.00    +0.007 C 
ATOM      9  C   UNL     1      -0.023  -0.030   0.388  0.00  0.00    -0.011 C 
ATOM     10  C   UNL     1       0.751  -0.385  -0.884  0.00  0.00    +0.022 C 
ATOM     11  C   UNL     1       0.702  -1.901  -1.101  0.00  0.00    +0.108 C 
ATOM     12  N   UNL     1       1.195  -2.568   0.112  0.00  0.00    -0.301 N 
ATOM     13  C   UNL     1       0.580  -2.232   1.403  0.00  0.00    +0.108 C 
ATOM     14  C   UNL     1       0.631  -0.712   1.592  0.00  0.00    +0.022 C 
ATOM     15  C   UNL     1       2.191  -3.473   0.040  0.00  0.00    +0.217 C 
ATOM     16  O   UNL     1       2.619  -3.820  -1.040  0.00  0.00    -0.275 OA
ENDBRANCH   1  15
BRANCH   5  17
ATOM     17  C   UNL     1       5.973  -5.918   1.911  0.00  0.00    +0.016 C 
ATOM     18  C   UNL     1       6.902  -4.853   1.325  0.00  0.00    -0.004 C 
BRANCH  17  19
ATOM     19  C   UNL     1       6.576  -6.468   3.178  0.00  0.00    +0.202 C 
ATOM     20  O   UNL     1       6.223  -6.036   4.255  0.00  0.00    -0.277 OA
ATOM     21  N   UNL     1       7.507  -7.440   3.115  0.00  0.00    -0.302 N 
ATOM     22  C   UNL     1       8.035  -7.889   1.819  0.00  0.00    +0.108 C 
ATOM     23  C   UNL     1       9.564  -7.801   1.852  0.00  0.00    +0.020 C 
ATOM     24  C   UNL     1      10.090  -8.591   3.052  0.00  0.00    +0.016 C 
ATOM     25  C   UNL     1       9.544  -7.982   4.346  0.00  0.00    +0.092 C 
ATOM     26  C   UNL     1       8.019  -8.068   4.341  0.00  0.00    +0.120 C 
BRANCH  25  27
ATOM     27  C   UNL     1      10.089  -8.740   5.528  0.00  0.00    +0.215 C 
ATOM     28  O   UNL     1       9.331  -9.296   6.295  0.00  0.00    -0.276 OA
ATOM     29  N   UNL     1      11.419  -8.801   5.734  0.00  0.00    -0.329 N 
ATOM     30  H   UNL     1      12.026  -8.357   5.121  0.00  0.00    +0.145 HD
ATOM     31  H   UNL     1      11.771  -9.289   6.496  0.00  0.00    +0.145 HD
ENDBRANCH  25  27
ENDBRANCH  17  19
ENDBRANCH   5  17
TORSDOF 4
