REMARK  Name = ZINC48817763
REMARK  6 active torsions:
REMARK  status: ('A' for Active; 'I' for Inactive)
REMARK    1  A    between atoms: C_11  and  C_15
REMARK    2  A    between atoms: C_15  and  C_17
REMARK    3  A    between atoms: C_15  and  C_19
REMARK    4  A    between atoms: C_19  and  C_21
REMARK    5  A    between atoms: C_21  and  N_22
REMARK    6  A    between atoms: N_25  and  C_26
REMARK                            x       y       z     vdW  Elec       q    Type
REMARK                         _______ _______ _______ _____ _____    ______ ____
ROOT
ATOM      1  C   UNL     1      -0.019   1.524   0.010  0.00  0.00    +0.005 C 
ATOM      2  C   UNL     1       1.415   2.064  -0.000  0.00  0.00    +0.005 C 
ATOM      3  C   UNL     1       2.060   1.770   1.361  0.00  0.00    +0.043 C 
ATOM      4  C   UNL     1       1.796   0.339   1.712  0.00  0.00    -0.004 A 
ATOM      5  C   UNL     1       0.894  -0.493   1.140  0.00  0.00    -0.023 A 
ATOM      6  C   UNL     1       0.832  -1.845   1.664  0.00  0.00    +0.075 A 
ATOM      7  C   UNL     1      -0.037  -2.900   1.223  0.00  0.00    +0.260 A 
ATOM      8  O   UNL     1      -0.842  -2.742   0.322  0.00  0.00    -0.267 OA
ATOM      9  N   UNL     1       0.096  -4.080   1.873  0.00  0.00    -0.309 N 
ATOM     10  H   UNL     1      -0.472  -4.821   1.607  0.00  0.00    +0.170 HD
ATOM     11  C   UNL     1       0.984  -4.277   2.876  0.00  0.00    +0.135 A 
ATOM     12  N   UNL     1       1.796  -3.337   3.308  0.00  0.00    -0.225 NA
ATOM     13  C   UNL     1       1.723  -2.147   2.718  0.00  0.00    +0.116 A 
ATOM     14  S   UNL     1       2.596  -0.633   2.964  0.00  0.00    -0.073 S 
ATOM     15  C   UNL     1       0.002  -0.004   0.002  0.00  0.00    +0.037 C 
ENDROOT
BRANCH  11  16
ATOM     16  C   UNL     1       1.046  -5.634   3.527  0.00  0.00    +0.224 C 
BRANCH  16  17
ATOM     17  C   UNL     1       1.930  -6.514   2.745  0.00  0.00    +0.081 C 
ATOM     18  N   UNL     1       2.612  -7.193   2.141  0.00  0.00    -0.195 NA
ENDBRANCH  16  17
BRANCH  16  19
ATOM     19  C   UNL     1       1.586  -5.496   4.927  0.00  0.00    +0.174 C 
ATOM     20  O   UNL     1       2.292  -4.559   5.212  0.00  0.00    -0.294 OA
BRANCH  19  21
ATOM     21  C   UNL     1       1.244  -6.527   5.972  0.00  0.00    +0.182 C 
BRANCH  21  22
ATOM     22  N   UNL     1       1.886  -6.169   7.239  0.00  0.00    -0.292 N 
ATOM     23  C   UNL     1       1.719  -6.952   8.323  0.00  0.00    +0.300 C 
ATOM     24  O   UNL     1       1.037  -7.956   8.249  0.00  0.00    -0.253 OA
ATOM     25  N   UNL     1       2.309  -6.623   9.490  0.00  0.00    -0.297 N 
ATOM     26  H   UNL     1       2.430  -5.369   7.298  0.00  0.00    +0.151 HD
ATOM     27  H   UNL     1       2.854  -5.823   9.549  0.00  0.00    +0.151 HD
BRANCH  25  28
ATOM     28  C   UNL     1       2.129  -7.475  10.668  0.00  0.00    +0.075 C 
ATOM     29  C   UNL     1       1.852  -6.782  12.004  0.00  0.00    +0.024 C 
ATOM     30  C   UNL     1       3.214  -7.430  11.745  0.00  0.00    +0.024 C 
ENDBRANCH  25  28
ENDBRANCH  21  22
ENDBRANCH  19  21
ENDBRANCH  16  19
ENDBRANCH  11  16
TORSDOF 6
