REMARK  Name = ZINC12274256
REMARK  7 active torsions:
REMARK  status: ('A' for Active; 'I' for Inactive)
REMARK    1  A    between atoms: C_8  and  C_10
REMARK    2  A    between atoms: C_10  and  C_34
REMARK    3  A    between atoms: C_11  and  C_12
REMARK    4  A    between atoms: C_11  and  N_27
REMARK    5  A    between atoms: C_15  and  C_17
REMARK    6  A    between atoms: C_21  and  C_23
REMARK    7  A    between atoms: C_28  and  N_29
REMARK                            x       y       z     vdW  Elec       q    Type
REMARK                         _______ _______ _______ _____ _____    ______ ____
ROOT
ATOM      1  C   UNL     1       1.214   9.691  -0.707  0.00  0.00    +0.113 C 
ATOM      2  C   UNL     1       1.473   8.521   0.007  0.00  0.00    +0.127 C 
ENDROOT
BRANCH   1  10
ATOM      3  C   UNL     1       6.665  11.470  -2.958  0.00  0.00    +0.002 A 
ATOM      4  C   UNL     1       6.137  12.620  -3.529  0.00  0.00    +0.001 A 
ATOM      5  C   UNL     1       4.787  12.886  -3.392  0.00  0.00    +0.017 A 
ATOM      6  C   UNL     1       3.990  12.011  -2.697  0.00  0.00    +0.040 A 
ATOM      7  C   UNL     1       4.492  10.830  -2.102  0.00  0.00    +0.079 A 
ATOM      8  C   UNL     1       5.878  10.591  -2.262  0.00  0.00    +0.029 A 
ATOM      9  N   UNL     1       3.588  10.074  -1.448  0.00  0.00    -0.238 NA
ATOM     10  C   UNL     1       2.313  10.404  -1.373  0.00  0.00    +0.122 A 
ATOM     11  S   UNL     1       2.265  11.943  -2.280  0.00  0.00    -0.066 S 
ENDBRANCH   1  10
BRANCH   2  12
ATOM     12  N   UNL     1       2.777   8.125   0.235  0.00  0.00    -0.234 N 
ATOM     13  C   UNL     1       3.201   6.819   0.249  0.00  0.00    +0.122 A 
ATOM     14  C   UNL     1       4.688   6.867   0.533  0.00  0.00    +0.114 A 
ATOM     15  C   UNL     1       4.991   8.343   0.675  0.00  0.00    +0.267 A 
ATOM     16  O   UNL     1       6.072   8.839   0.912  0.00  0.00    -0.266 OA
ATOM     17  N   UNL     1       3.831   8.998   0.489  0.00  0.00    -0.257 N 
ATOM     18  H   UNL     1       3.653  10.084   0.516  0.00  0.00    +0.191 HD
BRANCH  13  19
ATOM     19  N   UNL     1       2.478   5.765   0.057  0.00  0.00    -0.343 N 
ATOM     20  H   UNL     1       1.401   5.865  -0.142  0.00  0.00    +0.144 HD
ATOM     21  H   UNL     1       2.941   4.767   0.094  0.00  0.00    +0.144 HD
ENDBRANCH  13  19
ENDBRANCH   2  12
BRANCH   2  22
ATOM     22  C   UNL     1       0.399   7.738   0.496  0.00  0.00    +0.155 A 
ATOM     23  C   UNL     1      -0.704   7.328  -0.228  0.00  0.00    +0.052 A 
ATOM     24  C   UNL     1      -1.504   6.583   0.642  0.00  0.00    +0.050 A 
ATOM     25  C   UNL     1      -0.872   6.563   1.853  0.00  0.00    +0.136 A 
ATOM     26  O   UNL     1       0.270   7.266   1.755  0.00  0.00    -0.453 OA
BRANCH  25  27
ATOM     27  C   UNL     1      -1.364   5.887   3.069  0.00  0.00    +0.018 A 
ATOM     28  C   UNL     1      -2.575   5.191   3.044  0.00  0.00    +0.011 A 
ATOM     29  C   UNL     1      -3.027   4.559   4.183  0.00  0.00    +0.001 A 
ATOM     30  C   UNL     1      -2.288   4.620   5.352  0.00  0.00    +0.012 A 
ATOM     31  C   UNL     1      -1.088   5.307   5.384  0.00  0.00    +0.055 A 
ATOM     32  C   UNL     1      -0.621   5.941   4.251  0.00  0.00    +0.024 A 
BRANCH  31  33
ATOM     33  C   UNL     1      -0.288   5.364   6.660  0.00  0.00    +0.417 C 
ATOM     34  F   UNL     1      -0.958   4.654   7.662  0.00  0.00    -0.166 F 
ATOM     35  F   UNL     1       0.971   4.793   6.447  0.00  0.00    -0.166 F 
ATOM     36  F   UNL     1      -0.134   6.697   7.055  0.00  0.00    -0.166 F 
ENDBRANCH  31  33
ENDBRANCH  25  27
ENDBRANCH   2  22
BRANCH   1  37
ATOM     37  C   UNL     1      -0.123  10.198  -0.790  0.00  0.00    +0.104 C 
ATOM     38  N   UNL     1      -1.183  10.600  -0.856  0.00  0.00    -0.191 NA
ENDBRANCH   1  37
TORSDOF 7
