REMARK  Name = ZINC51096563
REMARK  5 active torsions:
REMARK  status: ('A' for Active; 'I' for Inactive)
REMARK    1  A    between atoms: C_1  and  C_2
REMARK    2  A    between atoms: C_8  and  N_10
REMARK    3  A    between atoms: C_11  and  C_13
REMARK    4  A    between atoms: C_17  and  N_19
REMARK    5  A    between atoms: N_19  and  N_20
REMARK                            x       y       z     vdW  Elec       q    Type
REMARK                         _______ _______ _______ _____ _____    ______ ____
ROOT
ATOM      1  C   UNL     1       0.045   0.571   4.820  0.00  0.00    +0.146 A 
ATOM      2  C   UNL     1       0.757   0.710   6.009  0.00  0.00    +0.072 A 
ATOM      3  C   UNL     1       0.096   1.159   7.146  0.00  0.00    +0.026 A 
ATOM      4  C   UNL     1      -1.252   1.453   7.054  0.00  0.00    +0.046 A 
ATOM      5  C   UNL     1      -1.905   1.292   5.833  0.00  0.00    +0.133 A 
ATOM      6  N   UNL     1      -1.249   0.868   4.768  0.00  0.00    -0.225 NA
ATOM      7 CL   UNL     1       2.449   0.326   6.070  0.00  0.00    -0.081 Cl
ENDROOT
BRANCH   1   9
ATOM      8  N   UNL     1       0.056  -0.038   2.447  0.00  0.00    -0.307 N 
ATOM      9  C   UNL     1       0.738   0.093   3.602  0.00  0.00    +0.264 C 
ATOM     10  O   UNL     1       1.921  -0.180   3.644  0.00  0.00    -0.268 OA
ATOM     11  H   UNL     1      -0.888   0.180   2.413  0.00  0.00    +0.149 HD
BRANCH   8  18
ATOM     12  C   UNL     1      -0.019   1.526   0.010  0.00  0.00    +0.009 C 
ATOM     13  C   UNL     1       0.002  -0.004   0.002  0.00  0.00    +0.006 C 
ATOM     14  C   UNL     1      -1.433  -0.534   0.013  0.00  0.00    +0.005 C 
ATOM     15  C   UNL     1      -1.413  -2.063   0.004  0.00  0.00    +0.000 C 
ATOM     16  C   UNL     1      -0.673  -2.570   1.244  0.00  0.00    +0.002 C 
ATOM     17  C   UNL     1       0.763  -2.041   1.233  0.00  0.00    +0.022 C 
ATOM     18  C   UNL     1       0.742  -0.511   1.242  0.00  0.00    +0.076 C 
ENDBRANCH   8  18
ENDBRANCH   1   9
BRANCH   5  19
ATOM     19  N   UNL     1      -3.260   1.585   5.734  0.00  0.00    -0.268 N 
ATOM     20  H   UNL     1      -3.746   1.901   6.512  0.00  0.00    +0.167 HD
BRANCH  19  21
ATOM     21  N   UNL     1      -3.907   1.430   4.541  0.00  0.00    -0.255 NA
ATOM     22  H   UNL     1      -3.804   0.488   4.193  0.00  0.00    +0.140 HD
ATOM     23  H   UNL     1      -4.881   1.681   4.623  0.00  0.00    +0.140 HD
ENDBRANCH  19  21
ENDBRANCH   5  19
TORSDOF 4
