REMARK  Name = ZINC03091418
REMARK  4 active torsions:
REMARK  status: ('A' for Active; 'I' for Inactive)
REMARK    1  A    between atoms: C_1  and  C_2
REMARK    2  A    between atoms: C_3  and  C_11
REMARK    3  A    between atoms: C_11  and  C_13
REMARK    4  A    between atoms: C_11  and  O_17
REMARK                            x       y       z     vdW  Elec       q    Type
REMARK                         _______ _______ _______ _____ _____    ______ ____
ROOT
ATOM      1  C   UNL     1       1.151  -2.206  -0.261  0.00  0.00    +0.066 C 
ATOM      2  C   UNL     1       1.149  -0.704  -0.132  0.00  0.00    +0.053 A 
ATOM      3  C   UNL     1       2.329  -0.028  -0.026  0.00  0.00    +0.070 A 
ATOM      4  C   UNL     1       2.301   1.373   0.093  0.00  0.00    +0.259 A 
ATOM      5  O   UNL     1       3.338   2.010   0.191  0.00  0.00    -0.267 OA
ATOM      6  N   UNL     1       1.106   2.000   0.098  0.00  0.00    -0.295 N 
ATOM      7  H   UNL     1       1.062   2.996   0.181  0.00  0.00    +0.172 HD
ATOM      8  C   UNL     1      -0.039   1.273  -0.011  0.00  0.00    +0.193 A 
ATOM      9  N   UNL     1      -0.004  -0.040  -0.122  0.00  0.00    -0.221 NA
ATOM     10  N   UNL     1      -1.247   1.917  -0.011  0.00  0.00    -0.329 N 
ATOM     11  H   UNL     1      -2.068   1.407  -0.092  0.00  0.00    +0.145 HD
ATOM     12  H   UNL     1      -1.282   2.882   0.071  0.00  0.00    +0.145 HD
ENDROOT
BRANCH   3  13
ATOM     13  C   UNL     1       3.641  -0.769  -0.035  0.00  0.00    +0.202 C 
BRANCH  13  14
ATOM     14  C   UNL     1       4.318  -0.592  -1.396  0.00  0.00    +0.220 C 
ATOM     15 CL   UNL     1       4.768   1.139  -1.622  0.00  0.00    -0.080 Cl
ATOM     16 CL   UNL     1       5.802  -1.613  -1.467  0.00  0.00    -0.080 Cl
ATOM     17 CL   UNL     1       3.180  -1.092  -2.703  0.00  0.00    -0.080 Cl
ENDBRANCH  13  14
BRANCH  13  18
ATOM     18  O   UNL     1       4.490  -0.249   0.990  0.00  0.00    -0.383 OA
ATOM     19  H   UNL     1       4.693   0.691   0.893  0.00  0.00    +0.210 HD
ENDBRANCH  13  18
ENDBRANCH   3  13
TORSDOF 3
