REMARK  Name = ZINC58457608
REMARK  3 active torsions:
REMARK  status: ('A' for Active; 'I' for Inactive)
REMARK    1  A    between atoms: C_12  and  C_14
REMARK    2  A    between atoms: C_17  and  S_19
REMARK    3  A    between atoms: S_19  and  N_22
REMARK                            x       y       z     vdW  Elec       q    Type
REMARK                         _______ _______ _______ _____ _____    ______ ____
ROOT
ATOM      1  C   UNL     1       0.084   1.230  -0.022  0.00  0.00    +0.040 A 
ATOM      2  C   UNL     1       1.255   1.962  -0.041  0.00  0.00    +0.026 A 
ATOM      3  C   UNL     1       2.456   1.345  -0.371  0.00  0.00    +0.040 A 
ATOM      4  C   UNL     1       2.481  -0.006  -0.680  0.00  0.00    -0.023 A 
ATOM      5  C   UNL     1       1.303  -0.734  -0.663  0.00  0.00    +0.043 A 
ATOM      6  C   UNL     1       0.108  -0.118  -0.335  0.00  0.00    +0.124 A 
ATOM      7  F   UNL     1      -1.037  -0.835  -0.319  0.00  0.00    -0.205 F 
ATOM      8  C   UNL     1       3.766  -0.709  -1.032  0.00  0.00    +0.038 C 
ATOM      9  C   UNL     1       4.821   0.299  -1.487  0.00  0.00    +0.024 C 
ATOM     10  C   UNL     1       4.927   1.414  -0.438  0.00  0.00    +0.114 C 
ATOM     11  N   UNL     1       3.632   2.107  -0.388  0.00  0.00    -0.265 N 
ATOM     12  C   UNL     1       3.577   3.454  -0.358  0.00  0.00    +0.286 C 
ATOM     13  O   UNL     1       2.503   4.020  -0.442  0.00  0.00    -0.266 OA
ENDROOT
BRANCH  12  14
ATOM     14  C   UNL     1       4.810   4.236  -0.224  0.00  0.00    +0.192 A 
ATOM     15  C   UNL     1       4.912   5.594  -0.314  0.00  0.00    +0.057 A 
ATOM     16  C   UNL     1       6.266   5.910  -0.123  0.00  0.00    +0.072 A 
ATOM     17  C   UNL     1       6.923   4.746   0.072  0.00  0.00    +0.258 A 
ATOM     18  O   UNL     1       6.041   3.739   0.016  0.00  0.00    -0.432 OA
BRANCH  17  19
ATOM     19  S   UNL     1       8.653   4.579   0.360  0.00  0.00    +0.089 S 
ATOM     20  O   UNL     1       9.018   3.284  -0.099  0.00  0.00    -0.150 OA
ATOM     21  O   UNL     1       9.263   5.763  -0.136  0.00  0.00    -0.150 OA
BRANCH  19  22
ATOM     22  N   UNL     1       8.880   4.582   2.000  0.00  0.00    -0.201 NA
ATOM     23  H   UNL     1       9.622   4.092   2.388  0.00  0.00    +0.144 HD
ATOM     24  H   UNL     1       8.270   5.073   2.573  0.00  0.00    +0.144 HD
ENDBRANCH  19  22
ENDBRANCH  17  19
ENDBRANCH  12  14
TORSDOF 3
