REMARK  Name = ZINC12467545
REMARK  12 active torsions:
REMARK  status: ('A' for Active; 'I' for Inactive)
REMARK    1  A    between atoms: C_1  and  C_2
REMARK    2  A    between atoms: C_5  and  C_7
REMARK    3  A    between atoms: C_7  and  C_9
REMARK    4  A    between atoms: C_7  and  N_16
REMARK    5  A    between atoms: N_11  and  C_12
REMARK    6  A    between atoms: C_12  and  C_13
REMARK    7  A    between atoms: C_13  and  O_14
REMARK    8  A    between atoms: O_14  and  C_15
REMARK    9  A    between atoms: N_16  and  C_17
REMARK   10  A    between atoms: C_26  and  C_28
REMARK   11  A    between atoms: C_29  and  N_36
REMARK   12  A    between atoms: C_30  and  C_33
REMARK                            x       y       z     vdW  Elec       q    Type
REMARK                         _______ _______ _______ _____ _____    ______ ____
ROOT
ATOM      1  N   UNL     1      -1.589   0.112   4.747  0.00  0.00    -0.248 N 
ATOM      2  C   UNL     1      -0.639   1.029   4.478  0.00  0.00    +0.262 C 
ATOM      3  O   UNL     1       0.119   0.863   3.540  0.00  0.00    -0.269 OA
ENDROOT
BRANCH   1   4
ATOM      4  C   UNL     1      -1.631  -1.086   4.024  0.00  0.00    +0.042 A 
ATOM      5  C   UNL     1      -2.769  -1.423   3.303  0.00  0.00    +0.027 A 
ATOM      6  C   UNL     1      -2.811  -2.606   2.589  0.00  0.00    +0.051 A 
ATOM      7  C   UNL     1      -1.719  -3.458   2.591  0.00  0.00    +0.166 A 
ATOM      8  C   UNL     1      -0.576  -3.123   3.312  0.00  0.00    +0.168 A 
ATOM      9  C   UNL     1      -0.532  -1.935   4.023  0.00  0.00    +0.073 A 
ATOM     10  O   UNL     1       0.347  -4.116   3.154  0.00  0.00    -0.453 OA
ATOM     11  C   UNL     1      -0.086  -4.864   2.002  0.00  0.00    +0.466 C 
ATOM     12  O   UNL     1      -1.511  -4.662   1.980  0.00  0.00    -0.453 OA
ENDBRANCH   1   4
BRANCH   2  13
ATOM     13  C   UNL     1      -0.518   2.225   5.313  0.00  0.00    +0.116 A 
ATOM     14  C   UNL     1       0.625   2.815   5.854  0.00  0.00    +0.076 A 
ATOM     15  C   UNL     1       0.335   3.958   6.600  0.00  0.00    +0.155 A 
ATOM     16  N   UNL     1      -0.915   4.344   6.725  0.00  0.00    -0.203 NA
ATOM     17  S   UNL     1      -1.792   3.313   5.918  0.00  0.00    +0.019 S 
BRANCH  15  18
ATOM     18  C   UNL     1       1.419   4.720   7.247  0.00  0.00    +0.262 C 
ATOM     19  O   UNL     1       2.573   4.357   7.128  0.00  0.00    -0.269 OA
ATOM     20  N   UNL     1       1.130   5.820   7.970  0.00  0.00    -0.324 N 
ATOM     21  H   UNL     1       0.209   6.110   8.066  0.00  0.00    +0.145 HD
ATOM     22  H   UNL     1       1.843   6.322   8.396  0.00  0.00    +0.145 HD
ENDBRANCH  15  18
BRANCH  14  23
ATOM     23  N   UNL     1       1.910   2.321   5.668  0.00  0.00    -0.355 N 
ATOM     24  H   UNL     1       2.050   1.522   5.137  0.00  0.00    +0.142 HD
ATOM     25  H   UNL     1       2.667   2.775   6.070  0.00  0.00    +0.142 HD
ENDBRANCH  14  23
ENDBRANCH   2  13
BRANCH   1  26
ATOM     26  C   UNL     1      -2.579   0.369   5.796  0.00  0.00    +0.233 C 
BRANCH  26  31
ATOM     27  C   UNL     1      -6.282   1.552   2.582  0.00  0.00    +0.086 C 
ATOM     28  C   UNL     1      -5.393   1.564   3.799  0.00  0.00    +0.102 A 
ATOM     29  C   UNL     1      -5.515   2.388   4.855  0.00  0.00    +0.045 A 
ATOM     30  C   UNL     1      -4.480   2.053   5.758  0.00  0.00    +0.047 A 
ATOM     31  C   UNL     1      -3.782   1.050   5.196  0.00  0.00    +0.135 A 
ATOM     32  O   UNL     1      -4.339   0.758   4.009  0.00  0.00    -0.462 OA
ENDBRANCH  26  31
BRANCH  26  33
ATOM     33  C   UNL     1      -3.000  -0.936   6.420  0.00  0.00    +0.242 C 
ATOM     34  O   UNL     1      -2.521  -1.979   6.027  0.00  0.00    -0.273 OA
ATOM     35  N   UNL     1      -3.909  -0.945   7.415  0.00  0.00    -0.311 N 
ATOM     36  H   UNL     1      -4.293  -0.112   7.729  0.00  0.00    +0.149 HD
BRANCH  35  37
ATOM     37  C   UNL     1      -4.319  -2.214   8.022  0.00  0.00    +0.132 C 
BRANCH  37  38
ATOM     38  C   UNL     1      -5.352  -1.946   9.117  0.00  0.00    +0.178 C 
BRANCH  38  39
ATOM     39  O   UNL     1      -6.539  -1.407   8.531  0.00  0.00    -0.381 OA
ATOM     40  C   UNL     1      -7.574  -1.119   9.474  0.00  0.00    +0.194 C 
ENDBRANCH  38  39
ENDBRANCH  37  38
ENDBRANCH  35  37
ENDBRANCH  26  33
ENDBRANCH   1  26
TORSDOF 10
