REMARK  Name = ZINC39592017
REMARK  7 active torsions:
REMARK  status: ('A' for Active; 'I' for Inactive)
REMARK    1  A    between atoms: C_1  and  C_2
REMARK    2  A    between atoms: C_5  and  C_8
REMARK    3  A    between atoms: C_10  and  C_14
REMARK    4  A    between atoms: C_21  and  C_23
REMARK    5  A    between atoms: C_23  and  O_24
REMARK    6  A    between atoms: O_24  and  C_25
REMARK    7  A    between atoms: C_28  and  C_31
REMARK                            x       y       z     vdW  Elec       q    Type
REMARK                         _______ _______ _______ _____ _____    ______ ____
ROOT
ATOM      1  C   UNL     1       1.358  -7.180   0.973  0.00  0.00    +0.230 C 
ATOM      2  N   UNL     1       2.551  -6.519   0.425  0.00  0.00    -0.242 N 
ATOM      3  N   UNL     1       3.181  -7.469  -0.389  0.00  0.00    -0.161 NA
ATOM      4  C   UNL     1       2.533  -8.579  -0.395  0.00  0.00    +0.201 C 
ATOM      5  N   UNL     1       1.390  -8.549   0.399  0.00  0.00    -0.175 N 
ATOM      6  N   UNL     1       0.639  -9.719   0.442  0.00  0.00    -0.170 NA
ATOM      7  C   UNL     1       0.987 -10.774  -0.221  0.00  0.00    +0.137 C 
ATOM      8  S   UNL     1       2.490 -10.240  -1.038  0.00  0.00    -0.031 S 
ATOM      9  H   UNL     1       2.844  -5.610   0.594  0.00  0.00    +0.170 HD
ENDROOT
BRANCH   1  12
ATOM     10  C   UNL     1       0.061  -4.256  -0.021  0.00  0.00    +0.091 C 
ATOM     11  C   UNL     1       0.071  -5.030   1.081  0.00  0.00    +0.035 C 
ATOM     12  C   UNL     1       0.090  -6.445   0.530  0.00  0.00    +0.194 C 
ATOM     13  N   UNL     1       0.087  -6.239  -0.927  0.00  0.00    -0.176 NA
ATOM     14  N   UNL     1       0.065  -5.025  -1.142  0.00  0.00    -0.154 NA
BRANCH  10  19
ATOM     15  C   UNL     1      -0.018   1.503   0.010  0.00  0.00    +0.044 C 
ATOM     16  C   UNL     1       0.002  -0.004   0.002  0.00  0.00    -0.050 A 
ATOM     17  C   UNL     1       0.006  -0.686  -1.201  0.00  0.00    +0.004 A 
ATOM     18  C   UNL     1       0.025  -2.066  -1.215  0.00  0.00    +0.010 A 
ATOM     19  C   UNL     1       0.041  -2.772  -0.013  0.00  0.00    +0.002 A 
ATOM     20  C   UNL     1       0.037  -2.080   1.196  0.00  0.00    +0.010 A 
ATOM     21  C   UNL     1       0.023  -0.700   1.198  0.00  0.00    +0.004 A 
ENDBRANCH  10  19
ENDBRANCH   1  12
BRANCH   7  22
ATOM     22  C   UNL     1       0.300 -12.114  -0.289  0.00  0.00    +0.293 C 
BRANCH  22  23
ATOM     23  O   UNL     1      -0.875 -12.088   0.524  0.00  0.00    -0.485 OA
BRANCH  23  24
ATOM     24  C   UNL     1      -1.616 -13.226   0.572  0.00  0.00    +0.121 A 
ATOM     25  C   UNL     1      -1.218 -14.346  -0.143  0.00  0.00    +0.046 A 
ATOM     26  C   UNL     1      -1.972 -15.502  -0.091  0.00  0.00    +0.007 A 
ATOM     27  C   UNL     1      -3.124 -15.543   0.672  0.00  0.00    -0.050 A 
ATOM     28  C   UNL     1      -3.524 -14.428   1.386  0.00  0.00    +0.007 A 
ATOM     29  C   UNL     1      -2.769 -13.272   1.342  0.00  0.00    +0.046 A 
ATOM     30  C   UNL     1      -3.946 -16.805   0.726  0.00  0.00    +0.044 C 
ENDBRANCH  23  24
ENDBRANCH  22  23
ENDBRANCH   7  22
TORSDOF 5
