REMARK  Name = ZINC17642895
REMARK  8 active torsions:
REMARK  status: ('A' for Active; 'I' for Inactive)
REMARK    1  A    between atoms: C_1  and  C_2
REMARK    2  A    between atoms: C_3  and  C_33
REMARK    3  A    between atoms: C_11  and  C_13
REMARK    4  A    between atoms: C_13  and  S_14
REMARK    5  A    between atoms: S_14  and  C_15
REMARK    6  A    between atoms: C_15  and  C_17
REMARK    7  A    between atoms: C_15  and  C_18
REMARK    8  A    between atoms: N_20  and  C_21
REMARK                            x       y       z     vdW  Elec       q    Type
REMARK                         _______ _______ _______ _____ _____    ______ ____
ROOT
ATOM      1  C   UNL     1       0.002  -0.002  -0.004  0.00  0.00    +0.130 C 
ATOM      2  C   UNL     1       0.641  -0.513   1.288  0.00  0.00    +0.029 C 
ENDROOT
BRANCH   1   3
ATOM      3  C   UNL     1      -1.407  -0.526  -0.109  0.00  0.00    +0.230 C 
ATOM      4  O   UNL     1      -2.342   0.186   0.192  0.00  0.00    -0.274 OA
ATOM      5  N   UNL     1      -1.628  -1.784  -0.537  0.00  0.00    -0.285 N 
ATOM      6  H   UNL     1      -0.887  -2.331  -0.841  0.00  0.00    +0.155 HD
BRANCH   5   7
ATOM      7  C   UNL     1      -2.929  -2.304  -0.543  0.00  0.00    +0.035 A 
ATOM      8  C   UNL     1      -3.140  -3.650  -0.265  0.00  0.00    +0.025 A 
ATOM      9  C   UNL     1      -4.420  -4.166  -0.264  0.00  0.00    +0.029 A 
ATOM     10  C   UNL     1      -5.499  -3.344  -0.552  0.00  0.00    +0.067 A 
ATOM     11  C   UNL     1      -5.290  -1.993  -0.837  0.00  0.00    +0.069 A 
ATOM     12  C   UNL     1      -4.004  -1.476  -0.831  0.00  0.00    +0.051 A 
ATOM     13  N   UNL     1      -6.542  -1.434  -1.081  0.00  0.00    -0.306 N 
ATOM     14  H   UNL     1      -6.716  -0.507  -1.307  0.00  0.00    +0.170 HD
ATOM     15  C   UNL     1      -7.471  -2.400  -0.952  0.00  0.00    +0.325 A 
ATOM     16  O   UNL     1      -8.669  -2.245  -1.101  0.00  0.00    -0.247 OA
ATOM     17  N   UNL     1      -6.874  -3.564  -0.633  0.00  0.00    -0.306 N 
ATOM     18  H   UNL     1      -7.323  -4.411  -0.485  0.00  0.00    +0.170 HD
ENDBRANCH   5   7
ENDBRANCH   1   3
BRANCH   1  19
ATOM     19  S   UNL     1      -0.026   1.812   0.011  0.00  0.00    -0.141 S 
BRANCH  19  20
ATOM     20  C   UNL     1       1.726   2.278  -0.014  0.00  0.00    +0.144 C 
BRANCH  20  31
ATOM     21  C   UNL     1       3.209   8.817   0.015  0.00  0.00    +0.045 C 
ATOM     22  C   UNL     1       1.964   7.967   0.028  0.00  0.00    -0.026 A 
ATOM     23  C   UNL     1       0.750   8.540   0.053  0.00  0.00    -0.008 A 
ATOM     24  S   UNL     1      -0.363   7.148   0.060  0.00  0.00    -0.073 S 
ATOM     25  C   UNL     1       0.833   5.838   0.029  0.00  0.00    +0.116 A 
ATOM     26  C   UNL     1       2.064   6.519   0.015  0.00  0.00    +0.075 A 
ATOM     27  C   UNL     1       3.231   5.688  -0.012  0.00  0.00    +0.260 A 
ATOM     28  O   UNL     1       4.344   6.185  -0.026  0.00  0.00    -0.267 OA
ATOM     29  N   UNL     1       3.079   4.351  -0.014  0.00  0.00    -0.310 N 
ATOM     30  H   UNL     1       3.865   3.783  -0.028  0.00  0.00    +0.170 HD
ATOM     31  C   UNL     1       1.847   3.780  -0.004  0.00  0.00    +0.121 A 
ATOM     32  N   UNL     1       0.764   4.510   0.020  0.00  0.00    -0.226 NA
ATOM     33  C   UNL     1       0.411  10.008   0.071  0.00  0.00    +0.052 C 
ENDBRANCH  20  31
ENDBRANCH  19  20
ENDBRANCH   1  19
TORSDOF 5
