REMARK  Name = ZINC33566552
REMARK  11 active torsions:
REMARK  status: ('A' for Active; 'I' for Inactive)
REMARK    1  A    between atoms: C_4  and  O_7
REMARK    2  A    between atoms: O_7  and  C_8
REMARK    3  A    between atoms: C_8  and  C_9
REMARK    4  A    between atoms: C_9  and  O_10
REMARK    5  A    between atoms: O_10  and  C_11
REMARK    6  A    between atoms: C_11  and  C_13
REMARK    7  A    between atoms: C_13  and  C_14
REMARK    8  A    between atoms: N_21  and  C_22
REMARK    9  A    between atoms: C_22  and  N_24
REMARK   10  A    between atoms: C_25  and  C_27
REMARK   11  A    between atoms: C_31  and  N_33
REMARK                            x       y       z     vdW  Elec       q    Type
REMARK                         _______ _______ _______ _____ _____    ______ ____
ROOT
ATOM      1  C   UNL     1       5.980   6.324   0.085  0.00  0.00    +0.171 C 
ATOM      2  C   UNL     1       6.041   7.370   1.159  0.00  0.00    +0.234 C 
ATOM      3  O   UNL     1       7.122   7.833   1.456  0.00  0.00    -0.274 OA
ATOM      4  N   UNL     1       4.961   7.811   1.806  0.00  0.00    -0.312 N 
ATOM      5  C   UNL     1       3.615   7.286   1.622  0.00  0.00    +0.123 C 
ATOM      6  C   UNL     1       3.487   6.584   0.269  0.00  0.00    +0.126 C 
ATOM      7  N   UNL     1       4.650   5.697   0.100  0.00  0.00    -0.299 N 
ATOM      8  H   UNL     1       5.139   8.628   2.520  0.00  0.00    +0.149 HD
ENDROOT
BRANCH   7   9
ATOM      9  C   UNL     1       4.502   4.363  -0.032  0.00  0.00    +0.140 C 
ATOM     10  S   UNL     1       2.935   3.683  -0.142  0.00  0.00    -0.018 S 
BRANCH   9  11
ATOM     11  N   UNL     1       5.587   3.566  -0.076  0.00  0.00    -0.264 N 
ATOM     12  C   UNL     1       5.439   2.227  -0.102  0.00  0.00    +0.250 C 
ATOM     13  O   UNL     1       4.327   1.738  -0.085  0.00  0.00    -0.270 OA
ATOM     14  H   UNL     1       6.595   4.008  -0.091  0.00  0.00    +0.157 HD
BRANCH  12  15
ATOM     15  C   UNL     1       6.629   1.353  -0.150  0.00  0.00    +0.039 A 
ATOM     16  C   UNL     1       7.909   1.911  -0.169  0.00  0.00    +0.014 A 
ATOM     17  C   UNL     1       9.015   1.090  -0.215  0.00  0.00    +0.023 A 
ATOM     18  C   UNL     1       8.860  -0.286  -0.242  0.00  0.00    +0.071 A 
ATOM     19  C   UNL     1       7.593  -0.846  -0.223  0.00  0.00    +0.145 A 
ATOM     20  C   UNL     1       6.479  -0.035  -0.177  0.00  0.00    +0.047 A 
ATOM     21 CL   UNL     1      10.258  -1.313  -0.299  0.00  0.00    -0.081 Cl
BRANCH  19  22
ATOM     22  N   UNL     1       7.436  -2.317  -0.252  0.00  0.00    +0.058 N 
ATOM     23  O   UNL     1       6.322  -2.811  -0.235  0.00  0.00    -0.126 OA
ATOM     24  O   UNL     1       8.419  -3.035  -0.292  0.00  0.00    -0.126 OA
ENDBRANCH  19  22
ENDBRANCH  12  15
ENDBRANCH   9  11
ENDBRANCH   7   9
BRANCH   1  25
ATOM     25  C   UNL     1       6.223   6.979  -1.276  0.00  0.00    +0.152 C 
BRANCH  25  26
ATOM     26  C   UNL     1       6.302   5.914  -2.339  0.00  0.00    +0.309 C 
ATOM     27  O   UNL     1       6.304   4.747  -2.026  0.00  0.00    -0.251 OA
BRANCH  26  28
ATOM     28  O   UNL     1       6.371   6.262  -3.634  0.00  0.00    -0.461 OA
BRANCH  28  29
ATOM     29  C   UNL     1       6.446   5.183  -4.603  0.00  0.00    +0.273 C 
BRANCH  29  30
ATOM     30  C   UNL     1       6.518   5.770  -6.014  0.00  0.00    +0.270 C 
BRANCH  30  31
ATOM     31  O   UNL     1       7.737   6.499  -6.165  0.00  0.00    -0.489 OA
BRANCH  31  35
ATOM     32  C   UNL     1       8.409   8.286  -9.822  0.00  0.00    +0.000 A 
ATOM     33  C   UNL     1       9.345   8.409  -8.812  0.00  0.00    +0.004 A 
ATOM     34  C   UNL     1       9.123   7.811  -7.587  0.00  0.00    +0.045 A 
ATOM     35  C   UNL     1       7.959   7.088  -7.370  0.00  0.00    +0.121 A 
ATOM     36  C   UNL     1       7.024   6.961  -8.387  0.00  0.00    +0.045 A 
ATOM     37  C   UNL     1       7.249   7.565  -9.609  0.00  0.00    +0.004 A 
ENDBRANCH  31  35
ENDBRANCH  30  31
ENDBRANCH  29  30
ENDBRANCH  28  29
ENDBRANCH  26  28
ENDBRANCH  25  26
ENDBRANCH   1  25
TORSDOF 11
