REMARK  Name = ZINC29006581
REMARK  10 active torsions:
REMARK  status: ('A' for Active; 'I' for Inactive)
REMARK    1  A    between atoms: C_1  and  C_2
REMARK    2  A    between atoms: C_2  and  C_3
REMARK    3  A    between atoms: C_2  and  C_4
REMARK    4  A    between atoms: C_2  and  C_5
REMARK    5  A    between atoms: C_10  and  C_15
REMARK    6  A    between atoms: N_17  and  N_18
REMARK    7  A    between atoms: N_18  and  C_19
REMARK    8  A    between atoms: C_19  and  N_21
REMARK    9  A    between atoms: N_21  and  C_22
REMARK   10  A    between atoms: C_22  and  C_23
REMARK                            x       y       z     vdW  Elec       q    Type
REMARK                         _______ _______ _______ _____ _____    ______ ____
ROOT
ATOM      1  C   UNL     1       7.147   4.376  -0.571  0.00  0.00    +0.276 C 
ATOM      2  O   UNL     1       7.546   5.442  -1.000  0.00  0.00    -0.267 OA
ATOM      3  N   UNL     1       5.828   4.100  -0.571  0.00  0.00    -0.230 N 
ATOM      4  H   UNL     1       5.468   3.136  -0.183  0.00  0.00    +0.173 HD
ENDROOT
BRANCH   1  10
ATOM      5  C   UNL     1      10.486  -0.108   1.691  0.00  0.00    -0.040 A 
ATOM      6  C   UNL     1      11.543   0.749   1.414  0.00  0.00    +0.005 A 
ATOM      7  C   UNL     1      11.317   1.974   0.858  0.00  0.00    +0.010 A 
ATOM      8  C   UNL     1      10.007   2.376   0.563  0.00  0.00    +0.000 A 
ATOM      9  C   UNL     1       9.454   3.548  -0.005  0.00  0.00    +0.041 A 
ATOM     10  C   UNL     1       8.105   3.388  -0.052  0.00  0.00    +0.104 A 
ATOM     11  N   UNL     1       7.778   2.148   0.460  0.00  0.00    -0.351 N 
ATOM     12  H   UNL     1       6.726   1.831   0.503  0.00  0.00    +0.166 HD
ATOM     13  C   UNL     1       8.933   1.509   0.844  0.00  0.00    +0.047 A 
ATOM     14  C   UNL     1       9.190   0.263   1.412  0.00  0.00    +0.030 A 
BRANCH   5  16
ATOM     15  C   UNL     1      10.249  -2.555   1.371  0.00  0.00    +0.015 C 
ATOM     16  C   UNL     1      10.759  -1.456   2.305  0.00  0.00    -0.013 C 
ATOM     17  C   UNL     1      12.266  -1.625   2.516  0.00  0.00    +0.015 C 
ATOM     18  C   UNL     1      10.042  -1.559   3.653  0.00  0.00    +0.015 C 
ENDBRANCH   5  16
ENDBRANCH   1  10
BRANCH   3  19
ATOM     19  N   UNL     1       4.916   5.041  -1.066  0.00  0.00    -0.246 N 
ATOM     20  H   UNL     1       5.276   6.005  -1.454  0.00  0.00    +0.172 HD
BRANCH  19  21
ATOM     21  C   UNL     1       3.596   4.764  -1.066  0.00  0.00    +0.147 C 
ATOM     22  S   UNL     1       2.481   5.914  -1.670  0.00  0.00    -0.017 S 
BRANCH  21  23
ATOM     23  N   UNL     1       3.155   3.583  -0.590  0.00  0.00    -0.323 N 
ATOM     24  H   UNL     1       3.872   2.844  -0.202  0.00  0.00    +0.148 HD
BRANCH  23  25
ATOM     25  C   UNL     1       1.721   3.283  -0.590  0.00  0.00    +0.134 C 
BRANCH  25  26
ATOM     26  C   UNL     1       1.492   1.889  -0.002  0.00  0.00    +0.135 C 
ATOM     27  C   UNL     1      -0.019   1.544   0.011  0.00  0.00    +0.035 C 
ATOM     28  C   UNL     1       0.002  -0.004   0.002  0.00  0.00    +0.031 C 
ATOM     29  C   UNL     1       1.398  -0.360  -0.546  0.00  0.00    +0.160 C 
ATOM     30  O   UNL     1       2.062   0.876  -0.858  0.00  0.00    -0.375 OA
ENDBRANCH  25  26
ENDBRANCH  23  25
ENDBRANCH  21  23
ENDBRANCH  19  21
ENDBRANCH   3  19
TORSDOF 7
