REMARK  Name = ZINC16282798
REMARK  6 active torsions:
REMARK  status: ('A' for Active; 'I' for Inactive)
REMARK    1  A    between atoms: C_1  and  C_2
REMARK    2  A    between atoms: C_7  and  O_8
REMARK    3  A    between atoms: O_8  and  C_9
REMARK    4  A    between atoms: C_9  and  C_11
REMARK    5  A    between atoms: C_9  and  C_12
REMARK    6  A    between atoms: N_14  and  N_15
REMARK                            x       y       z     vdW  Elec       q    Type
REMARK                         _______ _______ _______ _____ _____    ______ ____
ROOT
ATOM      1  C   UNL     1      -0.868  -0.069   4.605  0.00  0.00    +0.273 C 
ATOM      2  O   UNL     1      -1.321   1.026   4.346  0.00  0.00    -0.270 OA
ATOM      3  N   UNL     1      -1.085  -0.619   5.817  0.00  0.00    -0.202 N 
ATOM      4  H   UNL     1      -0.723  -1.494   6.024  0.00  0.00    +0.177 HD
ENDROOT
BRANCH   3   5
ATOM      5  N   UNL     1      -1.833   0.075   6.777  0.00  0.00    -0.162 NA
ATOM      6  C   UNL     1      -2.044  -0.459   7.955  0.00  0.00    +0.158 C 
ATOM      7  C   UNL     1      -2.814   0.149   9.059  0.00  0.00    +0.029 A 
ATOM      8  C   UNL     1      -3.501   1.341   9.230  0.00  0.00    +0.012 A 
ATOM      9  C   UNL     1      -4.132   1.603  10.432  0.00  0.00    +0.001 A 
ATOM     10  C   UNL     1      -4.083   0.682  11.467  0.00  0.00    +0.001 A 
ATOM     11  C   UNL     1      -3.404  -0.511  11.315  0.00  0.00    +0.012 A 
ATOM     12  C   UNL     1      -2.764  -0.791  10.112  0.00  0.00    +0.023 A 
ATOM     13  C   UNL     1      -1.971  -1.921   9.607  0.00  0.00    +0.103 C 
ATOM     14  N   UNL     1      -1.597  -1.673   8.375  0.00  0.00    -0.326 N 
ATOM     15  N   UNL     1      -1.671  -3.067  10.318  0.00  0.00    -0.344 N 
ATOM     16  H   UNL     1      -1.992  -3.171  11.227  0.00  0.00    +0.144 HD
ATOM     17  H   UNL     1      -1.140  -3.767   9.907  0.00  0.00    +0.144 HD
ATOM     18  H   UNL     1      -1.066  -2.278   7.833  0.00  0.00    +0.169 HD
ENDBRANCH   3   5
BRANCH   1  19
ATOM     19  C   UNL     1      -0.064  -0.816   3.572  0.00  0.00    +0.257 C 
ATOM     20  C   UNL     1       1.342  -1.080   4.115  0.00  0.00    +0.062 C 
BRANCH  19  21
ATOM     21  O   UNL     1       0.025  -0.033   2.381  0.00  0.00    -0.480 OA
BRANCH  21  28
ATOM     22  C   UNL     1      -0.041   1.466  -0.013  0.00  0.00    +0.047 C 
ATOM     23  C   UNL     1       0.216  -0.019   0.009  0.00  0.00    -0.007 A 
ATOM     24  C   UNL     1       0.437  -0.701  -1.172  0.00  0.00    +0.027 A 
ATOM     25  C   UNL     1       0.672  -2.063  -1.152  0.00  0.00    +0.041 A 
ATOM     26  C   UNL     1       0.688  -2.747   0.051  0.00  0.00    +0.023 A 
ATOM     27  C   UNL     1       0.467  -2.070   1.234  0.00  0.00    +0.047 A 
ATOM     28  C   UNL     1       0.236  -0.702   1.217  0.00  0.00    +0.125 A 
ATOM     29 CL   UNL     1       0.949  -2.917  -2.638  0.00  0.00    -0.084 Cl
ENDBRANCH  21  28
ENDBRANCH  19  21
ENDBRANCH   1  19
TORSDOF 4
