REMARK  Name = ZINC32186336
REMARK  12 active torsions:
REMARK  status: ('A' for Active; 'I' for Inactive)
REMARK    1  A    between atoms: C_1  and  C_2
REMARK    2  A    between atoms: C_2  and  O_3
REMARK    3  A    between atoms: O_3  and  C_4
REMARK    4  A    between atoms: C_9  and  N_10
REMARK    5  A    between atoms: C_11  and  C_13
REMARK    6  A    between atoms: N_15  and  N_16
REMARK    7  A    between atoms: C_17  and  C_18
REMARK    8  A    between atoms: C_21  and  C_23
REMARK    9  A    between atoms: C_23  and  N_24
REMARK   10  A    between atoms: C_25  and  C_27
REMARK   11  A    between atoms: N_29  and  C_30
REMARK   12  A    between atoms: C_33  and  C_36
REMARK                            x       y       z     vdW  Elec       q    Type
REMARK                         _______ _______ _______ _____ _____    ______ ____
ROOT
ATOM      1  C   UNL     1       1.137  -0.413  -0.155  0.00  0.00    +0.148 A 
ATOM      2  C   UNL     1       2.388  -0.961  -0.101  0.00  0.00    +0.051 A 
ATOM      3  C   UNL     1       3.300   0.107  -0.147  0.00  0.00    +0.047 A 
ATOM      4  C   UNL     1       2.577   1.244  -0.224  0.00  0.00    +0.123 A 
ATOM      5  O   UNL     1       1.272   0.927  -0.229  0.00  0.00    -0.457 OA
ENDROOT
BRANCH   1   7
ATOM      6  N   UNL     1      -1.258  -0.506  -0.192  0.00  0.00    -0.184 NA
ATOM      7  C   UNL     1      -0.128  -1.151  -0.135  0.00  0.00    +0.176 C 
BRANCH   6  10
ATOM      8  C   UNL     1      -3.638  -0.545  -0.232  0.00  0.00    +0.318 C 
ATOM      9  O   UNL     1      -3.643   0.668  -0.301  0.00  0.00    -0.263 OA
ATOM     10  N   UNL     1      -2.468  -1.212  -0.172  0.00  0.00    -0.199 N 
ATOM     11  H   UNL     1      -2.464  -2.310  -0.109  0.00  0.00    +0.178 HD
BRANCH   8  13
ATOM     12  N   UNL     1      -6.095  -0.629  -0.270  0.00  0.00    -0.275 N 
ATOM     13  C   UNL     1      -4.925  -1.296  -0.211  0.00  0.00    +0.305 C 
ATOM     14  O   UNL     1      -4.920  -2.508  -0.141  0.00  0.00    -0.265 OA
ATOM     15  H   UNL     1      -6.100   0.462  -0.409  0.00  0.00    +0.155 HD
BRANCH  12  21
ATOM     16  C   UNL     1      -8.393  -0.733   0.481  0.00  0.00    +0.142 A 
ATOM     17  C   UNL     1      -9.587  -1.427   0.591  0.00  0.00    +0.047 A 
ATOM     18  C   UNL     1      -9.696  -2.703   0.070  0.00  0.00    +0.004 A 
ATOM     19  C   UNL     1      -8.615  -3.291  -0.561  0.00  0.00    +0.002 A 
ATOM     20  C   UNL     1      -7.422  -2.604  -0.680  0.00  0.00    +0.027 A 
ATOM     21  C   UNL     1      -7.303  -1.325  -0.155  0.00  0.00    +0.076 A 
BRANCH  16  22
ATOM     22  O   UNL     1      -8.284   0.523   0.992  0.00  0.00    -0.490 OA
BRANCH  22  24
ATOM     23  C   UNL     1      -9.130   2.475   2.138  0.00  0.00    +0.048 C 
ATOM     24  C   UNL     1      -9.442   1.066   1.630  0.00  0.00    +0.226 C 
ENDBRANCH  22  24
ENDBRANCH  16  22
ENDBRANCH  12  21
ENDBRANCH   8  13
ENDBRANCH   6  10
ENDBRANCH   1   7
BRANCH   4  25
ATOM     25  C   UNL     1       3.141   2.640  -0.294  0.00  0.00    +0.179 C 
BRANCH  25  26
ATOM     26  N   UNL     1       3.347   3.014  -1.696  0.00  0.00    -0.300 N 
ATOM     27  C   UNL     1       3.847   4.227  -2.003  0.00  0.00    +0.300 C 
ATOM     28  O   UNL     1       4.126   5.010  -1.119  0.00  0.00    -0.265 OA
ATOM     29  H   UNL     1       3.094   2.304  -2.497  0.00  0.00    +0.150 HD
BRANCH  27  30
ATOM     30  C   UNL     1       4.057   4.608  -3.432  0.00  0.00    +0.303 C 
ATOM     31  O   UNL     1       3.778   3.825  -4.316  0.00  0.00    -0.265 OA
ATOM     32  N   UNL     1       4.557   5.821  -3.739  0.00  0.00    -0.278 N 
ATOM     33  H   UNL     1       4.740   6.558  -2.943  0.00  0.00    +0.155 HD
BRANCH  32  34
ATOM     34  C   UNL     1       4.843   6.143  -5.068  0.00  0.00    +0.034 A 
ATOM     35  C   UNL     1       5.929   6.955  -5.370  0.00  0.00    +0.023 A 
ATOM     36  C   UNL     1       6.212   7.267  -6.685  0.00  0.00    +0.005 A 
ATOM     37  C   UNL     1       5.408   6.780  -7.701  0.00  0.00    -0.050 A 
ATOM     38  C   UNL     1       4.323   5.976  -7.404  0.00  0.00    +0.005 A 
ATOM     39  C   UNL     1       4.038   5.656  -6.091  0.00  0.00    +0.023 A 
ATOM     40  C   UNL     1       5.717   7.127  -9.134  0.00  0.00    +0.044 C 
ENDBRANCH  32  34
ENDBRANCH  27  30
ENDBRANCH  25  26
ENDBRANCH   4  25
TORSDOF 10
