REMARK  Name = ZINC50396219
REMARK  7 active torsions:
REMARK  status: ('A' for Active; 'I' for Inactive)
REMARK    1  A    between atoms: C_4  and  O_8
REMARK    2  A    between atoms: O_8  and  C_9
REMARK    3  A    between atoms: C_9  and  C_10
REMARK    4  A    between atoms: C_10  and  C_12
REMARK    5  A    between atoms: C_10  and  O_22
REMARK    6  A    between atoms: C_12  and  N_13
REMARK    7  A    between atoms: N_13  and  C_14
REMARK                            x       y       z     vdW  Elec       q    Type
REMARK                         _______ _______ _______ _____ _____    ______ ____
ROOT
ATOM      1  C   UNL     1       4.970  -2.624  -0.456  0.00  0.00    +0.135 C 
ENDROOT
BRANCH   1   2
ATOM      2  O   UNL     1       5.599  -2.079   0.705  0.00  0.00    -0.390 OA
ATOM      3  H   UNL     1       5.139  -2.278   1.532  0.00  0.00    +0.210 HD
ENDBRANCH   1   2
BRANCH   1   4
ATOM      4  C   UNL     1       3.554  -2.060  -0.581  0.00  0.00    +0.258 C 
BRANCH   4   5
ATOM      5  O   UNL     1       3.621  -0.651  -0.814  0.00  0.00    -0.488 OA
BRANCH   5   9
ATOM      6  C   UNL     1       0.037   1.354  -1.227  0.00  0.00    +0.021 A 
ATOM      7  C   UNL     1       1.230   2.048  -1.315  0.00  0.00    +0.025 A 
ATOM      8  C   UNL     1       2.432   1.379  -1.177  0.00  0.00    +0.083 A 
ATOM      9  C   UNL     1       2.440   0.009  -0.949  0.00  0.00    +0.140 A 
ATOM     10  C   UNL     1       1.243  -0.684  -0.861  0.00  0.00    +0.067 A 
ATOM     11  C   UNL     1       0.043  -0.011  -1.000  0.00  0.00    +0.045 A 
ATOM     12 CL   UNL     1      -1.456  -0.878  -0.889  0.00  0.00    -0.083 Cl
ATOM     13 CL   UNL     1       3.929   2.250  -1.289  0.00  0.00    -0.080 Cl
ENDBRANCH   5   9
ENDBRANCH   4   5
ENDBRANCH   1   4
BRANCH   1  14
ATOM     14  C   UNL     1       4.903  -4.148  -0.332  0.00  0.00    -0.046 C 
BRANCH  14  15
ATOM     15  N   UNL     1       6.263  -4.690  -0.212  0.00  0.00    +0.388 N 
ATOM     16  H   UNL     1       6.822  -4.370  -0.989  0.00  0.00    -0.085 HD
ATOM     17  H   UNL     1       6.676  -4.373   0.652  0.00  0.00    -0.085 HD
BRANCH  15  18
ATOM     18  C   UNL     1       6.207  -6.158  -0.220  0.00  0.00    +0.016 C 
ATOM     19  C   UNL     1       5.472  -6.645   1.032  0.00  0.00    -0.005 C 
ATOM     20  C   UNL     1       5.664  -8.162   1.146  0.00  0.00    +0.018 C 
ATOM     21  C   UNL     1       7.136  -8.448   1.446  0.00  0.00    +0.104 C 
ATOM     22  N   UNL     1       7.995  -7.749   0.499  0.00  0.00    -0.317 N 
ATOM     23  C   UNL     1       7.604  -6.710  -0.237  0.00  0.00    +0.199 C 
ATOM     24  O   UNL     1       8.421  -6.182  -0.962  0.00  0.00    -0.278 OA
ATOM     25  H   UNL     1       8.909  -8.059   0.399  0.00  0.00    +0.149 HD
ENDBRANCH  15  18
ENDBRANCH  14  15
ENDBRANCH   1  14
TORSDOF 7
