REMARK  Name = ZINC40683186
REMARK  5 active torsions:
REMARK  status: ('A' for Active; 'I' for Inactive)
REMARK    1  A    between atoms: C_10  and  O_11
REMARK    2  A    between atoms: O_11  and  C_12
REMARK    3  A    between atoms: C_13  and  N_27
REMARK    4  A    between atoms: C_14  and  N_18
REMARK    5  A    between atoms: N_18  and  C_19
REMARK                            x       y       z     vdW  Elec       q    Type
REMARK                         _______ _______ _______ _____ _____    ______ ____
ROOT
ATOM      1  C   UNL     1       6.000  -0.617   0.009  0.00  0.00    +0.246 A 
ATOM      2  C   UNL     1       7.220   0.048   0.123  0.00  0.00    +0.128 A 
ATOM      3  C   UNL     1       8.382  -0.720   0.234  0.00  0.00    +0.151 A 
ATOM      4  N   UNL     1       8.281  -2.046   0.227  0.00  0.00    -0.218 NA
ATOM      5  C   UNL     1       7.107  -2.634   0.117  0.00  0.00    +0.227 A 
ATOM      6  N   UNL     1       5.987  -1.946   0.015  0.00  0.00    -0.199 NA
ENDROOT
BRANCH   2   7
ATOM      7  N   UNL     1       7.279   1.450   0.127  0.00  0.00    -0.351 N 
ATOM      8  H   UNL     1       6.465   1.970   0.049  0.00  0.00    +0.143 HD
ATOM      9  H   UNL     1       8.136   1.899   0.207  0.00  0.00    +0.143 HD
ENDBRANCH   2   7
BRANCH   3  10
ATOM     10  N   UNL     1       9.625  -0.107   0.350  0.00  0.00    -0.297 N 
ATOM     11  H   UNL     1       9.684   0.856   0.442  0.00  0.00    +0.154 HD
BRANCH  10  12
ATOM     12  C   UNL     1      10.789  -0.881   0.334  0.00  0.00    +0.052 A 
ATOM     13  C   UNL     1      10.791  -2.124  -0.284  0.00  0.00    +0.044 A 
ATOM     14  C   UNL     1      11.944  -2.886  -0.299  0.00  0.00    +0.043 A 
ATOM     15  C   UNL     1      13.097  -2.411   0.302  0.00  0.00    +0.021 A 
ATOM     16  C   UNL     1      13.099  -1.173   0.919  0.00  0.00    +0.023 A 
ATOM     17  C   UNL     1      11.950  -0.404   0.932  0.00  0.00    +0.062 A 
ATOM     18 CL   UNL     1      11.956   1.152   1.701  0.00  0.00    -0.082 Cl
ATOM     19 CL   UNL     1      11.947  -4.441  -1.071  0.00  0.00    -0.083 Cl
ENDBRANCH  10  12
ENDBRANCH   3  10
BRANCH   1  20
ATOM     20  O   UNL     1       4.843   0.082  -0.101  0.00  0.00    -0.436 OA
BRANCH  20  30
ATOM     21  C   UNL     1       1.973  -1.961   3.475  0.00  0.00    +0.001 A 
ATOM     22  C   UNL     1       3.171  -1.250   3.497  0.00  0.00    +0.001 A 
ATOM     23  C   UNL     1       3.741  -0.802   2.344  0.00  0.00    +0.012 A 
ATOM     24  C   UNL     1       3.115  -1.060   1.114  0.00  0.00    +0.024 A 
ATOM     25  C   UNL     1       1.897  -1.783   1.091  0.00  0.00    -0.014 A 
ATOM     26  C   UNL     1       1.338  -2.229   2.301  0.00  0.00    +0.008 A 
ATOM     27  C   UNL     1       1.270  -2.042  -0.140  0.00  0.00    +0.009 A 
ATOM     28  C   UNL     1       1.834  -1.598  -1.296  0.00  0.00    +0.004 A 
ATOM     29  C   UNL     1       3.031  -0.887  -1.285  0.00  0.00    +0.047 A 
ATOM     30  C   UNL     1       3.676  -0.613  -0.100  0.00  0.00    +0.138 A 
ENDBRANCH  20  30
ENDBRANCH   1  20
TORSDOF 5
