REMARK  Name = ZINC08994218
REMARK  7 active torsions:
REMARK  status: ('A' for Active; 'I' for Inactive)
REMARK    1  A    between atoms: C_1  and  C_2
REMARK    2  A    between atoms: C_2  and  C_3
REMARK    3  A    between atoms: C_3  and  C_5
REMARK    4  A    between atoms: C_3  and  N_6
REMARK    5  A    between atoms: C_26  and  C_28
REMARK    6  A    between atoms: C_28  and  C_29
REMARK    7  A    between atoms: C_28  and  C_30
REMARK                            x       y       z     vdW  Elec       q    Type
REMARK                         _______ _______ _______ _____ _____    ______ ____
ROOT
ATOM      1  N   UNL     1      -0.687   1.492   1.217  0.00  0.00    -0.239 N 
ATOM      2  C   UNL     1      -0.996   2.764   1.497  0.00  0.00    +0.224 C 
ATOM      3  O   UNL     1      -0.767   3.714   0.781  0.00  0.00    -0.275 OA
ATOM      4  C   UNL     1      -1.678   2.830   2.845  0.00  0.00    +0.073 C 
ATOM      5  C   UNL     1      -1.708   1.345   3.305  0.00  0.00    +0.088 C 
ATOM      6  C   UNL     1      -1.036   0.614   2.165  0.00  0.00    +0.225 C 
ATOM      7  O   UNL     1      -0.844  -0.582   2.116  0.00  0.00    -0.275 OA
ATOM      8  C   UNL     1      -0.811   1.307   4.547  0.00  0.00    +0.050 C 
ATOM      9  C   UNL     1       0.569   0.812   4.219  0.00  0.00    -0.027 A 
ATOM     10  C   UNL     1       1.554   1.250   3.362  0.00  0.00    +0.019 A 
ATOM     11  C   UNL     1       2.754   0.565   3.278  0.00  0.00    +0.018 A 
ATOM     12  C   UNL     1       2.961  -0.560   4.057  0.00  0.00    +0.017 A 
ATOM     13  C   UNL     1       1.976  -1.002   4.916  0.00  0.00    +0.024 A 
ATOM     14  C   UNL     1       0.766  -0.319   5.006  0.00  0.00    +0.036 A 
ATOM     15  N   UNL     1      -0.366  -0.566   5.787  0.00  0.00    -0.286 N 
ATOM     16  C   UNL     1      -1.337   0.344   5.576  0.00  0.00    +0.211 C 
ATOM     17  O   UNL     1      -2.425   0.379   6.111  0.00  0.00    -0.277 OA
ATOM     18 BR   UNL     1       4.108   1.165   2.102  0.00  0.00    -0.050 Br
ATOM     19  C   UNL     1      -0.740   3.535   3.848  0.00  0.00    -0.055 C 
ATOM     20  H   UNL     1      -0.443  -1.305   6.410  0.00  0.00    +0.155 HD
ATOM     21  N   UNL     1      -0.780   2.675   5.033  0.00  0.00    +0.394 N 
ATOM     22  H   UNL     1       0.056   2.828   5.611  0.00  0.00    -0.083 HD
ATOM     23  H   UNL     1      -1.620   2.874   5.588  0.00  0.00    -0.083 HD
ENDROOT
BRANCH  19  24
ATOM     24  C   UNL     1      -1.253   4.942   4.162  0.00  0.00    -0.031 C 
ATOM     25  C   UNL     1      -0.351   5.591   5.214  0.00  0.00    +0.005 C 
ATOM     26  C   UNL     1      -1.237   5.787   2.886  0.00  0.00    +0.005 C 
ENDBRANCH  19  24
BRANCH   1  27
ATOM     27  C   UNL     1      -0.016   1.095  -0.023  0.00  0.00    +0.081 C 
ATOM     28  C   UNL     1       1.290   0.373   0.313  0.00  0.00    +0.028 C 
BRANCH  27  30
ATOM     29  C   UNL     1      -2.176   0.918  -1.267  0.00  0.00    +0.006 C 
ATOM     30  C   UNL     1      -0.927   0.157  -0.818  0.00  0.00    +0.019 C 
ENDBRANCH  27  30
ENDBRANCH   1  27
TORSDOF 3
