REMARK  Name = ZINC46609176
REMARK  6 active torsions:
REMARK  status: ('A' for Active; 'I' for Inactive)
REMARK    1  A    between atoms: C_1  and  C_2
REMARK    2  A    between atoms: C_2  and  C_4
REMARK    3  A    between atoms: C_2  and  N_14
REMARK    4  A    between atoms: C_8  and  O_10
REMARK    5  A    between atoms: O_10  and  C_11
REMARK    6  A    between atoms: N_17  and  N_18
REMARK                            x       y       z     vdW  Elec       q    Type
REMARK                         _______ _______ _______ _____ _____    ______ ____
ROOT
ATOM      1  N   UNL     1      -1.372  -0.511   0.012  0.00  0.00    -0.292 N 
ATOM      2  C   UNL     1      -2.029  -0.655   1.181  0.00  0.00    +0.316 C 
ATOM      3  O   UNL     1      -1.480  -0.364   2.226  0.00  0.00    -0.251 OA
ATOM      4  N   UNL     1      -3.293  -1.122   1.190  0.00  0.00    -0.218 N 
ATOM      5  H   UNL     1      -1.810  -0.743  -0.822  0.00  0.00    +0.151 HD
ATOM      6  H   UNL     1      -3.765  -1.225   2.031  0.00  0.00    +0.174 HD
ENDROOT
BRANCH   4   7
ATOM      7  N   UNL     1      -3.925  -1.457  -0.014  0.00  0.00    -0.231 N 
ATOM      8  C   UNL     1      -5.224  -1.936  -0.004  0.00  0.00    +0.232 A 
ATOM      9  N   UNL     1      -5.856  -2.066   1.153  0.00  0.00    -0.222 NA
ATOM     10  C   UNL     1      -7.097  -2.521   1.197  0.00  0.00    +0.116 A 
ATOM     11  C   UNL     1      -7.735  -2.863   0.015  0.00  0.00    +0.039 A 
ATOM     12  C   UNL     1      -7.044  -2.714  -1.178  0.00  0.00    +0.116 A 
ATOM     13  N   UNL     1      -5.806  -2.248  -1.153  0.00  0.00    -0.222 NA
ATOM     14  H   UNL     1      -3.453  -1.353  -0.855  0.00  0.00    +0.173 HD
ENDBRANCH   4   7
BRANCH   1  16
ATOM     15  C   UNL     1      -0.019   1.526   0.010  0.00  0.00    +0.033 C 
ATOM     16  C   UNL     1       0.002  -0.004   0.002  0.00  0.00    +0.102 C 
BRANCH  16  17
ATOM     17  C   UNL     1       0.707  -0.490  -1.238  0.00  0.00    -0.024 A 
ATOM     18  C   UNL     1       0.037  -0.521  -2.447  0.00  0.00    +0.006 A 
ATOM     19  C   UNL     1       0.681  -0.967  -3.586  0.00  0.00    +0.004 A 
ATOM     20  C   UNL     1       1.997  -1.382  -3.519  0.00  0.00    +0.046 A 
ATOM     21  C   UNL     1       2.672  -1.352  -2.308  0.00  0.00    +0.127 A 
ATOM     22  C   UNL     1       2.025  -0.898  -1.167  0.00  0.00    +0.051 A 
BRANCH  21  23
ATOM     23  O   UNL     1       3.966  -1.760  -2.239  0.00  0.00    -0.434 OA
BRANCH  23  24
ATOM     24  C   UNL     1       4.571  -2.208  -3.454  0.00  0.00    +0.541 C 
ATOM     25  F   UNL     1       3.857  -3.303  -3.953  0.00  0.00    -0.166 F 
ATOM     26  F   UNL     1       4.552  -1.172  -4.394  0.00  0.00    -0.166 F 
ENDBRANCH  23  24
ENDBRANCH  21  23
ENDBRANCH  16  17
ENDBRANCH   1  16
TORSDOF 5
