REMARK  Name = ZINC04591875
REMARK  6 active torsions:
REMARK  status: ('A' for Active; 'I' for Inactive)
REMARK    1  A    between atoms: C_1  and  C_2
REMARK    2  A    between atoms: C_2  and  C_3
REMARK    3  A    between atoms: C_2  and  C_4
REMARK    4  A    between atoms: C_7  and  C_10
REMARK    5  A    between atoms: C_12  and  O_23
REMARK    6  A    between atoms: N_14  and  C_17
REMARK                            x       y       z     vdW  Elec       q    Type
REMARK                         _______ _______ _______ _____ _____    ______ ____
ROOT
ATOM      1  C   UNL     1      -1.506   8.539   0.063  0.00  0.00    +0.026 C 
ATOM      2  C   UNL     1      -0.746   7.414   0.308  0.00  0.00    +0.102 C 
ATOM      3  C   UNL     1       0.723   7.295   0.273  0.00  0.00    +0.241 C 
ATOM      4  N   UNL     1       1.023   6.063   0.565  0.00  0.00    -0.134 NA
ATOM      5  N   UNL     1      -0.122   5.303   0.804  0.00  0.00    -0.153 N 
ATOM      6  C   UNL     1      -1.226   6.064   0.658  0.00  0.00    +0.276 C 
ATOM      7  O   UNL     1      -2.383   5.708   0.791  0.00  0.00    -0.268 OA
ENDROOT
BRANCH   1  11
ATOM      8  C   UNL     1      -5.722   8.228  -0.221  0.00  0.00    -0.045 A 
ATOM      9  C   UNL     1      -5.153   9.336   0.386  0.00  0.00    +0.004 A 
ATOM     10  C   UNL     1      -3.782   9.445   0.482  0.00  0.00    +0.008 A 
ATOM     11  C   UNL     1      -2.965   8.431  -0.035  0.00  0.00    -0.024 A 
ATOM     12  C   UNL     1      -3.550   7.317  -0.652  0.00  0.00    +0.008 A 
ATOM     13  C   UNL     1      -4.922   7.222  -0.734  0.00  0.00    +0.004 A 
BRANCH   8  15
ATOM     14  C   UNL     1      -7.629   8.034  -1.794  0.00  0.00    +0.012 C 
ATOM     15  C   UNL     1      -7.221   8.118  -0.321  0.00  0.00    +0.013 C 
ATOM     16  C   UNL     1      -7.690   6.859   0.411  0.00  0.00    +0.012 C 
ENDBRANCH   8  15
ENDBRANCH   1  11
BRANCH   5  17
ATOM     17  C   UNL     1      -0.124   3.945   1.141  0.00  0.00    +0.060 A 
ATOM     18  C   UNL     1       1.075   3.255   1.259  0.00  0.00    +0.025 A 
ATOM     19  C   UNL     1       1.069   1.914   1.592  0.00  0.00    +0.002 A 
ATOM     20  C   UNL     1      -0.130   1.260   1.808  0.00  0.00    +0.000 A 
ATOM     21  C   UNL     1      -1.326   1.942   1.686  0.00  0.00    +0.002 A 
ATOM     22  C   UNL     1      -1.327   3.284   1.358  0.00  0.00    +0.025 A 
ENDBRANCH   5  17
BRANCH   3  23
ATOM     23  O   UNL     1       1.603   8.289  -0.013  0.00  0.00    -0.491 OA
ATOM     24  H   UNL     1       2.530   8.014   0.014  0.00  0.00    +0.294 HD
ENDBRANCH   3  23
TORSDOF 4
