REMARK  Name = ZINC16021937
REMARK  7 active torsions:
REMARK  status: ('A' for Active; 'I' for Inactive)
REMARK    1  A    between atoms: C_1  and  C_2
REMARK    2  A    between atoms: C_2  and  C_3
REMARK    3  A    between atoms: C_3  and  C_5
REMARK    4  A    between atoms: C_3  and  N_6
REMARK    5  A    between atoms: C_27  and  C_29
REMARK    6  A    between atoms: C_29  and  C_31
REMARK    7  A    between atoms: C_29  and  O_32
REMARK                            x       y       z     vdW  Elec       q    Type
REMARK                         _______ _______ _______ _____ _____    ______ ____
ROOT
ATOM      1  N   UNL     1      -1.934  -0.102  -1.173  0.00  0.00    -0.239 N 
ATOM      2  C   UNL     1      -1.560  -0.550  -2.377  0.00  0.00    +0.228 C 
ATOM      3  O   UNL     1      -0.710  -1.391  -2.579  0.00  0.00    -0.275 OA
ATOM      4  C   UNL     1      -2.362   0.155  -3.447  0.00  0.00    +0.109 C 
ATOM      5  C   UNL     1      -3.289   1.101  -2.634  0.00  0.00    +0.123 C 
ATOM      6  C   UNL     1      -2.900   0.824  -1.200  0.00  0.00    +0.228 C 
ATOM      7  O   UNL     1      -3.385   1.358  -0.226  0.00  0.00    -0.275 OA
ATOM      8  C   UNL     1      -2.858   2.514  -3.045  0.00  0.00    +0.136 C 
ATOM      9  C   UNL     1      -4.030   3.451  -3.112  0.00  0.00    +0.005 A 
ATOM     10  C   UNL     1      -5.200   3.455  -3.839  0.00  0.00    +0.008 A 
ATOM     11  C   UNL     1      -6.111   4.484  -3.679  0.00  0.00    +0.002 A 
ATOM     12  C   UNL     1      -5.845   5.507  -2.787  0.00  0.00    +0.022 A 
ATOM     13  C   UNL     1      -4.675   5.506  -2.055  0.00  0.00    +0.062 A 
ATOM     14  C   UNL     1      -3.751   4.474  -2.212  0.00  0.00    +0.057 A 
ATOM     15  N   UNL     1      -2.516   4.253  -1.597  0.00  0.00    -0.282 N 
ATOM     16  C   UNL     1      -1.928   3.122  -2.031  0.00  0.00    +0.243 C 
ATOM     17  O   UNL     1      -0.856   2.679  -1.674  0.00  0.00    -0.273 OA
ATOM     18 CL   UNL     1      -4.351   6.796  -0.939  0.00  0.00    -0.082 Cl
ATOM     19  N   UNL     1      -2.203   2.372  -4.359  0.00  0.00    -0.293 NA
ATOM     20  C   UNL     1      -1.429   1.085  -4.250  0.00  0.00    +0.096 C 
ATOM     21  H   UNL     1      -2.127   4.846  -0.934  0.00  0.00    +0.155 HD
ATOM     22  H   UNL     1      -2.887   2.323  -5.099  0.00  0.00    +0.124 HD
ENDROOT
BRANCH   1  23
ATOM     23  C   UNL     1      -1.339  -0.591   0.074  0.00  0.00    +0.081 C 
ATOM     24  C   UNL     1      -0.710   0.580   0.831  0.00  0.00    +0.028 C 
BRANCH  23  26
ATOM     25  C   UNL     1      -2.960  -2.485   0.240  0.00  0.00    +0.006 C 
ATOM     26  C   UNL     1      -2.425  -1.234   0.939  0.00  0.00    +0.019 C 
ENDBRANCH  23  26
ENDBRANCH   1  23
BRANCH  20  27
ATOM     27  C   UNL     1      -1.165   0.504  -5.640  0.00  0.00    +0.129 C 
ATOM     28  C   UNL     1      -0.238   1.441  -6.418  0.00  0.00    +0.039 C 
BRANCH  27  29
ATOM     29  O   UNL     1      -0.546  -0.778  -5.511  0.00  0.00    -0.390 OA
ATOM     30  H   UNL     1       0.300  -0.761  -5.043  0.00  0.00    +0.210 HD
ENDBRANCH  27  29
ENDBRANCH  20  27
TORSDOF 4
