REMARK  Name = ZINC10059078
REMARK  4 active torsions:
REMARK  status: ('A' for Active; 'I' for Inactive)
REMARK    1  A    between atoms: C_4  and  C_7
REMARK    2  A    between atoms: C_10  and  C_33
REMARK    3  A    between atoms: N_12  and  C_13
REMARK    4  A    between atoms: C_16  and  C_19
REMARK                            x       y       z     vdW  Elec       q    Type
REMARK                         _______ _______ _______ _____ _____    ______ ____
ROOT
ATOM      1  C   UNL     1      -2.925   3.046  -1.260  0.00  0.00    +0.052 A 
ATOM      2  C   UNL     1      -2.935   3.060  -2.650  0.00  0.00    +0.025 A 
ATOM      3  C   UNL     1      -3.937   3.729  -3.324  0.00  0.00    +0.009 A 
ATOM      4  C   UNL     1      -4.924   4.393  -2.619  0.00  0.00    -0.005 A 
ATOM      5  C   UNL     1      -4.915   4.385  -1.236  0.00  0.00    +0.009 A 
ATOM      6  C   UNL     1      -3.919   3.714  -0.554  0.00  0.00    +0.025 A 
ENDROOT
BRANCH   4   7
ATOM      7  C   UNL     1      -6.013   5.127  -3.359  0.00  0.00    +0.217 C 
ATOM      8  C   UNL     1      -5.929   5.773  -5.709  0.00  0.00    +0.159 C 
ATOM      9  N   UNL     1      -7.068   5.058  -6.031  0.00  0.00    -0.259 N 
ATOM     10  C   UNL     1      -7.530   4.156  -5.082  0.00  0.00    +0.205 A 
ATOM     11  N   UNL     1      -7.030   4.172  -3.797  0.00  0.00    -0.287 N 
ATOM     12  C   UNL     1      -7.661   3.177  -3.109  0.00  0.00    +0.072 A 
ATOM     13  C   UNL     1      -7.564   2.725  -1.798  0.00  0.00    +0.028 A 
ATOM     14  C   UNL     1      -8.378   1.666  -1.433  0.00  0.00    +0.002 A 
ATOM     15  C   UNL     1      -9.256   1.074  -2.324  0.00  0.00    +0.002 A 
ATOM     16  C   UNL     1      -9.373   1.505  -3.633  0.00  0.00    +0.030 A 
ATOM     17  C   UNL     1      -8.559   2.574  -4.025  0.00  0.00    +0.091 A 
ATOM     18  N   UNL     1      -8.427   3.219  -5.202  0.00  0.00    -0.214 NA
ATOM     19  N   UNL     1      -5.291   6.476  -6.704  0.00  0.00    -0.332 N 
ATOM     20  H   UNL     1      -7.522   5.181  -6.879  0.00  0.00    +0.158 HD
ATOM     21  H   UNL     1      -4.490   6.984  -6.501  0.00  0.00    +0.145 HD
ATOM     22  H   UNL     1      -5.642   6.464  -7.608  0.00  0.00    +0.145 HD
ATOM     23  N   UNL     1      -5.352   5.864  -4.504  0.00  0.00    -0.337 N 
ATOM     24  H   UNL     1      -4.495   6.412  -4.362  0.00  0.00    +0.164 HD
ENDBRANCH   4   7
BRANCH   1  29
ATOM     25  C   UNL     1      -0.811   1.622  -1.197  0.00  0.00    +0.134 C 
ATOM     26  C   UNL     1      -0.013   1.086   0.008  0.00  0.00    +0.087 C 
ATOM     27  C   UNL     1      -0.773   1.599   1.210  0.00  0.00    +0.069 C 
ATOM     28  N   UNL     1      -1.793   2.284   0.811  0.00  0.00    -0.183 NA
ATOM     29  N   UNL     1      -1.917   2.367  -0.575  0.00  0.00    -0.216 N 
BRANCH  25  33
ATOM     30  C   UNL     1       1.610   4.228  -3.563  0.00  0.00    +0.000 A 
ATOM     31  C   UNL     1       1.417   2.917  -3.957  0.00  0.00    +0.000 A 
ATOM     32  C   UNL     1       0.633   2.074  -3.191  0.00  0.00    +0.005 A 
ATOM     33  C   UNL     1       0.043   2.542  -2.032  0.00  0.00    -0.025 A 
ATOM     34  C   UNL     1       0.232   3.854  -1.641  0.00  0.00    +0.005 A 
ATOM     35  C   UNL     1       1.020   4.696  -2.404  0.00  0.00    +0.000 A 
ENDBRANCH  25  33
BRANCH  27  36
ATOM     36  C   UNL     1      -0.405   1.355   2.617  0.00  0.00    -0.002 A 
ATOM     37  C   UNL     1       0.723   0.590   2.925  0.00  0.00    +0.010 A 
ATOM     38  C   UNL     1       1.063   0.370   4.244  0.00  0.00    +0.001 A 
ATOM     39  C   UNL     1       0.285   0.895   5.260  0.00  0.00    +0.000 A 
ATOM     40  C   UNL     1      -0.837   1.649   4.962  0.00  0.00    +0.001 A 
ATOM     41  C   UNL     1      -1.186   1.882   3.648  0.00  0.00    +0.010 A 
ENDBRANCH  27  36
ENDBRANCH   1  29
TORSDOF 4
