REMARK  Name = ZINC62199410
REMARK  10 active torsions:
REMARK  status: ('A' for Active; 'I' for Inactive)
REMARK    1  A    between atoms: C_1  and  C_2
REMARK    2  A    between atoms: C_2  and  C_3
REMARK    3  A    between atoms: C_2  and  O_4
REMARK    4  A    between atoms: O_4  and  C_5
REMARK    5  A    between atoms: C_9  and  C_11
REMARK    6  A    between atoms: C_14  and  C_21
REMARK    7  A    between atoms: N_17  and  C_18
REMARK    8  A    between atoms: C_18  and  C_19
REMARK    9  A    between atoms: C_19  and  O_20
REMARK   10  A    between atoms: C_21  and  N_22
REMARK                            x       y       z     vdW  Elec       q    Type
REMARK                         _______ _______ _______ _____ _____    ______ ____
ROOT
ATOM      1  C   UNL     1      -4.246  -4.426  -1.154  0.00  0.00    +0.052 A 
ATOM      2  C   UNL     1      -5.344  -3.801  -0.606  0.00  0.00    +0.027 A 
ATOM      3  C   UNL     1      -6.587  -4.441  -0.625  0.00  0.00    +0.009 A 
ATOM      4  C   UNL     1      -6.694  -5.680  -1.190  0.00  0.00    -0.000 A 
ATOM      5  C   UNL     1      -5.558  -6.294  -1.742  0.00  0.00    +0.253 A 
ATOM      6  O   UNL     1      -5.651  -7.401  -2.248  0.00  0.00    -0.267 OA
ATOM      7  N   UNL     1      -4.368  -5.664  -1.721  0.00  0.00    -0.306 N 
ENDROOT
BRANCH   1  12
ATOM      8  C   UNL     1      -1.020  -2.877  -2.305  0.00  0.00    +0.122 A 
ATOM      9  C   UNL     1      -0.464  -2.487  -1.094  0.00  0.00    +0.046 A 
ATOM     10  C   UNL     1      -1.135  -2.728   0.090  0.00  0.00    +0.004 A 
ATOM     11  C   UNL     1      -2.363  -3.357   0.077  0.00  0.00    +0.010 A 
ATOM     12  C   UNL     1      -2.931  -3.752  -1.136  0.00  0.00    +0.002 A 
ATOM     13  C   UNL     1      -2.254  -3.503  -2.331  0.00  0.00    +0.055 A 
BRANCH   8  14
ATOM     14  O   UNL     1      -0.356  -2.637  -3.466  0.00  0.00    -0.489 OA
BRANCH  14  16
ATOM     15  C   UNL     1       1.766  -2.460  -4.610  0.00  0.00    +0.051 C 
ATOM     16  C   UNL     1       0.962  -2.096  -3.360  0.00  0.00    +0.167 C 
ATOM     17  C   UNL     1       0.880  -0.574  -3.232  0.00  0.00    +0.051 C 
ENDBRANCH  14  16
ENDBRANCH   8  14
ENDBRANCH   1  12
BRANCH   7  18
ATOM     18  C   UNL     1      -3.193  -6.313  -2.306  0.00  0.00    +0.153 C 
BRANCH  18  19
ATOM     19  C   UNL     1      -2.410  -7.036  -1.208  0.00  0.00    +0.177 C 
BRANCH  19  20
ATOM     20  O   UNL     1      -3.204  -8.098  -0.677  0.00  0.00    -0.393 OA
ATOM     21  H   UNL     1      -2.770  -8.601   0.026  0.00  0.00    +0.209 HD
ENDBRANCH  19  20
ENDBRANCH  18  19
ENDBRANCH   7  18
BRANCH   4  22
ATOM     22  C   UNL     1      -8.025  -6.386  -1.220  0.00  0.00    -0.045 C 
BRANCH  22  23
ATOM     23  N   UNL     1      -8.687  -6.129  -2.506  0.00  0.00    +0.381 N 
ATOM     24  H   UNL     1      -8.830  -5.136  -2.618  0.00  0.00    -0.090 HD
ATOM     25  H   UNL     1      -8.107  -6.472  -3.257  0.00  0.00    -0.090 HD
ATOM     26  H   UNL     1      -9.578  -6.601  -2.526  0.00  0.00    -0.090 HD
ENDBRANCH  22  23
ENDBRANCH   4  22
TORSDOF 8
