REMARK  Name = ZINC05872765
REMARK  6 active torsions:
REMARK  status: ('A' for Active; 'I' for Inactive)
REMARK    1  A    between atoms: C_4  and  C_7
REMARK    2  A    between atoms: C_7  and  O_8
REMARK    3  A    between atoms: O_8  and  C_9
REMARK    4  A    between atoms: C_11  and  N_49
REMARK    5  A    between atoms: C_13  and  O_31
REMARK    6  A    between atoms: C_22  and  C_25
REMARK                            x       y       z     vdW  Elec       q    Type
REMARK                         _______ _______ _______ _____ _____    ______ ____
ROOT
ATOM      1  C   UNL     1       1.497   1.587  -2.389  0.00  0.00    +0.239 C 
ATOM      2  C   UNL     1       0.045   1.112  -2.476  0.00  0.00    +0.014 C 
ATOM      3  C   UNL     1      -0.730   1.593  -1.243  0.00  0.00    +0.136 C 
ATOM      4  C   UNL     1      -0.013   1.086   0.008  0.00  0.00    +0.180 C 
ATOM      5  C   UNL     1       1.427   1.617  -0.003  0.00  0.00    +0.178 C 
ATOM      6  O   UNL     1       2.089   1.132  -1.168  0.00  0.00    -0.345 OA
ATOM      7  C   UNL     1       2.127   1.142   1.271  0.00  0.00    +0.197 C 
ATOM      8  O   UNL     1       1.354   1.574   2.398  0.00  0.00    -0.345 OA
ATOM      9  C   UNL     1      -0.000   1.120   2.393  0.00  0.00    +0.282 C 
ATOM     10  O   UNL     1      -0.658   1.546   1.195  0.00  0.00    -0.339 OA
ENDROOT
BRANCH   9  11
ATOM     11  C   UNL     1      -0.722   1.689   3.587  0.00  0.00    +0.008 A 
ATOM     12  C   UNL     1      -1.826   2.501   3.404  0.00  0.00    +0.008 A 
ATOM     13  C   UNL     1      -2.491   3.020   4.499  0.00  0.00    +0.000 A 
ATOM     14  C   UNL     1      -2.047   2.735   5.777  0.00  0.00    +0.000 A 
ATOM     15  C   UNL     1      -0.940   1.927   5.959  0.00  0.00    +0.000 A 
ATOM     16  C   UNL     1      -0.278   1.405   4.864  0.00  0.00    +0.008 A 
ENDBRANCH   9  11
BRANCH   2  19
ATOM     17  H   UNL     1      -0.086   1.356  -4.516  0.00  0.00    -0.089 HD
ATOM     18  H   UNL     1      -1.554   1.415  -3.736  0.00  0.00    -0.089 HD
ATOM     19  N   UNL     1      -0.573   1.686  -3.684  0.00  0.00    +0.385 N 
ATOM     20  H   UNL     1      -0.510   2.710  -3.642  0.00  0.00    -0.089 HD
ENDBRANCH   2  19
BRANCH   3  21
ATOM     21  O   UNL     1      -0.770   3.021  -1.229  0.00  0.00    -0.391 OA
ATOM     22  H   UNL     1      -1.212   3.410  -1.996  0.00  0.00    +0.210 HD
ENDBRANCH   3  21
BRANCH   1  23
ATOM     23  O   UNL     1       1.532   3.015  -2.429  0.00  0.00    -0.348 OA
BRANCH  23  24
ATOM     24  C   UNL     1       2.842   3.561  -2.593  0.00  0.00    +0.198 C 
BRANCH  24  28
ATOM     25  C   UNL     1       2.611   7.825  -2.673  0.00  0.00    +0.000 A 
ATOM     26  C   UNL     1       2.786   7.165  -1.471  0.00  0.00    +0.000 A 
ATOM     27  C   UNL     1       2.860   5.785  -1.445  0.00  0.00    +0.006 A 
ATOM     28  C   UNL     1       2.761   5.065  -2.621  0.00  0.00    -0.022 A 
ATOM     29  C   UNL     1       2.592   5.726  -3.824  0.00  0.00    +0.006 A 
ATOM     30  C   UNL     1       2.512   7.106  -3.849  0.00  0.00    +0.000 A 
ENDBRANCH  24  28
ENDBRANCH  23  24
ENDBRANCH   1  23
TORSDOF 6
