REMARK  Name = ZINC22789824
REMARK  8 active torsions:
REMARK  status: ('A' for Active; 'I' for Inactive)
REMARK    1  A    between atoms: C_1  and  C_2
REMARK    2  A    between atoms: C_5  and  C_33
REMARK    3  A    between atoms: C_10  and  C_12
REMARK    4  A    between atoms: C_12  and  N_13
REMARK    5  A    between atoms: N_16  and  C_19
REMARK    6  A    between atoms: C_19  and  C_20
REMARK    7  A    between atoms: N_22  and  C_23
REMARK    8  A    between atoms: C_24  and  C_31
REMARK                            x       y       z     vdW  Elec       q    Type
REMARK                         _______ _______ _______ _____ _____    ______ ____
ROOT
ATOM      1  N   UNL     1      -2.321   0.815  -0.071  0.00  0.00    +0.387 N 
ATOM      2  C   UNL     1      -2.516   0.280  -1.425  0.00  0.00    -0.063 C 
ATOM      3  C   UNL     1      -3.622  -0.777  -1.399  0.00  0.00    +0.066 C 
ATOM      4  N   UNL     1      -4.862  -0.172  -0.891  0.00  0.00    -0.298 NA
ATOM      5  C   UNL     1      -4.667   0.363   0.464  0.00  0.00    +0.066 C 
ATOM      6  C   UNL     1      -3.560   1.420   0.437  0.00  0.00    -0.063 C 
ATOM      7  H   UNL     1      -2.056  -0.023   0.591  0.00  0.00    -0.081 HD
ENDROOT
BRANCH   1   8
ATOM      8  C   UNL     1      -1.213   1.780  -0.041  0.00  0.00    +0.019 C 
BRANCH   8  16
ATOM      9  C   UNL     1       2.392   5.013   1.192  0.00  0.00    +0.009 C 
ATOM     10  C   UNL     1       2.263   3.499   1.007  0.00  0.00    +0.004 C 
ATOM     11  C   UNL     1       3.625   2.914   0.625  0.00  0.00    +0.009 C 
ATOM     12  C   UNL     1       3.504   1.396   0.472  0.00  0.00    +0.004 C 
ATOM     13  C   UNL     1       2.510   1.077  -0.648  0.00  0.00    +0.111 C 
ATOM     14  N   UNL     1       1.239   1.757  -0.361  0.00  0.00    -0.303 N 
ATOM     15  C   UNL     1       1.254   3.205  -0.113  0.00  0.00    +0.111 C 
ATOM     16  C   UNL     1       0.082   1.067  -0.331  0.00  0.00    +0.199 C 
ATOM     17  O   UNL     1       0.083  -0.127  -0.542  0.00  0.00    -0.278 OA
ATOM     18  C   UNL     1       3.006   0.788   1.785  0.00  0.00    +0.009 C 
ENDBRANCH   8  16
ENDBRANCH   1   8
BRANCH   4  19
ATOM     19  C   UNL     1      -5.969  -1.137  -0.921  0.00  0.00    +0.180 C 
BRANCH  19  20
ATOM     20  C   UNL     1      -7.265  -0.423  -0.635  0.00  0.00    +0.232 C 
ATOM     21  O   UNL     1      -7.283   0.786  -0.540  0.00  0.00    -0.274 OA
ATOM     22  N   UNL     1      -8.404  -1.128  -0.486  0.00  0.00    -0.278 N 
ATOM     23  H   UNL     1      -8.388  -2.224  -0.573  0.00  0.00    +0.155 HD
BRANCH  22  24
ATOM     24  C   UNL     1      -9.598  -0.470  -0.222  0.00  0.00    +0.090 A 
ATOM     25  C   UNL     1     -10.858  -1.014  -0.045  0.00  0.00    +0.084 A 
ATOM     26  C   UNL     1     -11.960  -0.094   0.228  0.00  0.00    -0.018 A 
ATOM     27  C   UNL     1     -11.621   1.208   0.268  0.00  0.00    -0.004 A 
ATOM     28  S   UNL     1      -9.873   1.229  -0.044  0.00  0.00    -0.077 S 
ATOM     29  C   UNL     1     -12.807   2.091   0.549  0.00  0.00    +0.043 C 
ATOM     30  C   UNL     1     -13.879   1.134   1.114  0.00  0.00    +0.010 C 
ATOM     31  C   UNL     1     -13.463  -0.211   0.486  0.00  0.00    +0.037 C 
BRANCH  25  32
ATOM     32  C   UNL     1     -11.073  -2.428  -0.121  0.00  0.00    +0.102 C 
ATOM     33  N   UNL     1     -11.244  -3.549  -0.181  0.00  0.00    -0.191 NA
ENDBRANCH  25  32
ENDBRANCH  22  24
ENDBRANCH  19  20
ENDBRANCH   4  19
TORSDOF 6
