REMARK  Name = ZINC63737433
REMARK  4 active torsions:
REMARK  status: ('A' for Active; 'I' for Inactive)
REMARK    1  A    between atoms: C_1  and  C_2
REMARK    2  A    between atoms: C_2  and  C_3
REMARK    3  A    between atoms: C_3  and  N_4
REMARK    4  A    between atoms: N_4  and  C_5
REMARK                            x       y       z     vdW  Elec       q    Type
REMARK                         _______ _______ _______ _____ _____    ______ ____
ROOT
ATOM      1  N   UNL     1       0.762  -1.976   1.234  0.00  0.00    -0.318 N 
ATOM      2  C   UNL     1       1.864  -2.690   0.585  0.00  0.00    +0.130 C 
ATOM      3  C   UNL     1      -0.262  -2.686   1.839  0.00  0.00    +0.128 A 
ATOM      4  C   UNL     1      -1.371  -2.020   2.364  0.00  0.00    +0.084 A 
ATOM      5  C   UNL     1      -2.369  -2.770   2.959  0.00  0.00    +0.136 A 
ATOM      6  N   UNL     1      -2.244  -4.089   3.014  0.00  0.00    -0.203 NA
ATOM      7  C   UNL     1      -1.179  -4.693   2.508  0.00  0.00    +0.216 A 
ATOM      8  N   UNL     1      -0.205  -4.011   1.925  0.00  0.00    -0.200 NA
ATOM      9  N   UNL     1      -1.085  -6.072   2.585  0.00  0.00    -0.327 N 
ATOM     10 CL   UNL     1      -3.770  -1.993   3.628  0.00  0.00    -0.062 Cl
ATOM     11  H   UNL     1      -1.794  -6.583   3.006  0.00  0.00    +0.145 HD
ATOM     12  H   UNL     1      -0.311  -6.526   2.218  0.00  0.00    +0.145 HD
ENDROOT
BRANCH   1  13
ATOM     13  C   UNL     1       0.742  -0.511   1.242  0.00  0.00    +0.106 C 
BRANCH  13  15
ATOM     14  C   UNL     1      -0.019   1.526   0.010  0.00  0.00    +0.005 C 
ATOM     15  C   UNL     1       0.002  -0.004   0.002  0.00  0.00    +0.015 C 
ENDBRANCH  13  15
ENDBRANCH   1  13
TORSDOF 2
