REMARK  Name = ZINC63961302
REMARK  7 active torsions:
REMARK  status: ('A' for Active; 'I' for Inactive)
REMARK    1  A    between atoms: C_1  and  C_2
REMARK    2  A    between atoms: C_5  and  C_25
REMARK    3  A    between atoms: C_7  and  N_8
REMARK    4  A    between atoms: C_9  and  C_11
REMARK    5  A    between atoms: C_11  and  C_12
REMARK    6  A    between atoms: C_12  and  C_13
REMARK    7  A    between atoms: C_13  and  N_14
REMARK                            x       y       z     vdW  Elec       q    Type
REMARK                         _______ _______ _______ _____ _____    ______ ____
ROOT
ATOM      1  C   UNL     1      -0.169   0.070   4.882  0.00  0.00    +0.097 C 
ENDROOT
BRANCH   1   3
ATOM      2  N   UNL     1       0.025  -0.007   2.417  0.00  0.00    -0.285 N 
ATOM      3  C   UNL     1      -0.057  -0.682   3.581  0.00  0.00    +0.217 C 
ATOM      4  O   UNL     1      -0.040  -1.895   3.581  0.00  0.00    -0.275 OA
ATOM      5  H   UNL     1       0.077   0.962   2.421  0.00  0.00    +0.155 HD
BRANCH   2  12
ATOM      6  C   UNL     1      -1.265   1.183   0.182  0.00  0.00    +0.045 C 
ATOM      7  C   UNL     1      -0.586  -0.158   0.085  0.00  0.00    -0.029 A 
ATOM      8  C   UNL     1      -0.575  -0.839  -1.118  0.00  0.00    +0.006 A 
ATOM      9  C   UNL     1       0.045  -2.068  -1.215  0.00  0.00    +0.019 A 
ATOM     10  C   UNL     1       0.665  -2.627  -0.096  0.00  0.00    +0.054 A 
ATOM     11  C   UNL     1       0.655  -1.940   1.118  0.00  0.00    +0.042 A 
ATOM     12  C   UNL     1       0.033  -0.703   1.203  0.00  0.00    +0.038 A 
BRANCH  10  13
ATOM     13  C   UNL     1       1.309  -3.903  -0.193  0.00  0.00    +0.099 C 
ATOM     14  N   UNL     1       1.820  -4.914  -0.271  0.00  0.00    -0.191 NA
ENDBRANCH  10  13
ENDBRANCH   2  12
ENDBRANCH   1   3
BRANCH   1  15
ATOM     15  C   UNL     1      -0.246  -0.926   6.041  0.00  0.00    +0.029 C 
BRANCH  15  16
ATOM     16  C   UNL     1      -0.359  -0.162   7.362  0.00  0.00    +0.118 C 
BRANCH  16  17
ATOM     17  N   UNL     1      -0.433  -1.116   8.473  0.00  0.00    -0.224 N 
ATOM     18  C   UNL     1      -1.584  -1.629   8.957  0.00  0.00    +0.246 C 
ATOM     19  O   UNL     1      -2.711  -1.399   8.574  0.00  0.00    -0.273 OA
ATOM     20  C   UNL     1      -1.169  -2.549  10.077  0.00  0.00    +0.113 C 
ATOM     21  C   UNL     1      -1.621  -3.990   9.804  0.00  0.00    +0.035 C 
ATOM     22  C   UNL     1      -1.973  -4.545  11.209  0.00  0.00    +0.003 C 
ATOM     23  C   UNL     1      -2.615  -3.322  11.912  0.00  0.00    +0.003 C 
ATOM     24  C   UNL     1      -1.788  -2.118  11.409  0.00  0.00    +0.035 C 
ATOM     25  N   UNL     1       0.292  -2.450  10.110  0.00  0.00    -0.285 N 
ATOM     26  C   UNL     1       0.633  -1.591   9.129  0.00  0.00    +0.309 C 
ATOM     27  O   UNL     1       1.780  -1.279   8.872  0.00  0.00    -0.252 OA
ATOM     28  H   UNL     1       0.893  -2.913  10.714  0.00  0.00    +0.151 HD
ENDBRANCH  16  17
ENDBRANCH  15  16
ENDBRANCH   1  15
TORSDOF 6
