REMARK  Name = ZINC38166912
REMARK  8 active torsions:
REMARK  status: ('A' for Active; 'I' for Inactive)
REMARK    1  A    between atoms: C_1  and  C_2
REMARK    2  A    between atoms: C_16  and  O_36
REMARK    3  A    between atoms: C_19  and  C_35
REMARK    4  A    between atoms: C_25  and  C_31
REMARK    5  A    between atoms: C_27  and  C_29
REMARK    6  A    between atoms: C_27  and  C_30
REMARK    7  A    between atoms: C_31  and  C_33
REMARK    8  A    between atoms: C_33  and  O_34
REMARK                            x       y       z     vdW  Elec       q    Type
REMARK                         _______ _______ _______ _____ _____    ______ ____
ROOT
ATOM      1  C   UNL     1       0.444   2.595  -0.625  0.00  0.00    +0.016 C 
ATOM      2  C   UNL     1       0.662   1.166  -0.123  0.00  0.00    -0.002 C 
ATOM      3  C   UNL     1      -0.672   0.582   0.347  0.00  0.00    +0.019 C 
ATOM      4  C   UNL     1      -1.214   1.437   1.497  0.00  0.00    +0.080 C 
ATOM      5  C   UNL     1      -0.185   1.479   2.600  0.00  0.00    +0.156 C 
ATOM      6  O   UNL     1      -0.535   1.636   3.751  0.00  0.00    -0.293 OA
ATOM      7  C   UNL     1       1.233   1.330   2.280  0.00  0.00    +0.049 C 
ATOM      8  C   UNL     1       1.641   1.180   1.024  0.00  0.00    -0.027 C 
ATOM      9  C   UNL     1       3.105   1.009   0.706  0.00  0.00    +0.193 C 
ATOM     10  C   UNL     1       3.330  -0.329   0.016  0.00  0.00    +0.045 C 
ATOM     11  C   UNL     1       2.088  -0.827  -0.714  0.00  0.00    +0.002 C 
ATOM     12  C   UNL     1       1.235   0.315  -1.247  0.00  0.00    +0.031 C 
ATOM     13  C   UNL     1       2.094   1.154  -2.195  0.00  0.00    +0.119 C 
ATOM     14  C   UNL     1       2.448   0.286  -3.402  0.00  0.00    +0.042 C 
ATOM     15  C   UNL     1       3.231  -0.959  -2.985  0.00  0.00    +0.012 C 
ATOM     16  C   UNL     1       2.514  -1.728  -1.861  0.00  0.00    +0.004 C 
ATOM     17  C   UNL     1       1.311  -2.367  -2.578  0.00  0.00    +0.039 C 
ATOM     18  C   UNL     1       1.900  -2.822  -3.932  0.00  0.00    +0.162 C 
ATOM     19  C   UNL     1       3.154  -1.947  -4.181  0.00  0.00    +0.164 C 
ATOM     20  O   UNL     1       2.842  -1.188  -5.367  0.00  0.00    -0.332 OA
ATOM     21  C   UNL     1       1.826  -1.958  -6.043  0.00  0.00    +0.166 C 
ATOM     22  O   UNL     1       0.973  -2.480  -4.981  0.00  0.00    -0.343 OA
ATOM     23  C   UNL     1       2.461  -3.118  -6.814  0.00  0.00    +0.074 C 
ATOM     24  C   UNL     1       1.020  -1.066  -6.989  0.00  0.00    +0.074 C 
ATOM     25  C   UNL     1       4.679  -0.617  -2.626  0.00  0.00    +0.015 C 
ATOM     26  F   UNL     1       3.847   1.050   1.891  0.00  0.00    -0.241 F 
ENDROOT
BRANCH  19  27
ATOM     27  C   UNL     1       4.409  -2.769  -4.327  0.00  0.00    +0.193 C 
ATOM     28  O   UNL     1       4.558  -3.767  -3.663  0.00  0.00    -0.292 OA
BRANCH  27  29
ATOM     29  C   UNL     1       5.479  -2.345  -5.301  0.00  0.00    +0.233 C 
BRANCH  29  30
ATOM     30  O   UNL     1       6.636  -3.165  -5.123  0.00  0.00    -0.387 OA
ATOM     31  H   UNL     1       7.366  -2.948  -5.719  0.00  0.00    +0.210 HD
ENDBRANCH  29  30
ENDBRANCH  27  29
ENDBRANCH  19  27
BRANCH  13  32
ATOM     32  O   UNL     1       3.288   1.566  -1.528  0.00  0.00    -0.391 OA
ATOM     33  H   UNL     1       3.879   2.103  -2.074  0.00  0.00    +0.210 HD
ENDBRANCH  13  32
TORSDOF 4
