REMARK  Name = ZINC09424147
REMARK  4 active torsions:
REMARK  status: ('A' for Active; 'I' for Inactive)
REMARK    1  A    between atoms: C_4  and  N_7
REMARK    2  A    between atoms: C_8  and  C_27
REMARK    3  A    between atoms: N_17  and  C_20
REMARK    4  A    between atoms: C_29  and  N_33
REMARK                            x       y       z     vdW  Elec       q    Type
REMARK                         _______ _______ _______ _____ _____    ______ ____
ROOT
ATOM      1  N   UNL     1      -0.018  10.322   0.315  0.00  0.00    -0.244 N 
ATOM      2  C   UNL     1      -1.290   9.526   0.250  0.00  0.00    +0.161 C 
ATOM      3  C   UNL     1      -0.803   8.142   0.361  0.00  0.00    +0.146 C 
ATOM      4  C   UNL     1       0.599   8.212  -0.365  0.00  0.00    +0.249 C 
ATOM      5  O   UNL     1       1.105   9.340   0.361  0.00  0.00    -0.257 OA
ATOM      6  C   UNL     1       1.046   6.826   0.032  0.00  0.00    +0.259 C 
ATOM      7  O   UNL     1       2.175   6.470   0.295  0.00  0.00    -0.272 OA
ATOM      8  N   UNL     1      -0.080   6.056   0.034  0.00  0.00    -0.208 N 
ATOM      9  C   UNL     1      -1.233   6.799   0.048  0.00  0.00    +0.235 C 
ATOM     10  O   UNL     1      -2.364   6.414  -0.157  0.00  0.00    -0.274 OA
ENDROOT
BRANCH   8  11
ATOM     11  C   UNL     1      -0.061   4.654   0.027  0.00  0.00    +0.044 A 
ATOM     12  C   UNL     1       1.150   3.975   0.012  0.00  0.00    +0.025 A 
ATOM     13  C   UNL     1       1.166   2.594   0.005  0.00  0.00    +0.017 A 
ATOM     14  C   UNL     1      -0.024   1.887   0.012  0.00  0.00    +0.018 A 
ATOM     15  C   UNL     1      -1.232   2.561   0.022  0.00  0.00    +0.017 A 
ATOM     16  C   UNL     1      -1.253   3.942   0.034  0.00  0.00    +0.025 A 
ATOM     17 BR   UNL     1       0.002  -0.004   0.002  0.00  0.00    -0.050 Br
ENDBRANCH   8  11
BRANCH   2  18
ATOM     18  C   UNL     1      -1.991   9.743  -1.067  0.00  0.00    +0.027 A 
ATOM     19  C   UNL     1      -1.297  10.266  -2.141  0.00  0.00    +0.042 A 
ATOM     20  C   UNL     1      -1.940  10.466  -3.349  0.00  0.00    +0.127 A 
ATOM     21  C   UNL     1      -3.277  10.143  -3.485  0.00  0.00    +0.036 A 
ATOM     22  C   UNL     1      -3.975   9.619  -2.414  0.00  0.00    +0.053 A 
ATOM     23  C   UNL     1      -3.332   9.413  -1.202  0.00  0.00    +0.184 A 
ATOM     24  O   UNL     1      -4.014   8.893  -0.149  0.00  0.00    -0.288 OA
BRANCH  20  25
ATOM     25  N   UNL     1      -1.194  11.027  -4.498  0.00  0.00    +0.056 N 
ATOM     26  O   UNL     1      -0.016  11.311  -4.379  0.00  0.00    -0.126 OA
ATOM     27  O   UNL     1      -1.759  11.203  -5.563  0.00  0.00    -0.126 OA
ENDBRANCH  20  25
ENDBRANCH   2  18
BRANCH   1  31
ATOM     28  C   UNL     1       0.026  12.794   3.665  0.00  0.00    +0.000 A 
ATOM     29  C   UNL     1       0.991  11.814   3.518  0.00  0.00    +0.002 A 
ATOM     30  C   UNL     1       0.979  10.992   2.409  0.00  0.00    +0.028 A 
ATOM     31  C   UNL     1      -0.003  11.151   1.439  0.00  0.00    +0.065 A 
ATOM     32  C   UNL     1      -0.967  12.140   1.587  0.00  0.00    +0.028 A 
ATOM     33  C   UNL     1      -0.953  12.955   2.702  0.00  0.00    +0.002 A 
ENDBRANCH   1  31
TORSDOF 4
