REMARK  Name = ZINC50926192
REMARK  5 active torsions:
REMARK  status: ('A' for Active; 'I' for Inactive)
REMARK    1  A    between atoms: C_4  and  C_7
REMARK    2  A    between atoms: C_8  and  C_9
REMARK    3  A    between atoms: N_14  and  C_16
REMARK    4  A    between atoms: C_16  and  N_17
REMARK    5  A    between atoms: C_21  and  C_24
REMARK                            x       y       z     vdW  Elec       q    Type
REMARK                         _______ _______ _______ _____ _____    ______ ____
ROOT
ATOM      1  C   UNL     1       4.997  -2.739  -0.061  0.00  0.00    +0.153 A 
ATOM      2  N   UNL     1       5.159  -4.113  -0.076  0.00  0.00    -0.318 N 
ATOM      3  H   UNL     1       4.445  -4.769  -0.077  0.00  0.00    +0.169 HD
ATOM      4  C   UNL     1       6.480  -4.382  -0.088  0.00  0.00    +0.177 A 
ATOM      5  S   UNL     1       7.193  -5.938  -0.110  0.00  0.00    -0.011 S 
ATOM      6  N   UNL     1       7.139  -3.205  -0.082  0.00  0.00    -0.226 N 
ATOM      7  N   UNL     1       6.181  -2.183  -0.071  0.00  0.00    -0.150 NA
ENDROOT
BRANCH   1   9
ATOM      8  C   UNL     1       3.692  -0.681  -0.037  0.00  0.00    +0.011 C 
ATOM      9  C   UNL     1       3.714  -2.026  -0.045  0.00  0.00    +0.048 C 
BRANCH   8  13
ATOM     10  C   UNL     1      -0.017   1.380   0.010  0.00  0.00    +0.000 A 
ATOM     11  C   UNL     1       1.168   2.095   0.002  0.00  0.00    +0.001 A 
ATOM     12  C   UNL     1       2.377   1.432  -0.013  0.00  0.00    +0.008 A 
ATOM     13  C   UNL     1       2.405   0.035  -0.021  0.00  0.00    -0.025 A 
ATOM     14  C   UNL     1       1.204  -0.681  -0.013  0.00  0.00    +0.008 A 
ATOM     15  C   UNL     1       0.002  -0.004   0.002  0.00  0.00    +0.001 A 
ENDBRANCH   8  13
ENDBRANCH   1   9
BRANCH   6  16
ATOM     16  C   UNL     1       8.593  -3.028  -0.091  0.00  0.00    +0.233 C 
BRANCH  16  17
ATOM     17  N   UNL     1       9.026  -2.600  -1.428  0.00  0.00    -0.278 NA
ATOM     18  C   UNL     1       8.830  -1.154  -1.608  0.00  0.00    +0.114 C 
ATOM     19  C   UNL     1       9.237  -0.762  -3.031  0.00  0.00    +0.176 C 
ATOM     20  O   UNL     1      10.592  -1.157  -3.260  0.00  0.00    -0.365 OA
ATOM     21  C   UNL     1      10.819  -2.560  -3.094  0.00  0.00    +0.217 C 
ATOM     22  C   UNL     1      10.428  -2.970  -1.672  0.00  0.00    +0.127 C 
BRANCH  21  23
ATOM     23  C   UNL     1      12.276  -2.865  -3.324  0.00  0.00    +0.241 C 
ATOM     24  O   UNL     1      13.062  -1.960  -3.513  0.00  0.00    -0.273 OA
ATOM     25  N   UNL     1      12.707  -4.142  -3.321  0.00  0.00    -0.327 N 
ATOM     26  H   UNL     1      12.078  -4.865  -3.170  0.00  0.00    +0.145 HD
ATOM     27  H   UNL     1      13.645  -4.338  -3.469  0.00  0.00    +0.145 HD
ENDBRANCH  21  23
ENDBRANCH  16  17
ENDBRANCH   6  16
TORSDOF 5
