REMARK  Name = ZINC21601884
REMARK  9 active torsions:
REMARK  status: ('A' for Active; 'I' for Inactive)
REMARK    1  A    between atoms: C_1  and  C_2
REMARK    2  A    between atoms: C_2  and  C_4
REMARK    3  A    between atoms: C_2  and  O_14
REMARK    4  A    between atoms: N_6  and  C_7
REMARK    5  A    between atoms: C_8  and  C_12
REMARK    6  A    between atoms: O_14  and  C_15
REMARK    7  A    between atoms: C_15  and  C_17
REMARK    8  A    between atoms: C_30  and  C_31
REMARK    9  A    between atoms: C_34  and  O_37
REMARK                            x       y       z     vdW  Elec       q    Type
REMARK                         _______ _______ _______ _____ _____    ______ ____
ROOT
ATOM      1  C   UNL     1       1.592   1.288   4.168  0.00  0.00    +0.073 A 
ATOM      2  C   UNL     1       1.169   1.670   5.516  0.00  0.00    +0.015 A 
ATOM      3  C   UNL     1      -0.006   2.394   5.738  0.00  0.00    +0.011 A 
ATOM      4  C   UNL     1      -0.361   2.729   7.012  0.00  0.00    +0.001 A 
ATOM      5  C   UNL     1       0.434   2.357   8.094  0.00  0.00    +0.002 A 
ATOM      6  C   UNL     1       1.584   1.652   7.913  0.00  0.00    +0.028 A 
ATOM      7  C   UNL     1       1.983   1.288   6.612  0.00  0.00    +0.072 A 
ATOM      8  N   UNL     1       3.102   0.600   6.404  0.00  0.00    -0.247 NA
ATOM      9  C   UNL     1       3.513   0.239   5.192  0.00  0.00    +0.072 A 
ATOM     10  C   UNL     1       2.770   0.566   4.046  0.00  0.00    -0.007 A 
ATOM     11  C   UNL     1       3.469   0.039   2.817  0.00  0.00    +0.043 C 
ATOM     12  C   UNL     1       4.736  -0.670   3.313  0.00  0.00    +0.042 C 
ATOM     13  C   UNL     1       4.722  -0.519   4.814  0.00  0.00    -0.021 C 
ATOM     14  C   UNL     1       5.651  -0.994   5.662  0.00  0.00    +0.013 C 
ENDROOT
BRANCH  14  15
ATOM     15  C   UNL     1       6.738  -1.851   5.159  0.00  0.00    -0.024 A 
ATOM     16  C   UNL     1       7.606  -2.481   6.056  0.00  0.00    +0.011 A 
ATOM     17  C   UNL     1       8.619  -3.285   5.580  0.00  0.00    +0.046 A 
ATOM     18  C   UNL     1       8.784  -3.462   4.212  0.00  0.00    +0.117 A 
ATOM     19  C   UNL     1       7.927  -2.833   3.317  0.00  0.00    +0.046 A 
ATOM     20  C   UNL     1       6.909  -2.031   3.783  0.00  0.00    +0.011 A 
BRANCH  18  21
ATOM     21  O   UNL     1       9.787  -4.251   3.747  0.00  0.00    -0.507 OA
ATOM     22  H   UNL     1       9.920  -4.392   2.665  0.00  0.00    +0.292 HD
ENDBRANCH  18  21
ENDBRANCH  14  15
BRANCH   1  23
ATOM     23  C   UNL     1       0.791   1.654   2.982  0.00  0.00    +0.341 C 
ATOM     24  O   UNL     1       0.999   2.704   2.408  0.00  0.00    -0.245 OA
BRANCH  23  25
ATOM     25  O   UNL     1      -0.171   0.823   2.536  0.00  0.00    -0.449 OA
BRANCH  25  27
ATOM     26  C   UNL     1      -0.219   0.739   0.103  0.00  0.00    +0.062 C 
ATOM     27  C   UNL     1      -0.918   1.247   1.365  0.00  0.00    +0.259 C 
BRANCH  27  28
ATOM     28  C   UNL     1      -2.314   0.681   1.428  0.00  0.00    +0.258 C 
ATOM     29  O   UNL     1      -2.619  -0.083   2.319  0.00  0.00    -0.271 OA
ATOM     30  N   UNL     1      -3.223   1.026   0.495  0.00  0.00    -0.276 N 
ATOM     31  H   UNL     1      -2.947   1.719  -0.313  0.00  0.00    +0.155 HD
BRANCH  30  32
ATOM     32  C   UNL     1      -4.509   0.505   0.553  0.00  0.00    +0.089 A 
ATOM     33  C   UNL     1      -5.575   0.743  -0.304  0.00  0.00    +0.080 A 
ATOM     34  C   UNL     1      -6.812   0.060  -0.008  0.00  0.00    +0.028 A 
ATOM     35  C   UNL     1      -6.828  -0.738   1.075  0.00  0.00    +0.048 A 
ATOM     36  S   UNL     1      -5.173  -0.592   1.716  0.00  0.00    -0.081 S 
BRANCH  33  37
ATOM     37  C   UNL     1      -5.453   1.620  -1.430  0.00  0.00    +0.102 C 
ATOM     38  N   UNL     1      -5.356   2.316  -2.322  0.00  0.00    -0.191 NA
ENDBRANCH  33  37
ENDBRANCH  30  32
ENDBRANCH  27  28
ENDBRANCH  25  27
ENDBRANCH  23  25
ENDBRANCH   1  23
TORSDOF 8
