REMARK  Name = ZINC63275719
REMARK  5 active torsions:
REMARK  status: ('A' for Active; 'I' for Inactive)
REMARK    1  A    between atoms: C_1  and  C_2
REMARK    2  A    between atoms: N_4  and  C_5
REMARK    3  A    between atoms: C_8  and  C_11
REMARK    4  A    between atoms: C_12  and  C_13
REMARK    5  A    between atoms: C_18  and  N_22
REMARK                            x       y       z     vdW  Elec       q    Type
REMARK                         _______ _______ _______ _____ _____    ______ ____
ROOT
ATOM      1  C   UNL     1      -1.734  -5.342  -5.334  0.00  0.00    +0.132 A 
ATOM      2  N   UNL     1      -2.006  -6.632  -5.180  0.00  0.00    -0.228 NA
ATOM      3  C   UNL     1      -2.293  -7.179  -6.355  0.00  0.00    +0.090 A 
ATOM      4  C   UNL     1      -2.647  -8.477  -6.782  0.00  0.00    +0.032 A 
ATOM      5  C   UNL     1      -2.882  -8.710  -8.101  0.00  0.00    +0.035 A 
ATOM      6  C   UNL     1      -2.782  -7.693  -9.048  0.00  0.00    +0.128 A 
ATOM      7  C   UNL     1      -2.440  -6.407  -8.687  0.00  0.00    +0.060 A 
ATOM      8  C   UNL     1      -2.189  -6.112  -7.356  0.00  0.00    +0.069 A 
ATOM      9  N   UNL     1      -1.841  -4.983  -6.658  0.00  0.00    -0.338 N 
ATOM     10  H   UNL     1      -1.696  -4.098  -7.029  0.00  0.00    +0.167 HD
ENDROOT
BRANCH   6  11
ATOM     11  N   UNL     1      -3.048  -8.000 -10.472  0.00  0.00    +0.056 N 
ATOM     12  O   UNL     1      -3.375  -9.224 -10.832  0.00  0.00    -0.126 OA
ATOM     13  O   UNL     1      -2.958  -7.049 -11.379  0.00  0.00    -0.126 OA
ENDBRANCH   6  11
BRANCH   1  15
ATOM     14  C   UNL     1      -1.310  -4.940  -2.977  0.00  0.00    +0.032 C 
ATOM     15  C   UNL     1      -1.391  -4.466  -4.291  0.00  0.00    +0.048 C 
BRANCH  14  23
ATOM     16  C   UNL     1       0.418   1.459  -0.022  0.00  0.00    +0.110 C 
ATOM     17  C   UNL     1       0.209  -0.033  -0.019  0.00  0.00    +0.218 C 
ATOM     18  O   UNL     1       0.321  -0.659   1.014  0.00  0.00    -0.276 OA
ATOM     19  N   UNL     1      -0.102  -0.673  -1.163  0.00  0.00    -0.254 N 
ATOM     20  C   UNL     1      -0.124   0.062  -2.430  0.00  0.00    +0.140 C 
ATOM     21  C   UNL     1      -0.397  -2.010  -1.142  0.00  0.00    +0.167 A 
ATOM     22  N   UNL     1      -0.715  -2.792  -2.157  0.00  0.00    -0.225 NA
ATOM     23  C   UNL     1      -0.969  -4.070  -1.941  0.00  0.00    +0.073 A 
ATOM     24  C   UNL     1      -0.871  -4.526  -0.536  0.00  0.00    +0.076 A 
ATOM     25  S   UNL     1      -0.435  -3.108   0.261  0.00  0.00    -0.060 S 
ENDBRANCH  14  23
ENDBRANCH   1  15
TORSDOF 3
