REMARK  Name = ZINC65483163
REMARK  5 active torsions:
REMARK  status: ('A' for Active; 'I' for Inactive)
REMARK    1  A    between atoms: C_1  and  C_2
REMARK    2  A    between atoms: C_4  and  O_22
REMARK    3  A    between atoms: C_7  and  N_8
REMARK    4  A    between atoms: N_11  and  C_12
REMARK    5  A    between atoms: O_22  and  C_23
REMARK                            x       y       z     vdW  Elec       q    Type
REMARK                         _______ _______ _______ _____ _____    ______ ____
ROOT
ATOM      1  N   UNL     1      -0.013  -0.056   2.407  0.00  0.00    -0.269 N 
ATOM      2  C   UNL     1       0.114  -0.834   3.500  0.00  0.00    +0.304 C 
ATOM      3  O   UNL     1       0.321  -2.026   3.377  0.00  0.00    -0.252 OA
ATOM      4  N   UNL     1       0.011  -0.291   4.729  0.00  0.00    -0.292 N 
ATOM      5  H   UNL     1      -0.124   0.903   2.504  0.00  0.00    +0.156 HD
ATOM      6  H   UNL     1      -0.155   0.659   4.827  0.00  0.00    +0.151 HD
ENDROOT
BRANCH   4   7
ATOM      7  C   UNL     1       0.148  -1.137   5.918  0.00  0.00    +0.111 C 
ATOM      8  C   UNL     1       0.616  -0.284   7.099  0.00  0.00    +0.068 C 
ATOM      9  C   UNL     1       0.469  -1.113   8.381  0.00  0.00    +0.231 C 
ATOM     10  O   UNL     1      -0.919  -1.374   8.591  0.00  0.00    -0.492 OA
ATOM     11  C   UNL     1      -1.640  -1.855   7.545  0.00  0.00    +0.125 A 
ATOM     12  C   UNL     1      -1.182  -1.768   6.242  0.00  0.00    +0.015 A 
ATOM     13  C   UNL     1      -1.953  -2.267   5.206  0.00  0.00    +0.009 A 
ATOM     14  C   UNL     1      -3.176  -2.854   5.467  0.00  0.00    +0.001 A 
ATOM     15  C   UNL     1      -3.635  -2.946   6.768  0.00  0.00    +0.004 A 
ATOM     16  C   UNL     1      -2.872  -2.448   7.804  0.00  0.00    +0.046 A 
ENDBRANCH   4   7
BRANCH   1  23
ATOM     17  C   UNL     1      -1.345   1.302   0.292  0.00  0.00    +0.046 C 
ATOM     18  C   UNL     1      -0.623  -0.002   0.070  0.00  0.00    -0.026 A 
ATOM     19  C   UNL     1      -0.590  -0.567  -1.190  0.00  0.00    +0.051 A 
ATOM     20  C   UNL     1       0.075  -1.767  -1.395  0.00  0.00    +0.132 A 
ATOM     21  C   UNL     1       0.708  -2.400  -0.335  0.00  0.00    +0.048 A 
ATOM     22  C   UNL     1       0.676  -1.836   0.925  0.00  0.00    +0.027 A 
ATOM     23  C   UNL     1       0.015  -0.632   1.130  0.00  0.00    +0.038 A 
BRANCH  20  24
ATOM     24  O   UNL     1       0.106  -2.323  -2.635  0.00  0.00    -0.424 OA
BRANCH  24  25
ATOM     25  C   UNL     1       0.772  -1.662  -3.612  0.00  0.00    +0.323 A 
ATOM     26  N   UNL     1       1.282  -0.469  -3.352  0.00  0.00    -0.203 NA
ATOM     27  C   UNL     1       1.939   0.203  -4.283  0.00  0.00    +0.118 A 
ATOM     28  C   UNL     1       2.089  -0.357  -5.542  0.00  0.00    +0.040 A 
ATOM     29  C   UNL     1       1.542  -1.608  -5.779  0.00  0.00    +0.118 A 
ATOM     30  N   UNL     1       0.902  -2.228  -4.801  0.00  0.00    -0.203 NA
ENDBRANCH  24  25
ENDBRANCH  20  24
ENDBRANCH   1  23
TORSDOF 4
