REMARK  Name = ZINC05695629
REMARK  6 active torsions:
REMARK  status: ('A' for Active; 'I' for Inactive)
REMARK    1  A    between atoms: C_1  and  C_2
REMARK    2  A    between atoms: C_2  and  C_4
REMARK    3  A    between atoms: C_2  and  N_16
REMARK    4  A    between atoms: N_9  and  C_10
REMARK    5  A    between atoms: N_16  and  S_17
REMARK    6  A    between atoms: S_17  and  C_20
REMARK                            x       y       z     vdW  Elec       q    Type
REMARK                         _______ _______ _______ _____ _____    ______ ____
ROOT
ATOM      1  C   UNL     1      -0.019   1.526   0.010  0.00  0.00    +0.034 C 
ATOM      2  C   UNL     1       0.002  -0.004   0.002  0.00  0.00    +0.141 C 
ENDROOT
BRANCH   2   3
ATOM      3  C   UNL     1       0.731  -0.503   1.223  0.00  0.00    +0.157 A 
ATOM      4  N   UNL     1       0.272  -0.523   2.442  0.00  0.00    -0.131 NA
ATOM      5  N   UNL     1       1.153  -1.013   3.239  0.00  0.00    -0.121 NA
ATOM      6  C   UNL     1       2.233  -1.337   2.567  0.00  0.00    +0.207 A 
ATOM      7  S   UNL     1       3.706  -2.043   3.227  0.00  0.00    -0.009 SA
ATOM      8  N   UNL     1       1.996  -1.026   1.256  0.00  0.00    -0.272 N 
BRANCH   8   9
ATOM      9  C   UNL     1       2.869  -1.204   0.172  0.00  0.00    +0.050 A 
ATOM     10  C   UNL     1       2.541  -2.090  -0.846  0.00  0.00    +0.026 A 
ATOM     11  C   UNL     1       3.402  -2.263  -1.912  0.00  0.00    +0.002 A 
ATOM     12  C   UNL     1       4.588  -1.555  -1.967  0.00  0.00    +0.000 A 
ATOM     13  C   UNL     1       4.917  -0.672  -0.955  0.00  0.00    +0.002 A 
ATOM     14  C   UNL     1       4.058  -0.490   0.111  0.00  0.00    +0.026 A 
ENDBRANCH   8   9
ENDBRANCH   2   3
BRANCH   2  15
ATOM     15  N   UNL     1      -1.372  -0.511   0.012  0.00  0.00    -0.180 NA
ATOM     16  H   UNL     1      -1.845  -0.615   0.853  0.00  0.00    +0.149 HD
BRANCH  15  17
ATOM     17  S   UNL     1      -2.119  -0.907  -1.411  0.00  0.00    +0.059 S 
ATOM     18  O   UNL     1      -3.414  -1.386  -1.071  0.00  0.00    -0.153 OA
ATOM     19  O   UNL     1      -1.920   0.189  -2.293  0.00  0.00    -0.153 OA
BRANCH  17  20
ATOM     20  C   UNL     1      -1.242  -2.272  -2.098  0.00  0.00    +0.105 A 
ATOM     21  C   UNL     1      -0.176  -2.051  -2.950  0.00  0.00    +0.028 A 
ATOM     22  C   UNL     1       0.512  -3.122  -3.489  0.00  0.00    +0.002 A 
ATOM     23  C   UNL     1       0.135  -4.414  -3.175  0.00  0.00    +0.000 A 
ATOM     24  C   UNL     1      -0.930  -4.636  -2.322  0.00  0.00    +0.002 A 
ATOM     25  C   UNL     1      -1.616  -3.565  -1.780  0.00  0.00    +0.028 A 
ENDBRANCH  17  20
ENDBRANCH  15  17
ENDBRANCH   2  15
TORSDOF 5
