REMARK  Name = ZINC28361603
REMARK  10 active torsions:
REMARK  status: ('A' for Active; 'I' for Inactive)
REMARK    1  A    between atoms: C_1  and  C_2
REMARK    2  A    between atoms: C_5  and  N_9
REMARK    3  A    between atoms: C_6  and  C_8
REMARK    4  A    between atoms: C_10  and  C_12
REMARK    5  A    between atoms: C_12  and  C_14
REMARK    6  A    between atoms: C_12  and  N_15
REMARK    7  A    between atoms: N_15  and  C_16
REMARK    8  A    between atoms: C_19  and  O_22
REMARK    9  A    between atoms: O_22  and  C_23
REMARK   10  A    between atoms: C_23  and  C_24
REMARK                            x       y       z     vdW  Elec       q    Type
REMARK                         _______ _______ _______ _____ _____    ______ ____
ROOT
ATOM      1  N   UNL     1      -3.430  -2.496  -0.308  0.00  0.00    -0.333 N 
ATOM      2  H   UNL     1      -2.462  -2.839  -0.703  0.00  0.00    +0.147 HD
ENDROOT
BRANCH   1   3
ATOM      3  C   UNL     1      -4.392  -3.429   0.094  0.00  0.00    +0.028 A 
ATOM      4  C   UNL     1      -5.612  -2.997   0.598  0.00  0.00    +0.026 A 
ATOM      5  C   UNL     1      -6.563  -3.919   0.989  0.00  0.00    +0.047 A 
ATOM      6  C   UNL     1      -6.296  -5.276   0.888  0.00  0.00    +0.121 A 
ATOM      7  C   UNL     1      -5.076  -5.709   0.389  0.00  0.00    +0.047 A 
ATOM      8  C   UNL     1      -4.126  -4.788  -0.007  0.00  0.00    +0.026 A 
BRANCH   6   9
ATOM      9  O   UNL     1      -7.231  -6.184   1.278  0.00  0.00    -0.483 OA
BRANCH   9  10
ATOM     10  C   UNL     1      -8.465  -5.668   1.781  0.00  0.00    +0.324 C 
BRANCH  10  11
ATOM     11  C   UNL     1      -9.370  -6.812   2.160  0.00  0.00    +0.248 C 
ATOM     12  O   UNL     1      -8.995  -7.956   2.014  0.00  0.00    -0.272 OA
ATOM     13  N   UNL     1     -10.596  -6.563   2.662  0.00  0.00    -0.327 N 
ATOM     14  H   UNL     1     -11.257  -7.398   2.939  0.00  0.00    +0.145 HD
ATOM     15  H   UNL     1     -10.936  -5.526   2.795  0.00  0.00    +0.145 HD
ENDBRANCH  10  11
ENDBRANCH   9  10
ENDBRANCH   6   9
ENDBRANCH   1   3
BRANCH   1  16
ATOM     16  C   UNL     1      -3.712  -1.062  -0.201  0.00  0.00    +0.154 C 
ATOM     17  C   UNL     1      -4.469  -0.597  -1.447  0.00  0.00    +0.038 C 
BRANCH  16  19
ATOM     18  N   UNL     1      -2.428   1.041   0.019  0.00  0.00    -0.284 N 
ATOM     19  C   UNL     1      -2.415  -0.302  -0.090  0.00  0.00    +0.237 C 
ATOM     20  O   UNL     1      -1.359  -0.900  -0.098  0.00  0.00    -0.273 OA
ATOM     21  H   UNL     1      -3.384   1.575   0.118  0.00  0.00    +0.155 HD
BRANCH  18  26
ATOM     22  C   UNL     1       2.446   3.944  -0.045  0.00  0.00    +0.044 C 
ATOM     23  C   UNL     1       1.152   3.172  -0.025  0.00  0.00    -0.050 A 
ATOM     24  C   UNL     1       1.082   1.928  -0.626  0.00  0.00    +0.005 A 
ATOM     25  C   UNL     1      -0.102   1.218  -0.610  0.00  0.00    +0.024 A 
ATOM     26  C   UNL     1      -1.225   1.756   0.006  0.00  0.00    +0.036 A 
ATOM     27  C   UNL     1      -1.150   3.002   0.613  0.00  0.00    -0.029 A 
ATOM     28  C   UNL     1       0.038   3.708   0.594  0.00  0.00    +0.008 A 
ATOM     29  C   UNL     1      -2.364   3.587   1.288  0.00  0.00    +0.045 C 
ENDBRANCH  18  26
ENDBRANCH  16  19
ENDBRANCH   1  16
TORSDOF 7
