REMARK  Name = ZINC34747413
REMARK  4 active torsions:
REMARK  status: ('A' for Active; 'I' for Inactive)
REMARK    1  A    between atoms: N_11  and  C_14
REMARK    2  A    between atoms: C_14  and  C_15
REMARK    3  A    between atoms: N_21  and  C_24
REMARK    4  A    between atoms: C_24  and  C_25
REMARK                            x       y       z     vdW  Elec       q    Type
REMARK                         _______ _______ _______ _____ _____    ______ ____
ROOT
ATOM      1  C   UNL     1      -0.098   1.446  -0.108  0.00  0.00    +0.005 C 
ATOM      2  C   UNL     1       1.338   1.968  -0.218  0.00  0.00    +0.005 C 
ATOM      3  C   UNL     1       2.055   1.717   1.116  0.00  0.00    +0.043 C 
ATOM      4  C   UNL     1       1.795   0.303   1.537  0.00  0.00    -0.004 A 
ATOM      5  C   UNL     1       0.856  -0.537   1.048  0.00  0.00    -0.023 A 
ATOM      6  C   UNL     1       0.807  -1.869   1.628  0.00  0.00    +0.076 A 
ATOM      7  C   UNL     1       1.751  -2.140   2.644  0.00  0.00    +0.117 A 
ATOM      8  S   UNL     1       2.651  -0.628   2.782  0.00  0.00    -0.073 S 
ATOM      9  N   UNL     1       1.843  -3.302   3.279  0.00  0.00    -0.208 NA
ATOM     10  C   UNL     1       0.993  -4.256   2.928  0.00  0.00    +0.202 A 
ATOM     11  N   UNL     1       0.052  -4.083   1.960  0.00  0.00    -0.271 N 
ATOM     12  C   UNL     1      -0.095  -2.925   1.274  0.00  0.00    +0.264 A 
ATOM     13  O   UNL     1      -0.944  -2.789   0.410  0.00  0.00    -0.267 OA
ATOM     14  N   UNL     1       1.064  -5.469   3.566  0.00  0.00    -0.304 N 
ATOM     15  C   UNL     1       1.904  -6.555   3.037  0.00  0.00    +0.089 C 
ATOM     16  C   UNL     1       2.785  -7.086   4.173  0.00  0.00    -0.059 C 
ATOM     17  N   UNL     1       1.937  -7.474   5.307  0.00  0.00    +0.387 N 
ATOM     18  C   UNL     1       1.259  -6.291   5.853  0.00  0.00    -0.059 C 
ATOM     19  C   UNL     1       0.308  -5.718   4.803  0.00  0.00    +0.089 C 
ATOM     20  C   UNL     1      -0.092  -0.082  -0.059  0.00  0.00    +0.037 C 
ATOM     21  H   UNL     1       1.247  -8.142   4.997  0.00  0.00    -0.081 HD
ENDROOT
BRANCH  11  22
ATOM     22  C   UNL     1      -0.841  -5.201   1.645  0.00  0.00    +0.223 C 
BRANCH  22  23
ATOM     23  C   UNL     1      -2.113  -5.067   2.442  0.00  0.00    +0.230 C 
ATOM     24  O   UNL     1      -2.259  -4.131   3.199  0.00  0.00    -0.274 OA
ATOM     25  N   UNL     1      -3.088  -5.989   2.314  0.00  0.00    -0.328 N 
ATOM     26  H   UNL     1      -2.971  -6.738   1.709  0.00  0.00    +0.145 HD
ATOM     27  H   UNL     1      -3.906  -5.903   2.827  0.00  0.00    +0.145 HD
ENDBRANCH  22  23
ENDBRANCH  11  22
BRANCH  17  28
ATOM     28  C   UNL     1       2.770  -8.084   6.352  0.00  0.00    +0.018 C 
BRANCH  28  29
ATOM     29  C   UNL     1       1.888  -8.594   7.463  0.00  0.00    +0.194 C 
ATOM     30  O   UNL     1       0.685  -8.461   7.391  0.00  0.00    -0.278 OA
ATOM     31  N   UNL     1       2.437  -9.197   8.536  0.00  0.00    -0.331 N 
ATOM     32  H   UNL     1       3.400  -9.303   8.594  0.00  0.00    +0.145 HD
ATOM     33  H   UNL     1       1.870  -9.525   9.251  0.00  0.00    +0.145 HD
ENDBRANCH  28  29
ENDBRANCH  17  28
TORSDOF 4
