REMARK  Name = ZINC09514155
REMARK  14 active torsions:
REMARK  status: ('A' for Active; 'I' for Inactive)
REMARK    1  A    between atoms: C_1  and  C_2
REMARK    2  A    between atoms: C_2  and  C_3
REMARK    3  A    between atoms: C_2  and  C_4
REMARK    4  A    between atoms: C_4  and  N_5
REMARK    5  A    between atoms: C_6  and  N_34
REMARK    6  A    between atoms: C_7  and  N_14
REMARK    7  A    between atoms: N_14  and  C_15
REMARK    8  A    between atoms: C_15  and  C_16
REMARK    9  A    between atoms: C_16  and  C_17
REMARK   10  A    between atoms: C_16  and  C_18
REMARK   11  A    between atoms: C_19  and  C_21
REMARK   12  A    between atoms: C_21  and  N_70
REMARK   13  A    between atoms: C_22  and  N_70
REMARK   14  A    between atoms: C_23  and  N_70
REMARK                            x       y       z     vdW  Elec       q    Type
REMARK                         _______ _______ _______ _____ _____    ______ ____
ROOT
ATOM      1  N   UNL     1      -0.239   0.782   0.435  0.00  0.00    -0.266 N 
ATOM      2  C   UNL     1      -0.874   1.972   0.467  0.00  0.00    +0.203 C 
ATOM      3  O   UNL     1      -2.043   2.044   0.149  0.00  0.00    -0.277 OA
ENDROOT
BRANCH   1   6
ATOM      4  N   UNL     1       3.408   0.339   0.489  0.00  0.00    -0.280 N 
ATOM      5  C   UNL     1       2.121   0.427   0.012  0.00  0.00    +0.127 A 
ATOM      6  C   UNL     1       1.091   0.680   0.895  0.00  0.00    +0.140 A 
ATOM      7  C   UNL     1       1.389   0.827   2.263  0.00  0.00    +0.277 A 
ATOM      8  O   UNL     1       0.498   1.046   3.065  0.00  0.00    -0.266 OA
ATOM      9  N   UNL     1       2.667   0.726   2.679  0.00  0.00    -0.273 N 
ATOM     10  H   UNL     1       2.880   0.831   3.650  0.00  0.00    +0.173 HD
ATOM     11  C   UNL     1       3.659   0.485   1.803  0.00  0.00    +0.331 A 
ATOM     12  O   UNL     1       4.803   0.399   2.206  0.00  0.00    -0.246 OA
BRANCH   5  13
ATOM     13  N   UNL     1       1.865   0.272  -1.329  0.00  0.00    -0.343 N 
ATOM     14  H   UNL     1       0.970   0.420  -1.672  0.00  0.00    +0.144 HD
ATOM     15  H   UNL     1       2.579   0.015  -1.933  0.00  0.00    +0.144 HD
ENDBRANCH   5  13
BRANCH   4  16
ATOM     16  C   UNL     1       4.512   0.077  -0.438  0.00  0.00    +0.131 C 
BRANCH  16  18
ATOM     17  C   UNL     1       5.788  -1.710  -1.629  0.00  0.00    +0.009 C 
ATOM     18  C   UNL     1       4.721  -1.433  -0.569  0.00  0.00    +0.003 C 
ATOM     19  C   UNL     1       5.177  -2.003   0.776  0.00  0.00    +0.009 C 
ENDBRANCH  16  18
ENDBRANCH   4  16
ENDBRANCH   1   6
BRANCH   1  20
ATOM     20  C   UNL     1      -0.928  -0.403  -0.082  0.00  0.00    +0.117 C 
BRANCH  20  21
ATOM     21  C   UNL     1      -1.514  -1.202   1.084  0.00  0.00    +0.001 C 
ATOM     22  C   UNL     1      -2.584  -0.366   1.789  0.00  0.00    +0.009 C 
ATOM     23  C   UNL     1      -2.143  -2.492   0.553  0.00  0.00    +0.009 C 
ENDBRANCH  20  21
ENDBRANCH   1  20
BRANCH   2  24
ATOM     24  C   UNL     1      -0.132   3.211   0.898  0.00  0.00    +0.020 C 
BRANCH  24  26
ATOM     25  C   UNL     1      -1.902   4.268   2.169  0.00  0.00    -0.095 C 
ATOM     26  N   UNL     1      -1.083   4.341   0.940  0.00  0.00    +0.388 N 
ATOM     27  H   UNL     1      -1.703   4.287   0.123  0.00  0.00    -0.081 HD
BRANCH  26  28
ATOM     28  C   UNL     1      -0.347   5.622   0.899  0.00  0.00    -0.037 C 
ATOM     29  C   UNL     1       0.550   5.757   2.128  0.00  0.00    -0.010 C 
ATOM     30  C   UNL     1       1.122   7.180   2.155  0.00  0.00    +0.003 C 
ATOM     31  C   UNL     1      -0.013   8.149   2.480  0.00  0.00    +0.035 C 
ATOM     32  C   UNL     1      -1.189   7.912   1.568  0.00  0.00    -0.046 A 
ATOM     33  C   UNL     1      -1.344   6.750   0.846  0.00  0.00    -0.058 A 
ATOM     34  C   UNL     1      -2.455   6.593   0.028  0.00  0.00    +0.002 A 
ATOM     35  C   UNL     1      -3.402   7.591  -0.069  0.00  0.00    +0.000 A 
ATOM     36  C   UNL     1      -3.245   8.759   0.654  0.00  0.00    +0.000 A 
ATOM     37  C   UNL     1      -2.142   8.917   1.469  0.00  0.00    +0.004 A 
ENDBRANCH  26  28
ENDBRANCH  24  26
ENDBRANCH   2  24
TORSDOF 9
