REMARK  Name = ZINC39664331
REMARK  7 active torsions:
REMARK  status: ('A' for Active; 'I' for Inactive)
REMARK    1  A    between atoms: C_1  and  C_2
REMARK    2  A    between atoms: C_2  and  C_3
REMARK    3  A    between atoms: C_7  and  C_16
REMARK    4  A    between atoms: N_18  and  C_19
REMARK    5  A    between atoms: C_19  and  C_20
REMARK    6  A    between atoms: C_20  and  C_22
REMARK    7  A    between atoms: C_20  and  N_28
REMARK                            x       y       z     vdW  Elec       q    Type
REMARK                         _______ _______ _______ _____ _____    ______ ____
ROOT
ATOM      1  C   UNL     1      -0.735  -5.696  -1.366  0.00  0.00    +0.218 C 
ATOM      2  O   UNL     1      -0.287  -6.514  -2.141  0.00  0.00    -0.275 OA
ATOM      3  N   UNL     1      -0.796  -5.976  -0.050  0.00  0.00    -0.313 N 
ATOM      4  H   UNL     1      -1.154  -5.321   0.570  0.00  0.00    +0.149 HD
ENDROOT
BRANCH   1   9
ATOM      5  C   UNL     1      -1.219  -2.169  -4.756  0.00  0.00    +0.215 C 
ATOM      6  O   UNL     1      -2.133  -1.749  -5.435  0.00  0.00    -0.276 OA
ATOM      7  N   UNL     1      -1.391  -3.273  -4.003  0.00  0.00    -0.300 N 
ATOM      8  C   UNL     1      -0.405  -3.927  -3.111  0.00  0.00    +0.121 C 
ATOM      9  C   UNL     1      -1.225  -4.364  -1.876  0.00  0.00    +0.100 C 
ATOM     10  C   UNL     1      -2.670  -4.483  -2.387  0.00  0.00    -0.004 C 
ATOM     11  C   UNL     1      -2.613  -4.104  -3.874  0.00  0.00    +0.115 C 
ATOM     12  C   UNL     1      -3.577  -3.512  -1.636  0.00  0.00    -0.010 C 
ATOM     13  C   UNL     1      -5.019  -3.689  -2.121  0.00  0.00    -0.082 C 
ATOM     14  N   UNL     1      -5.449  -5.072  -1.887  0.00  0.00    +0.379 N 
ATOM     15  C   UNL     1      -4.631  -5.993  -2.686  0.00  0.00    -0.082 C 
ATOM     16  C   UNL     1      -3.173  -5.914  -2.225  0.00  0.00    -0.010 C 
ATOM     17  H   UNL     1      -5.346  -5.295  -0.909  0.00  0.00    -0.086 HD
ATOM     18  H   UNL     1      -6.418  -5.171  -2.151  0.00  0.00    -0.086 HD
BRANCH   5  20
ATOM     19  C   UNL     1       0.036  -0.244  -5.686  0.00  0.00    +0.013 C 
ATOM     20  C   UNL     1       0.108  -1.455  -4.755  0.00  0.00    +0.092 C 
ENDBRANCH   5  20
ENDBRANCH   1   9
BRANCH   3  21
ATOM     21  C   UNL     1      -0.320  -7.270   0.446  0.00  0.00    +0.127 C 
BRANCH  21  22
ATOM     22  C   UNL     1      -0.499  -7.332   1.964  0.00  0.00    +0.104 C 
BRANCH  22  23
ATOM     23  C   UNL     1       0.101  -8.610   2.490  0.00  0.00    -0.029 A 
ATOM     24  C   UNL     1      -0.626  -9.414   3.347  0.00  0.00    +0.005 A 
ATOM     25  C   UNL     1      -0.075 -10.587   3.829  0.00  0.00    +0.000 A 
ATOM     26  C   UNL     1       1.203 -10.956   3.453  0.00  0.00    +0.000 A 
ATOM     27  C   UNL     1       1.930 -10.152   2.595  0.00  0.00    +0.000 A 
ATOM     28  C   UNL     1       1.377  -8.982   2.110  0.00  0.00    +0.005 A 
ENDBRANCH  22  23
BRANCH  22  29
ATOM     29  N   UNL     1       0.175  -6.183   2.584  0.00  0.00    -0.290 NA
ATOM     30  C   UNL     1       1.622  -6.223   2.332  0.00  0.00    +0.113 C 
ATOM     31  C   UNL     1       2.276  -4.980   2.943  0.00  0.00    +0.175 C 
ATOM     32  O   UNL     1       1.970  -4.925   4.339  0.00  0.00    -0.377 OA
ATOM     33  C   UNL     1       0.569  -4.884   4.621  0.00  0.00    +0.175 C 
ATOM     34  C   UNL     1      -0.102  -6.126   4.027  0.00  0.00    +0.113 C 
ENDBRANCH  22  29
ENDBRANCH  21  22
ENDBRANCH   3  21
TORSDOF 6
