REMARK  Name = ZINC51580404
REMARK  7 active torsions:
REMARK  status: ('A' for Active; 'I' for Inactive)
REMARK    1  A    between atoms: C_1  and  C_2
REMARK    2  A    between atoms: C_5  and  C_17
REMARK    3  A    between atoms: C_6  and  O_8
REMARK    4  A    between atoms: O_8  and  C_9
REMARK    5  A    between atoms: C_14  and  O_15
REMARK    6  A    between atoms: O_15  and  C_16
REMARK    7  A    between atoms: N_18  and  O_19
REMARK                            x       y       z     vdW  Elec       q    Type
REMARK                         _______ _______ _______ _____ _____    ______ ____
ROOT
ATOM      1  C   UNL     1       0.064   1.500   0.005  0.00  0.00    +0.044 C 
ATOM      2  C   UNL     1      -0.054  -0.002   0.006  0.00  0.00    -0.047 A 
ATOM      3  C   UNL     1      -0.268  -0.677  -1.183  0.00  0.00    +0.004 A 
ATOM      4  C   UNL     1      -0.377  -2.051  -1.193  0.00  0.00    +0.015 A 
ATOM      5  C   UNL     1      -0.271  -2.766   0.000  0.00  0.00    +0.060 A 
ATOM      6  C   UNL     1      -0.054  -2.081   1.201  0.00  0.00    +0.139 A 
ATOM      7  C   UNL     1       0.059  -0.699   1.194  0.00  0.00    +0.050 A 
ENDROOT
BRANCH   5   8
ATOM      8  C   UNL     1      -0.387  -4.241  -0.004  0.00  0.00    +0.166 C 
ATOM      9  N   UNL     1      -0.288  -4.904   1.111  0.00  0.00    -0.071 NA
ATOM     10  N   UNL     1      -0.602  -4.915  -1.194  0.00  0.00    -0.340 N 
ATOM     11  H   UNL     1      -0.676  -4.420  -2.025  0.00  0.00    +0.144 HD
ATOM     12  H   UNL     1      -0.678  -5.882  -1.197  0.00  0.00    +0.144 HD
BRANCH   9  13
ATOM     13  O   UNL     1      -0.399  -6.316   1.107  0.00  0.00    -0.408 OA
ATOM     14  H   UNL     1      -0.312  -6.720   1.982  0.00  0.00    +0.328 HD
ENDBRANCH   9  13
ENDBRANCH   5   8
BRANCH   6  15
ATOM     15  O   UNL     1       0.050  -2.767   2.368  0.00  0.00    -0.452 OA
BRANCH  15  16
ATOM     16  C   UNL     1       0.156  -2.053   3.521  0.00  0.00    +0.170 A 
ATOM     17  C   UNL     1       1.405  -1.768   4.049  0.00  0.00    +0.050 A 
ATOM     18  C   UNL     1       1.511  -1.042   5.220  0.00  0.00    +0.004 A 
ATOM     19  C   UNL     1       0.372  -0.599   5.868  0.00  0.00    +0.004 A 
ATOM     20  C   UNL     1      -0.877  -0.880   5.347  0.00  0.00    +0.049 A 
ATOM     21  C   UNL     1      -0.990  -1.603   4.170  0.00  0.00    +0.162 A 
BRANCH  21  22
ATOM     22  O   UNL     1      -2.218  -1.875   3.653  0.00  0.00    -0.491 OA
ATOM     23  C   UNL     1      -3.349  -1.382   4.372  0.00  0.00    +0.277 C 
ENDBRANCH  21  22
ENDBRANCH  15  16
ENDBRANCH   6  15
TORSDOF 5
