REMARK  Name = ZINC24219000
REMARK  11 active torsions:
REMARK  status: ('A' for Active; 'I' for Inactive)
REMARK    1  A    between atoms: C_1  and  C_2
REMARK    2  A    between atoms: C_2  and  N_3
REMARK    3  A    between atoms: N_3  and  C_4
REMARK    4  A    between atoms: C_4  and  C_5
REMARK    5  A    between atoms: N_7  and  C_8
REMARK    6  A    between atoms: C_8  and  C_9
REMARK    7  A    between atoms: C_16  and  C_18
REMARK    8  A    between atoms: N_23  and  S_24
REMARK    9  A    between atoms: S_24  and  C_27
REMARK   10  A    between atoms: C_28  and  C_33
REMARK   11  A    between atoms: C_31  and  C_32
REMARK                            x       y       z     vdW  Elec       q    Type
REMARK                         _______ _______ _______ _____ _____    ______ ____
ROOT
ATOM      1  N   UNL     1       0.196   2.796  -1.767  0.00  0.00    -0.292 N 
ATOM      2  C   UNL     1      -0.835   2.913  -0.905  0.00  0.00    +0.235 C 
ATOM      3  O   UNL     1      -1.373   1.919  -0.466  0.00  0.00    -0.274 OA
ENDROOT
BRANCH   2   4
ATOM      4  C   UNL     1      -1.318   4.278  -0.489  0.00  0.00    +0.166 C 
ATOM      5  C   UNL     1      -0.738   4.656   0.896  0.00  0.00    +0.031 C 
ATOM      6  C   UNL     1      -1.782   5.688   1.400  0.00  0.00    +0.019 C 
ATOM      7  C   UNL     1      -3.111   5.134   0.845  0.00  0.00    +0.110 C 
ATOM      8  N   UNL     1      -2.780   4.267  -0.296  0.00  0.00    -0.165 NA
BRANCH   8   9
ATOM      9  S   UNL     1      -3.869   3.421  -1.212  0.00  0.00    +0.067 S 
ATOM     10  O   UNL     1      -3.128   2.429  -1.910  0.00  0.00    -0.153 OA
ATOM     11  O   UNL     1      -4.956   3.098  -0.356  0.00  0.00    -0.153 OA
BRANCH   9  12
ATOM     12  C   UNL     1      -4.497   4.528  -2.430  0.00  0.00    +0.170 A 
ATOM     13  C   UNL     1      -5.535   5.479  -2.289  0.00  0.00    +0.107 A 
ATOM     14  N   UNL     1      -5.652   6.067  -3.445  0.00  0.00    -0.081 NA
ATOM     15  O   UNL     1      -4.868   5.625  -4.252  0.00  0.00    -0.358 OA
ATOM     16  C   UNL     1      -4.103   4.662  -3.719  0.00  0.00    +0.161 A 
ATOM     17  C   UNL     1      -3.019   3.881  -4.416  0.00  0.00    +0.091 C 
ATOM     18  C   UNL     1      -6.341   5.758  -1.048  0.00  0.00    +0.071 C 
ENDBRANCH   9  12
ENDBRANCH   8   9
ENDBRANCH   2   4
BRANCH   1  20
ATOM     19  C   UNL     1       0.306   4.463  -3.553  0.00  0.00    +0.024 C 
ATOM     20  C   UNL     1       0.905   3.993  -2.226  0.00  0.00    +0.105 C 
ENDBRANCH   1  20
BRANCH   1  21
ATOM     21  C   UNL     1       0.602   1.474  -2.248  0.00  0.00    +0.203 C 
BRANCH  21  22
ATOM     22  C   UNL     1       1.646   0.901  -1.324  0.00  0.00    +0.231 C 
ATOM     23  O   UNL     1       2.014   1.536  -0.359  0.00  0.00    -0.274 OA
ATOM     24  N   UNL     1       2.170  -0.315  -1.571  0.00  0.00    -0.310 N 
ATOM     25  H   UNL     1       1.836  -0.891  -2.447  0.00  0.00    +0.149 HD
BRANCH  24  26
ATOM     26  C   UNL     1       3.185  -0.872  -0.673  0.00  0.00    +0.139 C 
BRANCH  26  27
ATOM     27  C   UNL     1       3.603  -2.232  -1.169  0.00  0.00    -0.030 A 
ATOM     28  C   UNL     1       2.937  -3.362  -0.731  0.00  0.00    +0.006 A 
ATOM     29  C   UNL     1       3.316  -4.609  -1.190  0.00  0.00    +0.020 A 
ATOM     30  C   UNL     1       4.370  -4.728  -2.078  0.00  0.00    +0.041 A 
ATOM     31  C   UNL     1       5.040  -3.598  -2.511  0.00  0.00    +0.020 A 
ATOM     32  C   UNL     1       4.656  -2.351  -2.056  0.00  0.00    +0.006 A 
ATOM     33 CL   UNL     1       4.851  -6.295  -2.649  0.00  0.00    -0.084 Cl
ENDBRANCH  26  27
ENDBRANCH  24  26
ENDBRANCH  21  22
ENDBRANCH   1  21
TORSDOF 8
