REMARK  Name = ZINC09318781
REMARK  1 active torsions:
REMARK  status: ('A' for Active; 'I' for Inactive)
REMARK    1  A    between atoms: C_9  and  C_12
REMARK                            x       y       z     vdW  Elec       q    Type
REMARK                         _______ _______ _______ _____ _____    ______ ____
ROOT
ATOM      1  C   UNL     1      -3.171   4.872   0.027  0.00  0.00    +0.216 C 
ATOM      2  N   UNL     1      -4.524   4.722   0.594  0.00  0.00    -0.293 N 
ATOM      3  C   UNL     1      -5.255   3.595   0.329  0.00  0.00    +0.183 C 
ATOM      4  N   UNL     1      -4.673   2.431   0.099  0.00  0.00    -0.183 NA
ATOM      5  C   UNL     1      -3.320   2.385   0.056  0.00  0.00    +0.236 A 
ATOM      6  N   UNL     1      -2.560   3.538   0.040  0.00  0.00    -0.285 N 
ATOM      7  C   UNL     1      -1.237   3.167   0.029  0.00  0.00    +0.072 A 
ATOM      8  C   UNL     1      -0.034   3.859   0.022  0.00  0.00    +0.028 A 
ATOM      9  C   UNL     1       1.159   3.168   0.008  0.00  0.00    +0.002 A 
ATOM     10  C   UNL     1       1.169   1.781   0.001  0.00  0.00    +0.002 A 
ATOM     11  C   UNL     1      -0.013   1.076   0.008  0.00  0.00    +0.030 A 
ATOM     12  C   UNL     1      -1.231   1.759   0.017  0.00  0.00    +0.091 A 
ATOM     13  N   UNL     1      -2.527   1.345   0.038  0.00  0.00    -0.210 NA
ATOM     14  N   UNL     1      -6.621   3.676   0.303  0.00  0.00    -0.331 N 
ATOM     15  H   UNL     1      -4.896   5.421   1.154  0.00  0.00    +0.151 HD
ATOM     16  H   UNL     1      -7.150   2.884   0.117  0.00  0.00    +0.145 HD
ATOM     17  H   UNL     1      -7.060   4.524   0.471  0.00  0.00    +0.145 HD
ENDROOT
BRANCH   1  26
ATOM     18  C   UNL     1      -1.411   7.443  -5.390  0.00  0.00    +0.001 A 
ATOM     19  C   UNL     1      -2.655   7.316  -5.992  0.00  0.00    +0.004 A 
ATOM     20  C   UNL     1      -3.712   6.752  -5.311  0.00  0.00    +0.047 A 
ATOM     21  C   UNL     1      -3.537   6.305  -4.006  0.00  0.00    +0.138 A 
ATOM     22  C   UNL     1      -2.278   6.434  -3.399  0.00  0.00    +0.064 A 
ATOM     23  C   UNL     1      -1.216   7.006  -4.098  0.00  0.00    +0.015 A 
ATOM     24  C   UNL     1      -2.119   5.957  -2.011  0.00  0.00    +0.199 A 
ATOM     25  O   UNL     1      -1.052   6.046  -1.427  0.00  0.00    -0.287 OA
ATOM     26  C   UNL     1      -3.259   5.386  -1.387  0.00  0.00    +0.075 A 
ATOM     27  C   UNL     1      -4.419   5.311  -2.064  0.00  0.00    +0.206 A 
ATOM     28  O   UNL     1      -4.556   5.750  -3.319  0.00  0.00    -0.462 OA
ENDBRANCH   1  26
TORSDOF 1
