REMARK  Name = ZINC14170279
REMARK  5 active torsions:
REMARK  status: ('A' for Active; 'I' for Inactive)
REMARK    1  A    between atoms: C_1  and  C_2
REMARK    2  A    between atoms: C_7  and  C_8
REMARK    3  A    between atoms: C_8  and  S_9
REMARK    4  A    between atoms: S_9  and  C_10
REMARK    5  A    between atoms: C_10  and  C_11
REMARK                            x       y       z     vdW  Elec       q    Type
REMARK                         _______ _______ _______ _____ _____    ______ ____
ROOT
ATOM      1  C   UNL     1       1.118   2.005   0.002  0.00  0.00    +0.146 A 
ATOM      2  N   UNL     1      -0.016   1.327   0.009  0.00  0.00    -0.199 NA
ATOM      3  C   UNL     1       0.002  -0.004   0.002  0.00  0.00    +0.217 A 
ATOM      4  N   UNL     1       1.163  -0.651  -0.013  0.00  0.00    -0.181 NA
ATOM      5  C   UNL     1       2.301   0.034  -0.020  0.00  0.00    +0.217 A 
ATOM      6  N   UNL     1       2.275   1.365  -0.012  0.00  0.00    -0.199 NA
ATOM      7  N   UNL     1       3.509  -0.633  -0.034  0.00  0.00    -0.327 N 
ATOM      8  N   UNL     1      -1.183  -0.711   0.009  0.00  0.00    -0.327 N 
ATOM      9  H   UNL     1       3.527  -1.603  -0.039  0.00  0.00    +0.145 HD
ATOM     10  H   UNL     1       4.339  -0.132  -0.040  0.00  0.00    +0.145 HD
ATOM     11  H   UNL     1      -2.030  -0.238   0.019  0.00  0.00    +0.145 HD
ATOM     12  H   UNL     1      -1.169  -1.681   0.004  0.00  0.00    +0.145 HD
ENDROOT
BRANCH   1  13
ATOM     13  C   UNL     1       1.093   3.512   0.010  0.00  0.00    +0.145 C 
BRANCH  13  14
ATOM     14  S   UNL     1       1.099   4.108   1.723  0.00  0.00    -0.148 S 
BRANCH  14  15
ATOM     15  C   UNL     1       1.068   5.914   1.560  0.00  0.00    +0.104 C 
BRANCH  15  22
ATOM     16  C   UNL     1       3.571   6.558   2.849  0.00  0.00    +0.044 C 
ATOM     17  C   UNL     1       2.268   6.851   3.546  0.00  0.00    -0.046 A 
ATOM     18  C   UNL     1       2.270   7.428   4.803  0.00  0.00    +0.003 A 
ATOM     19  C   UNL     1       1.074   7.696   5.442  0.00  0.00    +0.000 A 
ATOM     20  C   UNL     1      -0.124   7.388   4.825  0.00  0.00    +0.000 A 
ATOM     21  C   UNL     1      -0.126   6.816   3.566  0.00  0.00    +0.005 A 
ATOM     22  C   UNL     1       1.070   6.543   2.929  0.00  0.00    -0.035 A 
ENDBRANCH  15  22
ENDBRANCH  14  15
ENDBRANCH  13  14
ENDBRANCH   1  13
TORSDOF 4
