REMARK  Name = ZINC51168254
REMARK  7 active torsions:
REMARK  status: ('A' for Active; 'I' for Inactive)
REMARK    1  A    between atoms: C_1  and  O_2
REMARK    2  A    between atoms: O_2  and  C_3
REMARK    3  A    between atoms: C_5  and  C_11
REMARK    4  A    between atoms: C_7  and  O_9
REMARK    5  A    between atoms: O_9  and  C_10
REMARK    6  A    between atoms: C_15  and  N_17
REMARK    7  A    between atoms: N_17  and  N_18
REMARK                            x       y       z     vdW  Elec       q    Type
REMARK                         _______ _______ _______ _____ _____    ______ ____
ROOT
ATOM      1  C   UNL     1      -2.546  -4.153   0.016  0.00  0.00    +0.162 A 
ATOM      2  N   UNL     1      -3.729  -4.751   0.019  0.00  0.00    -0.232 NA
ATOM      3  C   UNL     1      -3.825  -6.073   0.017  0.00  0.00    +0.050 A 
ATOM      4  C   UNL     1      -2.670  -6.830   0.012  0.00  0.00    +0.015 A 
ATOM      5  C   UNL     1      -1.438  -6.173   0.009  0.00  0.00    +0.139 A 
ATOM      6  N   UNL     1      -1.416  -4.845   0.006  0.00  0.00    -0.211 NA
ATOM      7  C   UNL     1      -3.019  -8.300   0.012  0.00  0.00    +0.041 C 
ATOM      8  C   UNL     1      -4.497  -8.364   0.453  0.00  0.00    +0.011 C 
ATOM      9  C   UNL     1      -5.033  -6.982   0.020  0.00  0.00    +0.056 C 
ENDROOT
BRANCH   1  12
ATOM     10  C   UNL     1      -1.200  -0.637   0.010  0.00  0.00    +0.124 A 
ATOM     11  C   UNL     1      -1.253  -2.022   0.009  0.00  0.00    +0.057 A 
ATOM     12  C   UNL     1      -2.486  -2.671   0.018  0.00  0.00    +0.026 A 
ATOM     13  C   UNL     1      -3.662  -1.924   0.028  0.00  0.00    +0.057 A 
ATOM     14  C   UNL     1      -3.603  -0.540   0.029  0.00  0.00    +0.124 A 
ATOM     15  C   UNL     1      -2.373   0.103   0.025  0.00  0.00    +0.091 A 
BRANCH  10  17
ATOM     16  C   UNL     1      -0.017   1.425   0.010  0.00  0.00    +0.277 C 
ATOM     17  O   UNL     1       0.002  -0.004   0.002  0.00  0.00    -0.495 OA
ENDBRANCH  10  17
BRANCH  14  18
ATOM     18  O   UNL     1      -4.750   0.189   0.038  0.00  0.00    -0.495 OA
ATOM     19  C   UNL     1      -4.614   1.612   0.039  0.00  0.00    +0.277 C 
ENDBRANCH  14  18
ENDBRANCH   1  12
BRANCH   5  20
ATOM     20  N   UNL     1      -0.256  -6.896   0.004  0.00  0.00    -0.267 N 
ATOM     21  H   UNL     1      -0.280  -7.866   0.003  0.00  0.00    +0.167 HD
BRANCH  20  22
ATOM     22  N   UNL     1       0.944  -6.243   0.001  0.00  0.00    -0.255 NA
ATOM     23  H   UNL     1       1.013  -5.609   0.782  0.00  0.00    +0.140 HD
ATOM     24  H   UNL     1       1.712  -6.898  -0.003  0.00  0.00    +0.140 HD
ENDBRANCH  20  22
ENDBRANCH   5  20
TORSDOF 5
