REMARK  Name = ZINC39666529
REMARK  11 active torsions:
REMARK  status: ('A' for Active; 'I' for Inactive)
REMARK    1  A    between atoms: C_1  and  C_2
REMARK    2  A    between atoms: C_3  and  C_12
REMARK    3  A    between atoms: C_7  and  O_8
REMARK    4  A    between atoms: O_8  and  C_9
REMARK    5  A    between atoms: C_9  and  C_11
REMARK    6  A    between atoms: C_16  and  C_25
REMARK    7  A    between atoms: N_27  and  C_28
REMARK    8  A    between atoms: C_28  and  C_29
REMARK    9  A    between atoms: C_29  and  C_31
REMARK   10  A    between atoms: C_29  and  O_32
REMARK   11  A    between atoms: O_32  and  C_33
REMARK                            x       y       z     vdW  Elec       q    Type
REMARK                         _______ _______ _______ _____ _____    ______ ____
ROOT
ATOM      1  C   UNL     1       0.105  -0.067  -2.558  0.00  0.00    +0.247 C 
ATOM      2  O   UNL     1       0.202   1.139  -2.678  0.00  0.00    -0.270 OA
ATOM      3  N   UNL     1      -0.182  -0.830  -3.631  0.00  0.00    -0.296 N 
ATOM      4  C   UNL     1      -0.462  -2.285  -3.661  0.00  0.00    +0.121 C 
ATOM      5  C   UNL     1      -1.600  -2.441  -4.695  0.00  0.00    +0.100 C 
ATOM      6  C   UNL     1      -1.479  -1.205  -5.602  0.00  0.00    -0.004 C 
ATOM      7  C   UNL     1      -0.293  -0.403  -5.046  0.00  0.00    +0.115 C 
ATOM      8  C   UNL     1      -2.753  -0.369  -5.530  0.00  0.00    -0.010 C 
ATOM      9  C   UNL     1      -2.631   0.823  -6.483  0.00  0.00    -0.082 C 
ATOM     10  N   UNL     1      -2.417   0.337  -7.852  0.00  0.00    +0.379 N 
ATOM     11  C   UNL     1      -1.143  -0.387  -7.933  0.00  0.00    -0.082 C 
ATOM     12  C   UNL     1      -1.202  -1.630  -7.041  0.00  0.00    -0.010 C 
ATOM     13  H   UNL     1      -3.171  -0.282  -8.109  0.00  0.00    -0.086 HD
ATOM     14  H   UNL     1      -2.398   1.121  -8.486  0.00  0.00    -0.086 HD
ENDROOT
BRANCH   1  17
ATOM     15  C   UNL     1      -0.791   1.306  -0.174  0.00  0.00    +0.048 C 
ATOM     16  C   UNL     1      -0.127  -0.043  -0.078  0.00  0.00    +0.004 A 
ATOM     17  C   UNL     1       0.302  -0.696  -1.234  0.00  0.00    +0.043 A 
ATOM     18  C   UNL     1       0.916  -1.945  -1.137  0.00  0.00    +0.013 A 
ATOM     19  C   UNL     1       1.098  -2.529   0.100  0.00  0.00    +0.004 A 
ATOM     20  C   UNL     1       0.673  -1.881   1.245  0.00  0.00    +0.047 A 
ATOM     21  C   UNL     1       0.065  -0.636   1.159  0.00  0.00    +0.135 A 
BRANCH  21  22
ATOM     22  O   UNL     1      -0.346  -0.001   2.288  0.00  0.00    -0.426 OA
BRANCH  22  23
ATOM     23  C   UNL     1       0.400   1.016   2.747  0.00  0.00    +0.309 C 
ATOM     24  O   UNL     1       1.452   1.282   2.214  0.00  0.00    -0.251 OA
ATOM     25  C   UNL     1      -0.073   1.826   3.926  0.00  0.00    +0.136 C 
ENDBRANCH  22  23
ENDBRANCH  21  22
ENDBRANCH   1  17
BRANCH   5  26
ATOM     26  C   UNL     1      -1.412  -3.703  -5.496  0.00  0.00    +0.218 C 
ATOM     27  O   UNL     1      -0.304  -4.178  -5.628  0.00  0.00    -0.275 OA
ATOM     28  N   UNL     1      -2.475  -4.305  -6.066  0.00  0.00    -0.312 N 
ATOM     29  H   UNL     1      -3.361  -3.925  -5.960  0.00  0.00    +0.149 HD
BRANCH  28  30
ATOM     30  C   UNL     1      -2.292  -5.532  -6.845  0.00  0.00    +0.148 C 
BRANCH  30  31
ATOM     31  C   UNL     1      -3.646  -6.005  -7.377  0.00  0.00    +0.187 C 
ATOM     32  C   UNL     1      -3.455  -7.287  -8.191  0.00  0.00    +0.053 C 
BRANCH  31  33
ATOM     33  O   UNL     1      -4.525  -6.263  -6.281  0.00  0.00    -0.486 OA
BRANCH  33  34
ATOM     34  C   UNL     1      -5.859  -6.181  -6.527  0.00  0.00    +0.139 A 
ATOM     35  C   UNL     1      -6.316  -5.967  -7.819  0.00  0.00    +0.047 A 
ATOM     36  C   UNL     1      -7.672  -5.883  -8.067  0.00  0.00    +0.004 A 
ATOM     37  C   UNL     1      -8.576  -6.013  -7.028  0.00  0.00    +0.002 A 
ATOM     38  C   UNL     1      -8.124  -6.225  -5.739  0.00  0.00    +0.023 A 
ATOM     39  C   UNL     1      -6.768  -6.316  -5.486  0.00  0.00    +0.083 A 
ATOM     40 CL   UNL     1      -6.202  -6.590  -3.868  0.00  0.00    -0.080 Cl
ENDBRANCH  33  34
ENDBRANCH  31  33
ENDBRANCH  30  31
ENDBRANCH  28  30
ENDBRANCH   5  26
TORSDOF 8
