REMARK  Name = ZINC42952396
REMARK  9 active torsions:
REMARK  status: ('A' for Active; 'I' for Inactive)
REMARK    1  A    between atoms: C_1  and  C_2
REMARK    2  A    between atoms: C_2  and  C_3
REMARK    3  A    between atoms: C_3  and  C_5
REMARK    4  A    between atoms: C_3  and  N_24
REMARK    5  A    between atoms: C_5  and  C_7
REMARK    6  A    between atoms: C_5  and  N_14
REMARK    7  A    between atoms: C_19  and  C_21
REMARK    8  A    between atoms: C_21  and  C_22
REMARK    9  A    between atoms: C_22  and  O_23
REMARK                            x       y       z     vdW  Elec       q    Type
REMARK                         _______ _______ _______ _____ _____    ______ ____
ROOT
ATOM      1  C   UNL     1      -1.026  -1.784  -0.362  0.00  0.00    +0.073 C 
ENDROOT
BRANCH   1   2
ATOM      2  C   UNL     1      -0.103  -2.221   0.746  0.00  0.00    -0.032 A 
ATOM      3  C   UNL     1       1.260  -2.018   0.631  0.00  0.00    +0.006 A 
ATOM      4  C   UNL     1       2.106  -2.418   1.647  0.00  0.00    +0.015 A 
ATOM      5  C   UNL     1       1.590  -3.022   2.780  0.00  0.00    +0.018 A 
ATOM      6  C   UNL     1       0.226  -3.224   2.895  0.00  0.00    +0.015 A 
ATOM      7  C   UNL     1      -0.620  -2.819   1.880  0.00  0.00    +0.006 A 
ATOM      8 BR   UNL     1       2.748  -3.570   4.171  0.00  0.00    -0.050 Br
ENDBRANCH   1   2
BRANCH   1   9
ATOM      9  N   UNL     1      -0.525  -2.294  -1.646  0.00  0.00    -0.294 NA
ATOM     10  C   UNL     1       0.207  -3.554  -1.462  0.00  0.00    +0.085 C 
ATOM     11  C   UNL     1       0.836  -3.978  -2.792  0.00  0.00    +0.015 C 
ATOM     12  C   UNL     1      -0.267  -4.155  -3.839  0.00  0.00    +0.003 C 
ATOM     13  C   UNL     1      -1.045  -2.843  -3.976  0.00  0.00    +0.019 C 
ATOM     14  C   UNL     1      -1.619  -2.451  -2.612  0.00  0.00    +0.059 C 
BRANCH  14  15
ATOM     15  C   UNL     1      -2.381  -1.131  -2.740  0.00  0.00    +0.046 C 
BRANCH  15  16
ATOM     16  C   UNL     1      -3.479  -1.275  -3.796  0.00  0.00    +0.157 C 
BRANCH  16  17
ATOM     17  O   UNL     1      -4.122  -0.014  -3.990  0.00  0.00    -0.395 OA
ATOM     18  H   UNL     1      -4.831  -0.031  -4.647  0.00  0.00    +0.209 HD
ENDBRANCH  16  17
ENDBRANCH  15  16
ENDBRANCH  14  15
ENDBRANCH   1   9
BRANCH   1  19
ATOM     19  C   UNL     1      -1.081  -0.256  -0.407  0.00  0.00    -0.053 C 
BRANCH  19  20
ATOM     20  N   UNL     1      -1.444   0.261   0.919  0.00  0.00    +0.381 N 
ATOM     21  H   UNL     1      -0.754  -0.031   1.594  0.00  0.00    -0.090 HD
ATOM     22  H   UNL     1      -1.481   1.268   0.889  0.00  0.00    -0.090 HD
ATOM     23  H   UNL     1      -2.348  -0.101   1.185  0.00  0.00    -0.090 HD
ENDBRANCH  19  20
BRANCH  19  25
ATOM     24  C   UNL     1       0.194   1.806  -1.012  0.00  0.00    +0.002 C 
ATOM     25  C   UNL     1       0.289   0.293  -0.810  0.00  0.00    -0.018 C 
ENDBRANCH  19  25
ENDBRANCH   1  19
TORSDOF 8
