REMARK  Name = ZINC02369161
REMARK  5 active torsions:
REMARK  status: ('A' for Active; 'I' for Inactive)
REMARK    1  A    between atoms: C_1  and  C_2
REMARK    2  A    between atoms: C_2  and  O_3
REMARK    3  A    between atoms: O_3  and  C_4
REMARK    4  A    between atoms: C_7  and  N_10
REMARK    5  A    between atoms: C_14  and  C_15
REMARK                            x       y       z     vdW  Elec       q    Type
REMARK                         _______ _______ _______ _____ _____    ______ ____
ROOT
ATOM      1  N   UNL     1       1.442  -5.973  -1.663  0.00  0.00    -0.188 N 
ATOM      2  C   UNL     1       1.756  -6.453  -2.885  0.00  0.00    +0.264 C 
ATOM      3  O   UNL     1       1.869  -5.710  -3.843  0.00  0.00    -0.269 OA
ATOM      4  C   UNL     1       1.957  -7.906  -3.022  0.00  0.00    +0.102 C 
ATOM      5  C   UNL     1       2.284  -8.483  -4.247  0.00  0.00    +0.028 C 
ATOM      6  C   UNL     1       1.799  -8.719  -1.810  0.00  0.00    +0.276 C 
ATOM      7  O   UNL     1       1.967 -10.058  -1.849  0.00  0.00    -0.268 OA
ATOM      8  N   UNL     1       1.488  -8.109  -0.677  0.00  0.00    -0.123 NA
ATOM      9  C   UNL     1       1.322  -6.791  -0.608  0.00  0.00    +0.340 C 
ATOM     10  O   UNL     1       1.042  -6.302   0.472  0.00  0.00    -0.250 OA
ENDROOT
BRANCH   5  11
ATOM     11  C   UNL     1       2.266  -9.883  -4.393  0.00  0.00    +0.001 A 
ATOM     12  C   UNL     1       1.274 -10.753  -3.966  0.00  0.00    +0.091 A 
ATOM     13  N   UNL     1       1.615 -12.013  -4.285  0.00  0.00    -0.360 N 
ATOM     14  H   UNL     1       1.076 -12.796  -4.088  0.00  0.00    +0.165 HD
ATOM     15  C   UNL     1       2.835 -12.044  -4.932  0.00  0.00    +0.047 A 
ATOM     16  C   UNL     1       3.297 -10.723  -5.037  0.00  0.00    +0.008 A 
ATOM     17  C   UNL     1       4.513 -10.454  -5.656  0.00  0.00    +0.025 A 
ATOM     18  C   UNL     1       5.261 -11.492  -6.171  0.00  0.00    +0.019 A 
ATOM     19  C   UNL     1       4.805 -12.798  -6.073  0.00  0.00    +0.017 A 
ATOM     20  C   UNL     1       3.606 -13.078  -5.453  0.00  0.00    +0.027 A 
ATOM     21 BR   UNL     1       6.915 -11.133  -7.015  0.00  0.00    -0.050 Br
ENDBRANCH   5  11
BRANCH   1  25
ATOM     22  C   UNL     1       0.848  -1.875  -1.158  0.00  0.00    +0.121 A 
ATOM     23  C   UNL     1      -0.233  -2.706  -1.409  0.00  0.00    +0.047 A 
ATOM     24  C   UNL     1      -0.038  -4.063  -1.577  0.00  0.00    +0.027 A 
ATOM     25  C   UNL     1       1.242  -4.595  -1.494  0.00  0.00    +0.046 A 
ATOM     26  C   UNL     1       2.324  -3.762  -1.242  0.00  0.00    +0.027 A 
ATOM     27  C   UNL     1       2.128  -2.405  -1.081  0.00  0.00    +0.047 A 
BRANCH  22  28
ATOM     28  O   UNL     1       0.655  -0.539  -0.994  0.00  0.00    -0.492 OA
BRANCH  28  30
ATOM     29  C   UNL     1      -0.707   1.454  -0.877  0.00  0.00    +0.048 C 
ATOM     30  C   UNL     1      -0.689  -0.062  -1.087  0.00  0.00    +0.225 C 
ENDBRANCH  28  30
ENDBRANCH  22  28
ENDBRANCH   1  25
TORSDOF 4
