REMARK  Name = ZINC63723535
REMARK  7 active torsions:
REMARK  status: ('A' for Active; 'I' for Inactive)
REMARK    1  A    between atoms: C_1  and  C_2
REMARK    2  A    between atoms: C_3  and  C_8
REMARK    3  A    between atoms: C_8  and  C_9
REMARK    4  A    between atoms: N_15  and  C_18
REMARK    5  A    between atoms: C_18  and  C_19
REMARK    6  A    between atoms: C_18  and  C_20
REMARK    7  A    between atoms: C_18  and  C_21
REMARK                            x       y       z     vdW  Elec       q    Type
REMARK                         _______ _______ _______ _____ _____    ______ ____
ROOT
ATOM      1  C   UNL     1       1.256  -0.327  -4.267  0.00  0.00    +0.220 C 
ATOM      2  O   UNL     1       2.122  -0.752  -3.532  0.00  0.00    -0.275 OA
ATOM      3  N   UNL     1       1.591   0.383  -5.363  0.00  0.00    -0.303 N 
ATOM      4  C   UNL     1       0.516   0.894  -6.237  0.00  0.00    +0.106 C 
ATOM      5  C   UNL     1       0.817   2.331  -6.702  0.00  0.00    +0.000 C 
ATOM      6  C   UNL     1       1.414   3.117  -5.557  0.00  0.00    -0.076 C 
ATOM      7  N   UNL     1       2.872   3.044  -5.630  0.00  0.00    +0.384 N 
ATOM      8  C   UNL     1       3.447   1.936  -4.970  0.00  0.00    -0.059 C 
ATOM      9  C   UNL     1       2.993   0.623  -5.638  0.00  0.00    +0.089 C 
ATOM     10  H   UNL     1       3.140   3.009  -6.603  0.00  0.00    -0.081 HD
ENDROOT
BRANCH   7  11
ATOM     11  C   UNL     1       3.427   4.272  -5.046  0.00  0.00    -0.074 C 
ATOM     12  C   UNL     1       2.903   4.439  -3.618  0.00  0.00    -0.010 C 
ATOM     13  C   UNL     1       4.954   4.179  -5.021  0.00  0.00    -0.010 C 
ATOM     14  C   UNL     1       3.003   5.476  -5.889  0.00  0.00    -0.010 C 
ENDBRANCH   7  11
BRANCH   1  15
ATOM     15  C   UNL     1      -0.194  -0.592  -3.956  0.00  0.00    +0.140 C 
BRANCH  15  18
ATOM     16  C   UNL     1      -0.419   0.482  -1.052  0.00  0.00    +0.066 C 
ATOM     17  C   UNL     1      -0.396  -0.983  -1.403  0.00  0.00    +0.050 A 
ATOM     18  C   UNL     1      -0.296  -1.400  -2.688  0.00  0.00    +0.022 A 
ATOM     19  S   UNL     1      -0.320  -3.172  -2.467  0.00  0.00    -0.064 S 
ATOM     20  C   UNL     1      -0.452  -3.195  -0.789  0.00  0.00    +0.146 A 
ATOM     21  S   UNL     1      -0.540  -4.590   0.283  0.00  0.00    -0.023 SA
ATOM     22  N   UNL     1      -0.467  -1.917  -0.472  0.00  0.00    -0.237 NA
ENDBRANCH  15  18
ENDBRANCH   1  15
TORSDOF 3
