REMARK  Name = ZINC09465083
REMARK  7 active torsions:
REMARK  status: ('A' for Active; 'I' for Inactive)
REMARK    1  A    between atoms: C_6  and  C_7
REMARK    2  A    between atoms: C_7  and  S_8
REMARK    3  A    between atoms: S_8  and  C_9
REMARK    4  A    between atoms: C_9  and  C_10
REMARK    5  A    between atoms: C_10  and  O_12
REMARK    6  A    between atoms: O_12  and  C_13
REMARK    7  A    between atoms: C_13  and  C_14
REMARK                            x       y       z     vdW  Elec       q    Type
REMARK                         _______ _______ _______ _____ _____    ______ ____
ROOT
ATOM      1  O   UNL     1      -0.012   1.079  -5.316  0.00  0.00    -0.456 OA
ENDROOT
BRANCH   1   2
ATOM      2  C   UNL     1      -0.557   1.455  -4.149  0.00  0.00    +0.317 C 
ATOM      3  O   UNL     1      -1.553   2.139  -4.140  0.00  0.00    -0.250 OA
BRANCH   2   4
ATOM      4  C   UNL     1       0.072   1.024  -2.849  0.00  0.00    +0.189 C 
BRANCH   4   5
ATOM      5  S   UNL     1      -0.890   1.687  -1.462  0.00  0.00    -0.145 S 
BRANCH   5   6
ATOM      6  C   UNL     1      -0.013   1.086   0.008  0.00  0.00    +0.104 C 
BRANCH   6  12
ATOM      7  C   UNL     1      -0.360   2.779   1.818  0.00  0.00    +0.006 A 
ATOM      8  C   UNL     1      -1.009   3.228   2.953  0.00  0.00    +0.022 A 
ATOM      9  C   UNL     1      -2.011   2.465   3.524  0.00  0.00    +0.059 A 
ATOM     10  C   UNL     1      -2.367   1.253   2.956  0.00  0.00    +0.060 A 
ATOM     11  C   UNL     1      -1.720   0.808   1.817  0.00  0.00    +0.026 A 
ATOM     12  C   UNL     1      -0.718   1.572   1.248  0.00  0.00    -0.036 A 
ATOM     13 CL   UNL     1      -3.625   0.294   3.671  0.00  0.00    -0.082 Cl
ATOM     14 CL   UNL     1      -2.823   3.026   4.952  0.00  0.00    -0.082 Cl
ENDBRANCH   6  12
ENDBRANCH   5   6
ENDBRANCH   4   5
ENDBRANCH   2   4
ENDBRANCH   1   2
BRANCH   1  15
ATOM     15  C   UNL     1      -0.671   1.530  -6.528  0.00  0.00    +0.308 C 
BRANCH  15  16
ATOM     16  C   UNL     1       0.077   1.015  -7.730  0.00  0.00    +0.173 A 
ATOM     17  N   UNL     1       1.050   1.736  -8.259  0.00  0.00    -0.196 NA
ATOM     18  C   UNL     1       1.716   1.282  -9.318  0.00  0.00    +0.217 A 
ATOM     19  N   UNL     1       1.397   0.106  -9.848  0.00  0.00    -0.181 NA
ATOM     20  C   UNL     1       0.415  -0.614  -9.316  0.00  0.00    +0.217 A 
ATOM     21  N   UNL     1      -0.244  -0.155  -8.254  0.00  0.00    -0.196 NA
ATOM     22  N   UNL     1       0.079  -1.835  -9.863  0.00  0.00    -0.327 N 
ATOM     23  N   UNL     1       2.735   2.033  -9.868  0.00  0.00    -0.327 N 
ATOM     24  H   UNL     1      -0.638  -2.360  -9.474  0.00  0.00    +0.145 HD
ATOM     25  H   UNL     1       0.559  -2.169 -10.637  0.00  0.00    +0.145 HD
ATOM     26  H   UNL     1       3.218   1.703 -10.642  0.00  0.00    +0.145 HD
ATOM     27  H   UNL     1       2.968   2.891  -9.480  0.00  0.00    +0.145 HD
ENDBRANCH  15  16
ENDBRANCH   1  15
TORSDOF 7
