REMARK  Name = ZINC39636094
REMARK  7 active torsions:
REMARK  status: ('A' for Active; 'I' for Inactive)
REMARK    1  A    between atoms: C_1  and  C_2
REMARK    2  A    between atoms: C_12  and  O_13
REMARK    3  A    between atoms: O_13  and  C_14
REMARK    4  A    between atoms: C_14  and  C_15
REMARK    5  A    between atoms: C_19  and  C_28
REMARK    6  A    between atoms: N_30  and  C_31
REMARK    7  A    between atoms: C_37  and  C_39
REMARK                            x       y       z     vdW  Elec       q    Type
REMARK                         _______ _______ _______ _____ _____    ______ ____
ROOT
ATOM      1  C   UNL     1       0.124  -6.494   3.341  0.00  0.00    +0.253 C 
ATOM      2  O   UNL     1       0.101  -6.940   2.214  0.00  0.00    -0.272 OA
ATOM      3  N   UNL     1       0.125  -7.331   4.397  0.00  0.00    -0.297 N 
ATOM      4  C   UNL     1       0.145  -6.978   5.837  0.00  0.00    +0.121 C 
ATOM      5  C   UNL     1      -0.808  -7.996   6.502  0.00  0.00    +0.100 C 
ATOM      6  C   UNL     1      -0.828  -9.199   5.543  0.00  0.00    -0.004 C 
ATOM      7  C   UNL     1       0.100  -8.814   4.382  0.00  0.00    +0.115 C 
ATOM      8  C   UNL     1      -0.303 -10.445   6.249  0.00  0.00    -0.010 C 
ATOM      9  C   UNL     1      -0.387 -11.640   5.295  0.00  0.00    -0.082 C 
ATOM     10  N   UNL     1      -1.781 -11.839   4.879  0.00  0.00    +0.379 N 
ATOM     11  C   UNL     1      -2.248 -10.673   4.120  0.00  0.00    -0.082 C 
ATOM     12  C   UNL     1      -2.243  -9.438   5.024  0.00  0.00    -0.010 C 
ATOM     13  H   UNL     1      -1.843 -12.663   4.299  0.00  0.00    -0.086 HD
ATOM     14  H   UNL     1      -2.360 -11.962   5.696  0.00  0.00    -0.086 HD
ENDROOT
BRANCH   5  15
ATOM     15  C   UNL     1      -0.279  -8.406   7.852  0.00  0.00    +0.218 C 
ATOM     16  O   UNL     1       0.917  -8.472   8.040  0.00  0.00    -0.275 OA
ATOM     17  N   UNL     1      -1.135  -8.700   8.850  0.00  0.00    -0.312 N 
ATOM     18  H   UNL     1      -2.092  -8.648   8.700  0.00  0.00    +0.149 HD
BRANCH  17  19
ATOM     19  C   UNL     1      -0.621  -9.099  10.162  0.00  0.00    +0.076 C 
ATOM     20  C   UNL     1      -0.334 -10.602  10.163  0.00  0.00    +0.022 C 
ATOM     21  C   UNL     1      -1.625 -11.368   9.867  0.00  0.00    +0.002 C 
ATOM     22  C   UNL     1      -2.666 -11.047  10.942  0.00  0.00    +0.000 C 
ATOM     23  C   UNL     1      -2.952  -9.544  10.942  0.00  0.00    +0.005 C 
ATOM     24  C   UNL     1      -1.661  -8.778  11.237  0.00  0.00    +0.006 C 
ATOM     25  C   UNL     1      -1.948  -7.276  11.237  0.00  0.00    +0.009 C 
ENDBRANCH  17  19
ENDBRANCH   5  15
BRANCH   1  26
ATOM     26  C   UNL     1       0.153  -5.003   3.561  0.00  0.00    +0.324 C 
BRANCH  26  27
ATOM     27  O   UNL     1       0.146  -4.335   2.298  0.00  0.00    -0.479 OA
BRANCH  27  39
ATOM     28  C   UNL     1       0.209   1.397  -0.111  0.00  0.00    +0.045 C 
ATOM     29  C   UNL     1       0.184  -0.110  -0.102  0.00  0.00    -0.033 A 
ATOM     30  C   UNL     1       0.156  -0.814  -1.261  0.00  0.00    +0.096 A 
ATOM     31  C   UNL     1       0.133  -2.225  -1.224  0.00  0.00    +0.338 A 
ATOM     32  O   UNL     1       0.108  -2.846  -2.272  0.00  0.00    -0.245 OA
ATOM     33  O   UNL     1       0.138  -2.900  -0.065  0.00  0.00    -0.418 OA
ATOM     34  C   UNL     1       0.165  -2.259   1.124  0.00  0.00    +0.181 A 
ATOM     35  C   UNL     1       0.195  -0.855   1.161  0.00  0.00    +0.024 A 
ATOM     36  C   UNL     1       0.229  -0.189   2.391  0.00  0.00    +0.012 A 
ATOM     37  C   UNL     1       0.238  -0.915   3.560  0.00  0.00    +0.004 A 
ATOM     38  C   UNL     1       0.214  -2.302   3.526  0.00  0.00    +0.049 A 
ATOM     39  C   UNL     1       0.170  -2.976   2.319  0.00  0.00    +0.164 A 
ENDBRANCH  27  39
ENDBRANCH  26  27
ENDBRANCH   1  26
TORSDOF 5
