REMARK  Name = ZINC22330296
REMARK  10 active torsions:
REMARK  status: ('A' for Active; 'I' for Inactive)
REMARK    1  A    between atoms: C_1  and  C_2
REMARK    2  A    between atoms: C_2  and  C_3
REMARK    3  A    between atoms: C_3  and  C_4
REMARK    4  A    between atoms: C_11  and  N_18
REMARK    5  A    between atoms: C_12  and  C_13
REMARK    6  A    between atoms: C_13  and  O_15
REMARK    7  A    between atoms: O_15  and  C_16
REMARK    8  A    between atoms: C_16  and  C_17
REMARK    9  A    between atoms: C_19  and  C_21
REMARK   10  A    between atoms: C_21  and  C_22
REMARK                            x       y       z     vdW  Elec       q    Type
REMARK                         _______ _______ _______ _____ _____    ______ ____
ROOT
ATOM      1  C   UNL     1      -3.567   3.059  -7.632  0.00  0.00    -0.006 C 
ATOM      2  C   UNL     1      -2.112   3.075  -8.111  0.00  0.00    +0.008 C 
ATOM      3  C   UNL     1      -1.319   1.976  -7.401  0.00  0.00    +0.037 C 
ATOM      4  C   UNL     1      -1.524   2.117  -5.898  0.00  0.00    -0.021 A 
ATOM      5  C   UNL     1      -2.559   2.828  -5.401  0.00  0.00    -0.004 A 
ATOM      6  S   UNL     1      -2.390   2.705  -3.643  0.00  0.00    -0.077 S 
ATOM      7  C   UNL     1      -0.959   1.732  -3.566  0.00  0.00    +0.086 A 
ATOM      8  C   UNL     1      -0.650   1.518  -4.903  0.00  0.00    +0.091 A 
ATOM      9  C   UNL     1      -3.614   3.552  -6.179  0.00  0.00    +0.046 C 
ENDROOT
BRANCH   7  10
ATOM     10  N   UNL     1      -0.288   1.272  -2.443  0.00  0.00    -0.279 N 
ATOM     11  C   UNL     1      -0.742   1.585  -1.213  0.00  0.00    +0.218 C 
ATOM     12  O   UNL     1      -1.736   2.268  -1.088  0.00  0.00    -0.275 OA
ATOM     13  H   UNL     1       0.614   0.653  -2.556  0.00  0.00    +0.155 HD
BRANCH  11  14
ATOM     14  C   UNL     1      -0.013   1.086   0.008  0.00  0.00    +0.099 C 
BRANCH  14  15
ATOM     15  C   UNL     1      -0.729   1.579   1.267  0.00  0.00    -0.002 C 
ATOM     16  C   UNL     1      -0.587   3.111   1.389  0.00  0.00    +0.004 C 
ATOM     17  C   UNL     1      -0.426   3.357   2.910  0.00  0.00    +0.000 C 
ATOM     18  C   UNL     1       0.449   2.160   3.359  0.00  0.00    +0.000 C 
ATOM     19  C   UNL     1      -0.070   0.975   2.519  0.00  0.00    +0.004 C 
ENDBRANCH  14  15
ENDBRANCH  11  14
ENDBRANCH   7  10
BRANCH   8  20
ATOM     20  C   UNL     1       0.513   0.719  -5.296  0.00  0.00    +0.342 C 
ATOM     21  O   UNL     1       0.400  -0.481  -5.458  0.00  0.00    -0.245 OA
BRANCH  20  22
ATOM     22  O   UNL     1       1.710   1.314  -5.478  0.00  0.00    -0.461 OA
BRANCH  22  23
ATOM     23  C   UNL     1       2.818   0.461  -5.866  0.00  0.00    +0.229 C 
ATOM     24  C   UNL     1       4.083   1.307  -6.024  0.00  0.00    +0.048 C 
ENDBRANCH  22  23
ENDBRANCH  20  22
ENDBRANCH   8  20
BRANCH   1  25
ATOM     25  C   UNL     1      -4.407   3.984  -8.515  0.00  0.00    +0.003 C 
BRANCH  25  27
ATOM     26  C   UNL     1      -6.720   4.797  -8.998  0.00  0.00    +0.004 C 
ATOM     27  C   UNL     1      -5.879   3.872  -8.115  0.00  0.00    -0.003 C 
ENDBRANCH  25  27
ENDBRANCH   1  25
TORSDOF 8
