REMARK  Name = ZINC05808863
REMARK  7 active torsions:
REMARK  status: ('A' for Active; 'I' for Inactive)
REMARK    1  A    between atoms: C_4  and  C_7
REMARK    2  A    between atoms: C_7  and  C_15
REMARK    3  A    between atoms: N_8  and  N_9
REMARK    4  A    between atoms: C_10  and  C_12
REMARK    5  A    between atoms: C_12  and  C_13
REMARK    6  A    between atoms: C_15  and  C_16
REMARK    7  A    between atoms: C_16  and  O_28
REMARK                            x       y       z     vdW  Elec       q    Type
REMARK                         _______ _______ _______ _____ _____    ______ ____
ROOT
ATOM      1  C   UNL     1      -1.288  -0.771   0.129  0.00  0.00    +0.107 C 
ENDROOT
BRANCH   1   2
ATOM      2  C   UNL     1      -1.737  -1.315  -1.229  0.00  0.00    +0.174 C 
ATOM      3  C   UNL     1      -3.041  -2.067  -1.094  0.00  0.00    +0.017 A 
ATOM      4  C   UNL     1      -4.302  -1.689  -0.688  0.00  0.00    +0.029 A 
ATOM      5  C   UNL     1      -5.328  -2.618  -0.666  0.00  0.00    +0.043 A 
ATOM      6  C   UNL     1      -5.082  -3.924  -1.054  0.00  0.00    +0.042 A 
ATOM      7  C   UNL     1      -3.820  -4.304  -1.461  0.00  0.00    +0.064 A 
ATOM      8  C   UNL     1      -2.781  -3.373  -1.485  0.00  0.00    +0.058 A 
ATOM      9  N   UNL     1      -1.441  -3.510  -1.851  0.00  0.00    -0.281 N 
ATOM     10  C   UNL     1      -0.761  -2.357  -1.732  0.00  0.00    +0.254 C 
ATOM     11  O   UNL     1       0.414  -2.185  -1.979  0.00  0.00    -0.272 OA
ATOM     12 CL   UNL     1      -3.523  -5.945  -1.946  0.00  0.00    -0.082 Cl
ATOM     13 CL   UNL     1      -6.918  -2.147  -0.155  0.00  0.00    -0.083 Cl
ATOM     14  H   UNL     1      -1.046  -4.342  -2.158  0.00  0.00    +0.155 HD
BRANCH   2  15
ATOM     15  O   UNL     1      -1.865  -0.252  -2.175  0.00  0.00    -0.374 OA
ATOM     16  H   UNL     1      -2.147  -0.539  -3.055  0.00  0.00    +0.211 HD
ENDBRANCH   2  15
ENDBRANCH   1   2
BRANCH   1  17
ATOM     17  C   UNL     1       0.054  -0.103  -0.017  0.00  0.00    +0.070 C 
ATOM     18  N   UNL     1       1.142  -0.779   0.194  0.00  0.00    -0.184 NA
BRANCH  17  22
ATOM     19  C   UNL     1       0.279   3.992  -1.113  0.00  0.00    +0.000 A 
ATOM     20  C   UNL     1       1.170   3.083  -1.656  0.00  0.00    +0.001 A 
ATOM     21  C   UNL     1       1.103   1.751  -1.304  0.00  0.00    +0.010 A 
ATOM     22  C   UNL     1       0.133   1.320  -0.397  0.00  0.00    -0.002 A 
ATOM     23  C   UNL     1      -0.767   2.242   0.143  0.00  0.00    +0.010 A 
ATOM     24  C   UNL     1      -0.685   3.571  -0.214  0.00  0.00    +0.001 A 
ENDBRANCH  17  22
BRANCH  18  25
ATOM     25  N   UNL     1       2.381  -0.126   0.204  0.00  0.00    -0.206 N 
ATOM     26  C   UNL     1       3.505  -0.819   0.475  0.00  0.00    +0.246 C 
ATOM     27  O   UNL     1       3.444  -2.007   0.710  0.00  0.00    -0.273 OA
ATOM     28  H   UNL     1       2.431   0.824   0.017  0.00  0.00    +0.177 HD
BRANCH  26  29
ATOM     29  C   UNL     1       4.839  -0.117   0.487  0.00  0.00    +0.215 C 
BRANCH  29  30
ATOM     30  C   UNL     1       5.900  -1.085   0.806  0.00  0.00    +0.072 C 
ATOM     31  N   UNL     1       6.720  -1.832   1.053  0.00  0.00    -0.196 NA
ENDBRANCH  29  30
ENDBRANCH  26  29
ENDBRANCH  18  25
ENDBRANCH   1  17
TORSDOF 7
