REMARK  Name = ZINC48846835
REMARK  4 active torsions:
REMARK  status: ('A' for Active; 'I' for Inactive)
REMARK    1  A    between atoms: C_7  and  C_11
REMARK    2  A    between atoms: C_7  and  N_14
REMARK    3  A    between atoms: N_14  and  C_15
REMARK    4  A    between atoms: C_21  and  N_23
REMARK                            x       y       z     vdW  Elec       q    Type
REMARK                         _______ _______ _______ _____ _____    ______ ____
ROOT
ATOM      1  C   UNL     1      -0.475   0.858  -0.815  0.00  0.00    +0.001 A 
ATOM      2  C   UNL     1       0.647   1.587  -1.163  0.00  0.00    +0.004 A 
ATOM      3  C   UNL     1       1.886   0.980  -1.180  0.00  0.00    +0.046 A 
ATOM      4  C   UNL     1       2.010  -0.365  -0.846  0.00  0.00    +0.126 A 
ATOM      5  C   UNL     1       0.886  -1.091  -0.494  0.00  0.00    +0.025 A 
ATOM      6  C   UNL     1      -0.355  -0.476  -0.481  0.00  0.00    +0.009 A 
ATOM      7  C   UNL     1       0.979  -2.547  -0.113  0.00  0.00    +0.153 C 
ATOM      8  C   UNL     1       2.308  -3.125  -0.605  0.00  0.00    +0.080 C 
ATOM      9  C   UNL     1       3.433  -2.167  -0.190  0.00  0.00    +0.232 C 
ATOM     10  O   UNL     1       3.246  -0.929  -0.879  0.00  0.00    -0.492 OA
ENDROOT
BRANCH   7  11
ATOM     11  C   UNL     1      -0.161  -3.304  -0.746  0.00  0.00    +0.380 C 
ATOM     12  O   UNL     1      -0.281  -3.323  -1.959  0.00  0.00    -0.244 OA
ATOM     13  O   UNL     1      -0.963  -3.897  -0.044  0.00  0.00    -0.244 OA
ENDBRANCH   7  11
BRANCH   7  14
ATOM     14  N   UNL     1       0.899  -2.677   1.348  0.00  0.00    -0.296 NA
ATOM     15  H   UNL     1       0.990  -3.641   1.631  0.00  0.00    +0.123 HD
BRANCH  14  16
ATOM     16  C   UNL     1      -0.347  -2.093   1.861  0.00  0.00    +0.040 C 
ATOM     17  C   UNL     1      -0.075  -0.675   2.368  0.00  0.00    +0.017 C 
ATOM     18  C   UNL     1       0.965  -0.725   3.489  0.00  0.00    +0.001 C 
ATOM     19  C   UNL     1       0.435  -1.584   4.638  0.00  0.00    -0.001 C 
ATOM     20  C   UNL     1       0.163  -3.002   4.132  0.00  0.00    -0.015 C 
ATOM     21  C   UNL     1      -0.877  -2.952   3.011  0.00  0.00    -0.058 C 
BRANCH  21  22
ATOM     22  N   UNL     1      -1.139  -4.313   2.525  0.00  0.00    +0.381 N 
ATOM     23  H   UNL     1      -0.283  -4.714   2.172  0.00  0.00    -0.090 HD
ATOM     24  H   UNL     1      -1.488  -4.880   3.283  0.00  0.00    -0.090 HD
ATOM     25  H   UNL     1      -1.824  -4.280   1.785  0.00  0.00    -0.090 HD
ENDBRANCH  21  22
ENDBRANCH  14  16
ENDBRANCH   7  14
TORSDOF 4
