REMARK  Name = ZINC10850013
REMARK  12 active torsions:
REMARK  status: ('A' for Active; 'I' for Inactive)
REMARK    1  A    between atoms: C_1  and  C_2
REMARK    2  A    between atoms: C_2  and  C_3
REMARK    3  A    between atoms: C_2  and  C_4
REMARK    4  A    between atoms: C_4  and  C_5
REMARK    5  A    between atoms: C_5  and  C_7
REMARK    6  A    between atoms: C_5  and  N_21
REMARK    7  A    between atoms: C_7  and  O_9
REMARK    8  A    between atoms: O_9  and  C_10
REMARK    9  A    between atoms: C_10  and  C_12
REMARK   10  A    between atoms: C_10  and  C_15
REMARK   11  A    between atoms: C_12  and  C_13
REMARK   12  A    between atoms: C_12  and  C_14
REMARK                            x       y       z     vdW  Elec       q    Type
REMARK                         _______ _______ _______ _____ _____    ______ ____
ROOT
ATOM      1  C   UNL     1       1.519   2.157   4.272  0.00  0.00    +0.181 C 
ENDROOT
BRANCH   1   2
ATOM      2  N   UNL     1       2.330   3.312   4.669  0.00  0.00    -0.315 N 
ATOM      3  C   UNL     1       3.427   3.136   5.483  0.00  0.00    +0.150 C 
ATOM      4  N   UNL     1       3.813   1.945   5.814  0.00  0.00    -0.113 NA
ATOM      5  S   UNL     1       5.157   2.154   6.790  0.00  0.00    +0.101 S 
ATOM      6  O   UNL     1       6.289   1.665   6.086  0.00  0.00    -0.146 OA
ATOM      7  O   UNL     1       4.805   1.731   8.100  0.00  0.00    -0.146 OA
ATOM      8  C   UNL     1       5.251   3.924   6.801  0.00  0.00    +0.123 A 
ATOM      9  C   UNL     1       4.169   4.300   5.992  0.00  0.00    +0.043 A 
ATOM     10  C   UNL     1       3.959   5.673   5.793  0.00  0.00    +0.013 A 
ATOM     11  C   UNL     1       4.796   6.596   6.379  0.00  0.00    +0.001 A 
ATOM     12  C   UNL     1       5.855   6.195   7.173  0.00  0.00    +0.002 A 
ATOM     13  C   UNL     1       6.078   4.841   7.381  0.00  0.00    +0.030 A 
ATOM     14  H   UNL     1       2.094   4.200   4.358  0.00  0.00    +0.148 HD
ENDBRANCH   1   2
BRANCH   1  15
ATOM     15  C   UNL     1       0.840   2.448   2.959  0.00  0.00    +0.328 C 
ATOM     16  O   UNL     1       1.015   3.510   2.410  0.00  0.00    -0.249 OA
BRANCH  15  17
ATOM     17  O   UNL     1       0.041   1.526   2.399  0.00  0.00    -0.450 OA
BRANCH  17  18
ATOM     18  C   UNL     1      -0.581   1.874   1.133  0.00  0.00    +0.265 C 
BRANCH  18  19
ATOM     19  C   UNL     1      -1.906   1.167   1.014  0.00  0.00    +0.261 C 
ATOM     20  O   UNL     1      -2.249   0.373   1.863  0.00  0.00    -0.271 OA
ATOM     21  N   UNL     1      -2.711   1.419  -0.038  0.00  0.00    -0.237 N 
ATOM     22  C   UNL     1      -3.897   0.787  -0.145  0.00  0.00    +0.303 C 
ATOM     23  O   UNL     1      -4.240  -0.009   0.706  0.00  0.00    -0.253 OA
ATOM     24  N   UNL     1      -4.702   1.038  -1.196  0.00  0.00    -0.313 N 
ATOM     25  H   UNL     1      -2.437   2.055  -0.717  0.00  0.00    +0.159 HD
ATOM     26  H   UNL     1      -4.428   1.674  -1.876  0.00  0.00    +0.146 HD
ATOM     27  H   UNL     1      -5.555   0.584  -1.274  0.00  0.00    +0.146 HD
ENDBRANCH  18  19
BRANCH  18  28
ATOM     28  C   UNL     1       0.332   1.445  -0.018  0.00  0.00    +0.033 C 
ATOM     29  C   UNL     1       0.553  -0.067   0.043  0.00  0.00    +0.011 C 
ATOM     30  C   UNL     1       1.678   2.163   0.104  0.00  0.00    +0.011 C 
ENDBRANCH  18  28
ENDBRANCH  17  18
ENDBRANCH  15  17
ENDBRANCH   1  15
BRANCH   1  31
ATOM     31  C   UNL     1       0.462   1.884   5.344  0.00  0.00    +0.036 C 
BRANCH  31  33
ATOM     32  C   UNL     1       0.712  -0.590   5.102  0.00  0.00    +0.007 C 
ATOM     33  C   UNL     1      -0.270   0.581   5.018  0.00  0.00    -0.015 C 
ATOM     34  C   UNL     1      -1.404   0.368   6.022  0.00  0.00    +0.007 C 
ENDBRANCH  31  33
ENDBRANCH   1  31
TORSDOF 8
