REMARK  Name = ZINC61863884
REMARK  7 active torsions:
REMARK  status: ('A' for Active; 'I' for Inactive)
REMARK    1  A    between atoms: C_1  and  C_2
REMARK    2  A    between atoms: C_2  and  C_3
REMARK    3  A    between atoms: C_3  and  C_4
REMARK    4  A    between atoms: N_13  and  C_14
REMARK    5  A    between atoms: C_14  and  C_15
REMARK    6  A    between atoms: C_14  and  C_16
REMARK    7  A    between atoms: C_16  and  N_17
REMARK                            x       y       z     vdW  Elec       q    Type
REMARK                         _______ _______ _______ _____ _____    ______ ____
ROOT
ATOM      1  C   UNL     1      -0.870  -2.337  -0.053  0.00  0.00    -0.009 C 
ATOM      2  C   UNL     1      -2.292  -2.786  -0.377  0.00  0.00    +0.005 C 
ATOM      3  C   UNL     1      -2.257  -4.180  -0.953  0.00  0.00    +0.019 C 
ATOM      4  C   UNL     1      -2.421  -5.221   0.170  0.00  0.00    +0.109 C 
ATOM      5  N   UNL     1      -1.664  -4.854   1.383  0.00  0.00    -0.286 N 
ATOM      6  C   UNL     1      -0.322  -4.317   1.334  0.00  0.00    +0.109 C 
ATOM      7  C   UNL     1      -0.383  -2.772   1.265  0.00  0.00    +0.022 C 
ATOM      8  C   UNL     1      -2.247  -5.026   2.585  0.00  0.00    +0.302 C 
ATOM      9  O   UNL     1      -3.406  -5.388   2.652  0.00  0.00    -0.253 OA
ATOM     10  N   UNL     1      -1.546  -4.797   3.713  0.00  0.00    -0.295 N 
ATOM     11  H   UNL     1      -0.646  -4.441   3.661  0.00  0.00    +0.151 HD
ENDROOT
BRANCH  10  12
ATOM     12  C   UNL     1      -2.145  -5.086   5.019  0.00  0.00    +0.085 C 
ATOM     13  C   UNL     1      -1.850  -6.536   5.406  0.00  0.00    +0.029 C 
BRANCH  12  14
ATOM     14  C   UNL     1      -1.552  -4.146   6.071  0.00  0.00    +0.106 C 
BRANCH  14  15
ATOM     15  N   UNL     1      -1.748  -2.753   5.649  0.00  0.00    -0.296 NA
ATOM     16  C   UNL     1      -0.826  -1.853   6.357  0.00  0.00    +0.112 C 
ATOM     17  C   UNL     1      -1.023  -0.424   5.846  0.00  0.00    +0.175 C 
ATOM     18  O   UNL     1      -2.390  -0.044   6.021  0.00  0.00    -0.377 OA
ATOM     19  C   UNL     1      -3.316  -0.899   5.344  0.00  0.00    +0.175 C 
ATOM     20  C   UNL     1      -3.143  -2.333   5.850  0.00  0.00    +0.112 C 
ENDBRANCH  14  15
ENDBRANCH  12  14
ENDBRANCH  10  12
BRANCH   1  21
ATOM     21  C   UNL     1      -0.818  -0.809  -0.112  0.00  0.00    +0.003 C 
BRANCH  21  23
ATOM     22  C   UNL     1       0.691   1.182  -0.090  0.00  0.00    +0.004 C 
ATOM     23  C   UNL     1       0.638  -0.346  -0.032  0.00  0.00    -0.003 C 
ENDBRANCH  21  23
ENDBRANCH   1  21
TORSDOF 5
