REMARK  Name = ZINC12149099
REMARK  5 active torsions:
REMARK  status: ('A' for Active; 'I' for Inactive)
REMARK    1  A    between atoms: C_16  and  C_18
REMARK    2  A    between atoms: C_18  and  C_19
REMARK    3  A    between atoms: C_19  and  C_20
REMARK    4  A    between atoms: C_20  and  C_26
REMARK    5  A    between atoms: C_26  and  C_27
REMARK                            x       y       z     vdW  Elec       q    Type
REMARK                         _______ _______ _______ _____ _____    ______ ____
ROOT
ATOM      1  C   UNL     1      -0.668   2.519   3.545  0.00  0.00    +0.098 C 
ENDROOT
BRANCH   1  17
ATOM      2  C   UNL     1      -1.734   0.854  13.906  0.00  0.00    +0.002 A 
ATOM      3  C   UNL     1      -3.069   1.211  14.030  0.00  0.00    +0.001 A 
ATOM      4  C   UNL     1      -3.681   1.909  13.004  0.00  0.00    +0.017 A 
ATOM      5  C   UNL     1      -2.962   2.234  11.882  0.00  0.00    +0.041 A 
ATOM      6  C   UNL     1      -1.602   1.886  11.720  0.00  0.00    +0.080 A 
ATOM      7  C   UNL     1      -1.008   1.175  12.789  0.00  0.00    +0.029 A 
ATOM      8  N   UNL     1      -1.033   2.272  10.557  0.00  0.00    -0.225 NA
ATOM      9  C   UNL     1      -1.692   2.938   9.637  0.00  0.00    +0.162 A 
ATOM     10  S   UNL     1      -3.316   3.090  10.366  0.00  0.00    -0.052 S 
ATOM     11  N   UNL     1      -1.245   3.398   8.415  0.00  0.00    -0.307 N 
ATOM     12  C   UNL     1       0.168   3.056   8.208  0.00  0.00    +0.126 C 
ATOM     13  C   UNL     1       0.673   3.736   6.931  0.00  0.00    +0.126 C 
ATOM     14  N   UNL     1      -0.223   3.374   5.823  0.00  0.00    -0.298 N 
ATOM     15  C   UNL     1      -1.669   3.566   6.006  0.00  0.00    +0.126 C 
ATOM     16  C   UNL     1      -2.083   2.887   7.322  0.00  0.00    +0.126 C 
ATOM     17  C   UNL     1       0.269   2.884   4.667  0.00  0.00    +0.216 C 
ATOM     18  O   UNL     1       1.465   2.736   4.532  0.00  0.00    -0.276 OA
ENDBRANCH   1  17
BRANCH   1  19
ATOM     19  C   UNL     1       0.140   1.992   2.357  0.00  0.00    +0.035 C 
BRANCH  19  20
ATOM     20  C   UNL     1      -0.811   1.621   1.217  0.00  0.00    +0.039 C 
ATOM     21  C   UNL     1      -0.013   1.086   0.008  0.00  0.00    +0.035 C 
ATOM     22  C   UNL     1      -0.835   1.635  -1.181  0.00  0.00    +0.098 C 
ATOM     23  C   UNL     1      -1.541   2.847  -0.616  0.00  0.00    +0.214 C 
ATOM     24  O   UNL     1      -2.060   3.720  -1.279  0.00  0.00    -0.276 OA
ATOM     25  N   UNL     1      -1.508   2.817   0.727  0.00  0.00    -0.309 N 
ATOM     26  H   UNL     1      -1.895   3.498   1.300  0.00  0.00    +0.149 HD
BRANCH  20  27
ATOM     27  C   UNL     1      -1.823   0.575   1.689  0.00  0.00    +0.061 C 
BRANCH  27  28
ATOM     28  C   UNL     1      -2.768   0.247   0.563  0.00  0.00    -0.042 A 
ATOM     29  C   UNL     1      -2.466  -0.777  -0.315  0.00  0.00    +0.007 A 
ATOM     30  C   UNL     1      -3.331  -1.082  -1.350  0.00  0.00    +0.050 A 
ATOM     31  C   UNL     1      -4.503  -0.360  -1.510  0.00  0.00    +0.166 A 
ATOM     32  C   UNL     1      -4.807   0.671  -0.625  0.00  0.00    +0.166 A 
ATOM     33  C   UNL     1      -3.939   0.967   0.413  0.00  0.00    +0.053 A 
ATOM     34  O   UNL     1      -6.002   1.221  -0.990  0.00  0.00    -0.453 OA
ATOM     35  C   UNL     1      -6.622   0.253  -1.857  0.00  0.00    +0.466 C 
ATOM     36  O   UNL     1      -5.508  -0.457  -2.429  0.00  0.00    -0.453 OA
ENDBRANCH  27  28
ENDBRANCH  20  27
ENDBRANCH  19  20
ENDBRANCH   1  19
TORSDOF 5
