REMARK  Name = ZINC01683923
REMARK  4 active torsions:
REMARK  status: ('A' for Active; 'I' for Inactive)
REMARK    1  A    between atoms: C_1  and  S_2
REMARK    2  A    between atoms: S_2  and  C_3
REMARK    3  A    between atoms: C_5  and  C_10
REMARK    4  A    between atoms: C_7  and  N_9
REMARK                            x       y       z     vdW  Elec       q    Type
REMARK                         _______ _______ _______ _____ _____    ______ ____
ROOT
ATOM      1  C   UNL     1      -3.621   2.034   0.030  0.00  0.00    +0.190 A 
ATOM      2  N   UNL     1      -2.462   1.396   0.021  0.00  0.00    -0.217 NA
ATOM      3  C   UNL     1      -1.312   2.068   0.019  0.00  0.00    +0.131 A 
ATOM      4  C   UNL     1      -1.342   3.459   0.033  0.00  0.00    +0.076 A 
ATOM      5  C   UNL     1      -2.587   4.096   0.036  0.00  0.00    +0.121 A 
ATOM      6  N   UNL     1      -3.690   3.358   0.037  0.00  0.00    -0.207 NA
ENDROOT
BRANCH   3   7
ATOM      7  C   UNL     1      -0.016   1.344   0.009  0.00  0.00    +0.260 C 
ATOM      8  O   UNL     1       1.028   1.965   0.003  0.00  0.00    -0.269 OA
ATOM      9  N   UNL     1       0.002  -0.004   0.002  0.00  0.00    -0.324 N 
ATOM     10  H   UNL     1       0.849  -0.478  -0.009  0.00  0.00    +0.145 HD
ATOM     11  H   UNL     1      -0.831  -0.500   0.007  0.00  0.00    +0.145 HD
ENDBRANCH   3   7
BRANCH   5  12
ATOM     12  N   UNL     1      -2.667   5.479   0.043  0.00  0.00    -0.343 N 
ATOM     13  H   UNL     1      -3.534   5.914   0.049  0.00  0.00    +0.144 HD
ATOM     14  H   UNL     1      -1.857   6.012   0.042  0.00  0.00    +0.144 HD
ENDBRANCH   5  12
BRANCH   1  16
ATOM     15  C   UNL     1      -6.327   2.442   0.045  0.00  0.00    +0.093 C 
ATOM     16  S   UNL     1      -5.114   1.098   0.032  0.00  0.00    -0.089 S 
ENDBRANCH   1  16
TORSDOF 3
