REMARK  Name = ZINC31810476
REMARK  9 active torsions:
REMARK  status: ('A' for Active; 'I' for Inactive)
REMARK    1  A    between atoms: C_1  and  O_2
REMARK    2  A    between atoms: O_2  and  C_3
REMARK    3  A    between atoms: C_3  and  C_5
REMARK    4  A    between atoms: C_5  and  C_6
REMARK    5  A    between atoms: C_6  and  C_8
REMARK    6  A    between atoms: C_6  and  N_12
REMARK    7  A    between atoms: C_8  and  O_10
REMARK    8  A    between atoms: O_10  and  C_11
REMARK    9  A    between atoms: C_24  and  C_26
REMARK                            x       y       z     vdW  Elec       q    Type
REMARK                         _______ _______ _______ _____ _____    ______ ____
ROOT
ATOM      1  N   UNL     1       2.631  -2.085  -4.924  0.00  0.00    -0.286 N 
ATOM      2  C   UNL     1       1.306  -1.907  -4.756  0.00  0.00    +0.304 C 
ATOM      3  O   UNL     1       0.783  -2.188  -3.695  0.00  0.00    -0.253 OA
ATOM      4  N   UNL     1       0.559  -1.416  -5.766  0.00  0.00    -0.273 N 
ATOM      5  C   UNL     1      -0.865  -1.105  -5.569  0.00  0.00    +0.116 C 
ATOM      6  C   UNL     1      -1.710  -2.026  -6.457  0.00  0.00    +0.076 C 
ATOM      7  C   UNL     1      -1.097  -2.069  -7.835  0.00  0.00    +0.066 A 
ATOM      8  C   UNL     1       0.170  -1.698  -8.118  0.00  0.00    +0.064 A 
ATOM      9  N   UNL     1       0.355  -1.880  -9.453  0.00  0.00    -0.346 N 
ATOM     10  H   UNL     1       1.167  -1.702  -9.953  0.00  0.00    +0.167 HD
ATOM     11  C   UNL     1      -0.810  -2.357  -9.952  0.00  0.00    +0.197 A 
ATOM     12  N   UNL     1      -1.672  -2.466  -8.975  0.00  0.00    -0.240 NA
ATOM     13  C   UNL     1       1.150  -1.172  -7.094  0.00  0.00    +0.159 C 
ATOM     14  H   UNL     1       3.036  -1.927  -5.790  0.00  0.00    +0.151 HD
ENDROOT
BRANCH  13  15
ATOM     15  C   UNL     1       1.366   0.306  -7.295  0.00  0.00    +0.014 A 
ATOM     16  C   UNL     1       0.491   1.032  -8.082  0.00  0.00    +0.010 A 
ATOM     17  C   UNL     1       0.688   2.387  -8.266  0.00  0.00    +0.016 A 
ATOM     18  C   UNL     1       1.762   3.019  -7.665  0.00  0.00    +0.021 A 
ATOM     19  C   UNL     1       2.639   2.295  -6.878  0.00  0.00    +0.054 A 
ATOM     20  C   UNL     1       2.438   0.938  -6.688  0.00  0.00    +0.130 A 
ATOM     21  F   UNL     1       3.291   0.231  -5.915  0.00  0.00    -0.205 F 
ATOM     22 BR   UNL     1       2.031   4.874  -7.919  0.00  0.00    -0.050 Br
ENDBRANCH  13  15
BRANCH   1  23
ATOM     23  C   UNL     1       3.459  -2.519  -3.796  0.00  0.00    +0.194 C 
BRANCH  23  24
ATOM     24  C   UNL     1       3.870  -1.319  -2.983  0.00  0.00    +0.328 C 
ATOM     25  O   UNL     1       3.508  -0.214  -3.312  0.00  0.00    -0.249 OA
BRANCH  24  26
ATOM     26  O   UNL     1       4.639  -1.476  -1.894  0.00  0.00    -0.467 OA
ATOM     27  C   UNL     1       4.990  -0.295  -1.171  0.00  0.00    +0.280 C 
ENDBRANCH  24  26
ENDBRANCH  23  24
BRANCH  23  28
ATOM     28  C   UNL     1       4.708  -3.229  -4.324  0.00  0.00    +0.154 C 
BRANCH  28  29
ATOM     29  C   UNL     1       4.303  -4.496  -5.032  0.00  0.00    +0.309 C 
ATOM     30  O   UNL     1       3.136  -4.800  -5.107  0.00  0.00    -0.251 OA
BRANCH  29  32
ATOM     31  C   UNL     1       4.785  -6.472  -6.236  0.00  0.00    +0.280 C 
ATOM     32  O   UNL     1       5.240  -5.287  -5.580  0.00  0.00    -0.468 OA
ENDBRANCH  29  32
ENDBRANCH  28  29
ENDBRANCH  23  28
ENDBRANCH   1  23
TORSDOF 7
