REMARK  Name = ZINC08748675
REMARK  6 active torsions:
REMARK  status: ('A' for Active; 'I' for Inactive)
REMARK    1  A    between atoms: C_12  and  C_20
REMARK    2  A    between atoms: C_14  and  C_18
REMARK    3  A    between atoms: C_15  and  N_17
REMARK    4  A    between atoms: C_24  and  O_26
REMARK    5  A    between atoms: O_26  and  C_27
REMARK    6  A    between atoms: C_27  and  C_28
REMARK                            x       y       z     vdW  Elec       q    Type
REMARK                         _______ _______ _______ _____ _____    ______ ____
ROOT
ATOM      1  C   UNL     1       4.913  -1.508   1.282  0.00  0.00    +0.001 A 
ATOM      2  C   UNL     1       5.251  -2.731   1.844  0.00  0.00    +0.001 A 
ATOM      3  C   UNL     1       4.289  -3.715   1.982  0.00  0.00    +0.016 A 
ATOM      4  C   UNL     1       3.005  -3.455   1.553  0.00  0.00    +0.026 A 
ATOM      5  C   UNL     1       2.642  -2.224   0.981  0.00  0.00    +0.032 A 
ATOM      6  C   UNL     1       3.645  -1.244   0.856  0.00  0.00    +0.012 A 
ATOM      7  C   UNL     1       1.284  -1.914   0.513  0.00  0.00    +0.147 A 
ATOM      8  C   UNL     1       0.187  -2.702   0.542  0.00  0.00    +0.062 A 
ATOM      9  C   UNL     1       0.152  -4.030   1.050  0.00  0.00    +0.225 A 
ATOM     10  O   UNL     1      -0.868  -4.701   1.051  0.00  0.00    -0.280 OA
ATOM     11  S   UNL     1       1.698  -4.648   1.685  0.00  0.00    -0.047 S 
ATOM     12  C   UNL     1      -1.141  -2.195   0.014  0.00  0.00    +0.102 C 
ATOM     13  C   UNL     1      -1.167  -0.694   0.015  0.00  0.00    +0.098 C 
ATOM     14  C   UNL     1       0.002  -0.004   0.002  0.00  0.00    +0.199 C 
ATOM     15  O   UNL     1       1.173  -0.653  -0.013  0.00  0.00    -0.440 OA
ENDROOT
BRANCH  12  16
ATOM     16  C   UNL     1      -1.342  -2.699  -1.392  0.00  0.00    -0.031 A 
ATOM     17  C   UNL     1      -0.435  -2.365  -2.382  0.00  0.00    +0.005 A 
ATOM     18  C   UNL     1      -0.617  -2.826  -3.672  0.00  0.00    +0.004 A 
ATOM     19  C   UNL     1      -1.705  -3.622  -3.976  0.00  0.00    +0.045 A 
ATOM     20  C   UNL     1      -2.615  -3.958  -2.985  0.00  0.00    +0.121 A 
ATOM     21  C   UNL     1      -2.428  -3.498  -1.690  0.00  0.00    +0.050 A 
BRANCH  20  22
ATOM     22  O   UNL     1      -3.685  -4.742  -3.281  0.00  0.00    -0.483 OA
BRANCH  22  23
ATOM     23  C   UNL     1      -3.811  -5.184  -4.635  0.00  0.00    +0.324 C 
BRANCH  23  24
ATOM     24  C   UNL     1      -5.047  -6.034  -4.773  0.00  0.00    +0.248 C 
ATOM     25  O   UNL     1      -5.751  -6.242  -3.807  0.00  0.00    -0.272 OA
ATOM     26  N   UNL     1      -5.370  -6.564  -5.969  0.00  0.00    -0.327 N 
ATOM     27  H   UNL     1      -4.807  -6.398  -6.741  0.00  0.00    +0.145 HD
ATOM     28  H   UNL     1      -6.166  -7.112  -6.058  0.00  0.00    +0.145 HD
ENDBRANCH  23  24
ENDBRANCH  22  23
ENDBRANCH  20  22
ENDBRANCH  12  16
BRANCH  14  29
ATOM     29  N   UNL     1      -0.017   1.368   0.010  0.00  0.00    -0.328 N 
ATOM     30  H   UNL     1       0.817   1.865   0.004  0.00  0.00    +0.145 HD
ATOM     31  H   UNL     1      -0.863   1.842   0.016  0.00  0.00    +0.145 HD
ENDBRANCH  14  29
BRANCH  13  32
ATOM     32  C   UNL     1      -2.416   0.005   0.025  0.00  0.00    +0.101 C 
ATOM     33  N   UNL     1      -3.408   0.560   0.034  0.00  0.00    -0.191 NA
ENDBRANCH  13  32
TORSDOF 6
