REMARK  Name = ZINC22063677
REMARK  8 active torsions:
REMARK  status: ('A' for Active; 'I' for Inactive)
REMARK    1  A    between atoms: C_1  and  C_2
REMARK    2  A    between atoms: C_2  and  C_25
REMARK    3  A    between atoms: N_5  and  C_9
REMARK    4  A    between atoms: C_9  and  C_10
REMARK    5  A    between atoms: N_12  and  C_13
REMARK    6  A    between atoms: C_13  and  C_14
REMARK    7  A    between atoms: C_19  and  O_20
REMARK    8  A    between atoms: O_20  and  C_21
REMARK                            x       y       z     vdW  Elec       q    Type
REMARK                         _______ _______ _______ _____ _____    ______ ____
ROOT
ATOM      1  C   UNL     1      -4.179  -1.038  -1.414  0.00  0.00    +0.047 C 
ATOM      2  C   UNL     1      -3.692  -0.803   0.018  0.00  0.00    +0.135 C 
ATOM      3  C   UNL     1      -4.744  -0.074   0.830  0.00  0.00    +0.251 C 
ATOM      4  O   UNL     1      -5.197   1.030   0.619  0.00  0.00    -0.272 OA
ATOM      5  N   UNL     1      -5.070  -0.909   1.836  0.00  0.00    -0.215 N 
ATOM      6  C   UNL     1      -4.378  -2.052   1.773  0.00  0.00    +0.310 C 
ATOM      7  O   UNL     1      -4.499  -2.960   2.572  0.00  0.00    -0.252 OA
ATOM      8  N   UNL     1      -3.533  -2.084   0.727  0.00  0.00    -0.281 N 
ATOM      9  H   UNL     1      -2.818  -2.833   0.356  0.00  0.00    +0.152 HD
ENDROOT
BRANCH   2  10
ATOM     10  C   UNL     1      -2.397  -0.033   0.016  0.00  0.00    -0.012 A 
ATOM     11  C   UNL     1      -2.415   1.349   0.025  0.00  0.00    +0.010 A 
ATOM     12  C   UNL     1      -1.229   2.059   0.019  0.00  0.00    +0.050 A 
ATOM     13  C   UNL     1      -0.017   1.385   0.010  0.00  0.00    +0.162 A 
ATOM     14  C   UNL     1       0.002  -0.004   0.002  0.00  0.00    +0.162 A 
ATOM     15  C   UNL     1      -1.192  -0.710   0.004  0.00  0.00    +0.055 A 
ATOM     16  O   UNL     1       1.181  -0.685  -0.007  0.00  0.00    -0.485 OA
ATOM     17  C   UNL     1       2.347   0.053  -0.387  0.00  0.00    +0.270 C 
ATOM     18  C   UNL     1       2.334   1.392   0.364  0.00  0.00    +0.270 C 
ATOM     19  O   UNL     1       1.143   2.098   0.002  0.00  0.00    -0.485 OA
ENDBRANCH   2  10
BRANCH   5  20
ATOM     20  C   UNL     1      -6.061  -0.603   2.872  0.00  0.00    +0.213 C 
BRANCH  20  21
ATOM     21  C   UNL     1      -5.380   0.076   4.032  0.00  0.00    +0.231 C 
ATOM     22  O   UNL     1      -4.185   0.283   3.998  0.00  0.00    -0.274 OA
ATOM     23  N   UNL     1      -6.099   0.452   5.109  0.00  0.00    -0.310 N 
ATOM     24  H   UNL     1      -7.182   0.264   5.139  0.00  0.00    +0.149 HD
BRANCH  23  25
ATOM     25  C   UNL     1      -5.437   1.112   6.237  0.00  0.00    +0.143 C 
BRANCH  25  26
ATOM     26  C   UNL     1      -6.455   1.427   7.302  0.00  0.00    +0.012 A 
ATOM     27  C   UNL     1      -6.966   2.706   7.414  0.00  0.00    +0.009 A 
ATOM     28  C   UNL     1      -7.903   2.995   8.388  0.00  0.00    +0.001 A 
ATOM     29  C   UNL     1      -8.326   2.007   9.259  0.00  0.00    +0.004 A 
ATOM     30  C   UNL     1      -7.815   0.728   9.154  0.00  0.00    +0.046 A 
ATOM     31  C   UNL     1      -6.877   0.435   8.175  0.00  0.00    +0.135 A 
BRANCH  31  32
ATOM     32  O   UNL     1      -6.374  -0.823   8.070  0.00  0.00    -0.405 OA
BRANCH  32  33
ATOM     33  C   UNL     1      -6.854  -1.794   9.002  0.00  0.00    +0.575 C 
ATOM     34  F   UNL     1      -8.239  -1.931   8.861  0.00  0.00    -0.133 F 
ATOM     35  F   UNL     1      -6.236  -3.024   8.753  0.00  0.00    -0.133 F 
ATOM     36  F   UNL     1      -6.556  -1.377  10.304  0.00  0.00    -0.133 F 
ENDBRANCH  32  33
ENDBRANCH  31  32
ENDBRANCH  25  26
ENDBRANCH  23  25
ENDBRANCH  20  21
ENDBRANCH   5  20
TORSDOF 7
