REMARK  Name = ZINC32605479
REMARK  5 active torsions:
REMARK  status: ('A' for Active; 'I' for Inactive)
REMARK    1  A    between atoms: N_9  and  C_12
REMARK    2  A    between atoms: C_15  and  C_18
REMARK    3  A    between atoms: N_20  and  N_21
REMARK    4  A    between atoms: C_22  and  C_24
REMARK    5  A    between atoms: C_33  and  N_34
REMARK                            x       y       z     vdW  Elec       q    Type
REMARK                         _______ _______ _______ _____ _____    ______ ____
ROOT
ATOM      1  C   UNL     1      -3.021  -7.502   1.815  0.00  0.00    +0.260 C 
ATOM      2  O   UNL     1      -4.218  -7.558   2.019  0.00  0.00    -0.269 OA
ATOM      3  N   UNL     1      -2.372  -8.573   1.317  0.00  0.00    -0.230 N 
ATOM      4  H   UNL     1      -1.288  -8.522   1.133  0.00  0.00    +0.173 HD
ENDROOT
BRANCH   1   8
ATOM      5  C   UNL     1      -0.886  -3.932   2.673  0.00  0.00    +0.045 A 
ATOM      6  C   UNL     1      -0.215  -5.034   2.153  0.00  0.00    +0.025 A 
ATOM      7  C   UNL     1      -0.903  -6.195   1.879  0.00  0.00    +0.015 A 
ATOM      8  C   UNL     1      -2.279  -6.261   2.113  0.00  0.00    +0.038 A 
ATOM      9  C   UNL     1      -2.951  -5.151   2.630  0.00  0.00    +0.015 A 
ATOM     10  C   UNL     1      -2.256  -3.995   2.907  0.00  0.00    +0.025 A 
BRANCH   5  19
ATOM     11  C   UNL     1       2.704   0.794   3.662  0.00  0.00    +0.001 A 
ATOM     12  C   UNL     1       1.533   1.391   4.091  0.00  0.00    +0.001 A 
ATOM     13  C   UNL     1       0.337   0.690   4.068  0.00  0.00    +0.014 A 
ATOM     14  C   UNL     1       0.317  -0.618   3.612  0.00  0.00    +0.050 A 
ATOM     15  C   UNL     1       1.510  -1.227   3.175  0.00  0.00    +0.050 A 
ATOM     16  C   UNL     1       2.698  -0.514   3.204  0.00  0.00    +0.014 A 
ATOM     17  C   UNL     1       1.138  -2.597   2.764  0.00  0.00    +0.258 C 
ATOM     18  O   UNL     1       1.899  -3.438   2.327  0.00  0.00    -0.269 OA
ATOM     19  N   UNL     1      -0.184  -2.758   2.954  0.00  0.00    -0.202 N 
ATOM     20  C   UNL     1      -0.740  -1.639   3.451  0.00  0.00    +0.258 C 
ATOM     21  O   UNL     1      -1.915  -1.492   3.723  0.00  0.00    -0.269 OA
ENDBRANCH   5  19
ENDBRANCH   1   8
BRANCH   3  22
ATOM     22  N   UNL     1      -3.076  -9.750   1.034  0.00  0.00    -0.230 N 
ATOM     23  C   UNL     1      -2.426 -10.821   0.536  0.00  0.00    +0.263 C 
ATOM     24  O   UNL     1      -1.228 -10.765   0.332  0.00  0.00    -0.269 OA
ATOM     25  H   UNL     1      -4.159  -9.801   1.218  0.00  0.00    +0.173 HD
BRANCH  23  26
ATOM     26  C   UNL     1      -3.167 -12.058   0.238  0.00  0.00    +0.077 A 
ATOM     27  C   UNL     1      -4.566 -12.093   0.352  0.00  0.00    +0.126 A 
ATOM     28  N   UNL     1      -5.249 -13.177   0.090  0.00  0.00    -0.254 NA
ATOM     29  C   UNL     1      -4.655 -14.317  -0.292  0.00  0.00    +0.073 A 
ATOM     30  C   UNL     1      -5.414 -15.467  -0.562  0.00  0.00    +0.030 A 
ATOM     31  C   UNL     1      -4.792 -16.615  -0.948  0.00  0.00    +0.022 A 
ATOM     32  C   UNL     1      -3.406 -16.671  -1.081  0.00  0.00    +0.042 A 
ATOM     33  C   UNL     1      -2.637 -15.573  -0.828  0.00  0.00    +0.032 A 
ATOM     34  C   UNL     1      -3.248 -14.376  -0.429  0.00  0.00    +0.023 A 
ATOM     35  C   UNL     1      -2.481 -13.217  -0.157  0.00  0.00    +0.048 A 
ATOM     36 CL   UNL     1      -2.650 -18.153  -1.576  0.00  0.00    -0.084 Cl
BRANCH  35  37
ATOM     37  N   UNL     1      -1.109 -13.226  -0.276  0.00  0.00    -0.357 N 
ATOM     38  H   UNL     1      -0.591 -14.145  -0.587  0.00  0.00    +0.142 HD
ATOM     39  H   UNL     1      -0.532 -12.315  -0.060  0.00  0.00    +0.142 HD
ENDBRANCH  35  37
ENDBRANCH  23  26
ENDBRANCH   3  22
TORSDOF 5
