REMARK  Name = ZINC37042375
REMARK  9 active torsions:
REMARK  status: ('A' for Active; 'I' for Inactive)
REMARK    1  A    between atoms: C_1  and  C_2
REMARK    2  A    between atoms: C_2  and  C_4
REMARK    3  A    between atoms: C_2  and  N_14
REMARK    4  A    between atoms: C_15  and  C_17
REMARK    5  A    between atoms: C_17  and  C_19
REMARK    6  A    between atoms: C_17  and  N_23
REMARK    7  A    between atoms: C_19  and  C_20
REMARK    8  A    between atoms: C_20  and  C_21
REMARK    9  A    between atoms: C_20  and  C_22
REMARK                            x       y       z     vdW  Elec       q    Type
REMARK                         _______ _______ _______ _____ _____    ______ ____
ROOT
ATOM      1  N   UNL     1      -1.372  -0.511   0.012  0.00  0.00    -0.307 N 
ATOM      2  C   UNL     1      -2.051  -0.643  -1.145  0.00  0.00    +0.199 C 
ATOM      3  O   UNL     1      -1.524  -0.341  -2.194  0.00  0.00    -0.278 OA
ATOM      4  H   UNL     1      -1.794  -0.752   0.852  0.00  0.00    +0.149 HD
ENDROOT
BRANCH   1   6
ATOM      5  C   UNL     1      -0.019   1.526   0.010  0.00  0.00    +0.036 C 
ATOM      6  C   UNL     1       0.002  -0.004   0.002  0.00  0.00    +0.138 C 
BRANCH   6   7
ATOM      7  C   UNL     1       0.731  -0.503   1.223  0.00  0.00    +0.154 A 
ATOM      8  N   UNL     1       0.272  -0.524   2.446  0.00  0.00    -0.132 NA
ATOM      9  N   UNL     1       1.160  -1.023   3.234  0.00  0.00    -0.134 NA
ATOM     10  C   UNL     1       2.219  -1.346   2.549  0.00  0.00    +0.134 A 
ATOM     11  N   UNL     1       1.979  -1.019   1.257  0.00  0.00    -0.313 N 
ATOM     12  C   UNL     1       2.902  -1.180   0.133  0.00  0.00    +0.125 C 
ATOM     13  C   UNL     1       3.849  -2.350   0.415  0.00  0.00    +0.022 C 
ATOM     14  C   UNL     1       5.084  -1.844   1.158  0.00  0.00    +0.002 C 
ATOM     15  C   UNL     1       4.689  -1.233   2.499  0.00  0.00    +0.008 C 
ATOM     16  C   UNL     1       3.484  -1.977   3.070  0.00  0.00    +0.076 C 
ENDBRANCH   6   7
ENDBRANCH   1   6
BRANCH   2  17
ATOM     17  C   UNL     1      -3.465  -1.164  -1.134  0.00  0.00    +0.013 C 
BRANCH  17  18
ATOM     18  N   UNL     1      -3.813  -1.663  -2.471  0.00  0.00    +0.386 N 
ATOM     19  H   UNL     1      -3.736  -0.912  -3.141  0.00  0.00    -0.089 HD
ATOM     20  H   UNL     1      -3.182  -2.407  -2.727  0.00  0.00    -0.089 HD
ATOM     21  H   UNL     1      -4.759  -2.012  -2.464  0.00  0.00    -0.089 HD
ENDBRANCH  17  18
BRANCH  17  22
ATOM     22  C   UNL     1      -4.422  -0.036  -0.745  0.00  0.00    -0.004 C 
BRANCH  22  23
ATOM     23  C   UNL     1      -5.840  -0.593  -0.613  0.00  0.00    -0.018 C 
ATOM     24  C   UNL     1      -5.892  -1.586   0.550  0.00  0.00    +0.007 C 
ATOM     25  C   UNL     1      -6.817   0.555  -0.347  0.00  0.00    +0.007 C 
ENDBRANCH  22  23
ENDBRANCH  17  22
ENDBRANCH   2  17
TORSDOF 6
