REMARK  Name = ZINC12347477
REMARK  6 active torsions:
REMARK  status: ('A' for Active; 'I' for Inactive)
REMARK    1  A    between atoms: C_1  and  C_2
REMARK    2  A    between atoms: C_2  and  C_27
REMARK    3  A    between atoms: C_6  and  C_16
REMARK    4  A    between atoms: C_13  and  O_14
REMARK    5  A    between atoms: C_19  and  S_22
REMARK    6  A    between atoms: S_22  and  C_23
REMARK                            x       y       z     vdW  Elec       q    Type
REMARK                         _______ _______ _______ _____ _____    ______ ____
ROOT
ATOM      1  C   UNL     1      -3.320   0.781  -2.823  0.00  0.00    +0.011 C 
ATOM      2  C   UNL     1      -2.477   1.909  -3.422  0.00  0.00    -0.023 C 
ATOM      3  C   UNL     1      -2.359   3.054  -2.416  0.00  0.00    +0.058 C 
ATOM      4  C   UNL     1      -1.675   2.562  -1.161  0.00  0.00    +0.017 C 
ATOM      5  C   UNL     1      -0.743   1.586  -1.220  0.00  0.00    +0.024 C 
ATOM      6  C   UNL     1      -0.013   1.086   0.008  0.00  0.00    +0.092 C 
ATOM      7  C   UNL     1      -0.714   1.569   1.245  0.00  0.00    +0.067 A 
ATOM      8  C   UNL     1      -1.667   2.552   1.213  0.00  0.00    +0.126 A 
ATOM      9  N   UNL     1      -2.091   2.755   2.475  0.00  0.00    -0.260 N 
ATOM     10  H   UNL     1      -2.785   3.415   2.765  0.00  0.00    +0.190 HD
ATOM     11  N   UNL     1      -1.386   1.874   3.311  0.00  0.00    -0.134 NA
ATOM     12  C   UNL     1      -0.562   1.166   2.569  0.00  0.00    +0.237 A 
ATOM     13  N   UNL     1      -2.044   3.156   0.020  0.00  0.00    -0.303 N 
ATOM     14  C   UNL     1      -0.406   0.983  -2.445  0.00  0.00    +0.162 C 
ATOM     15  O   UNL     1       0.440   0.110  -2.464  0.00  0.00    -0.292 OA
ATOM     16  C   UNL     1      -1.068   1.391  -3.731  0.00  0.00    +0.086 C 
ATOM     17  C   UNL     1      -3.133   2.417  -4.708  0.00  0.00    +0.011 C 
ATOM     18  H   UNL     1      -2.558   3.979   0.021  0.00  0.00    +0.153 HD
ENDROOT
BRANCH   6  19
ATOM     19  C   UNL     1       1.401   1.607  -0.003  0.00  0.00    -0.035 A 
ATOM     20  C   UNL     1       1.635   2.970  -0.003  0.00  0.00    +0.005 A 
ATOM     21  C   UNL     1       2.929   3.450  -0.008  0.00  0.00    +0.015 A 
ATOM     22  C   UNL     1       3.998   2.563  -0.023  0.00  0.00    +0.008 A 
ATOM     23  C   UNL     1       3.760   1.194  -0.028  0.00  0.00    +0.015 A 
ATOM     24  C   UNL     1       2.463   0.720  -0.018  0.00  0.00    +0.005 A 
BRANCH  22  25
ATOM     25  S   UNL     1       5.652   3.171  -0.037  0.00  0.00    -0.129 S 
ATOM     26  C   UNL     1       5.455   4.975  -0.026  0.00  0.00    +0.090 C 
ENDBRANCH  22  25
ENDBRANCH   6  19
BRANCH  12  27
ATOM     27  O   UNL     1       0.290   0.206   3.018  0.00  0.00    -0.491 OA
ATOM     28  H   UNL     1       0.198   0.116   4.010  0.00  0.00    +0.294 HD
ENDBRANCH  12  27
TORSDOF 3
