REMARK  Name = ZINC31163120
REMARK  8 active torsions:
REMARK  status: ('A' for Active; 'I' for Inactive)
REMARK    1  A    between atoms: C_1  and  C_2
REMARK    2  A    between atoms: C_6  and  C_29
REMARK    3  A    between atoms: C_9  and  C_10
REMARK    4  A    between atoms: C_9  and  C_11
REMARK    5  A    between atoms: C_11  and  C_12
REMARK    6  A    between atoms: C_12  and  C_13
REMARK    7  A    between atoms: C_20  and  O_28
REMARK    8  A    between atoms: C_22  and  O_27
REMARK                            x       y       z     vdW  Elec       q    Type
REMARK                         _______ _______ _______ _____ _____    ______ ____
ROOT
ATOM      1  C   UNL     1       1.034  -1.728  -0.558  0.00  0.00    +0.008 C 
ATOM      2  C   UNL     1       1.004  -2.179   0.907  0.00  0.00    -0.008 C 
ATOM      3  C   UNL     1       0.947  -3.701   0.964  0.00  0.00    +0.004 C 
ATOM      4  C   UNL     1       0.891  -4.160   2.423  0.00  0.00    +0.010 C 
ATOM      5  C   UNL     1      -0.380  -3.620   3.074  0.00  0.00    +0.005 C 
ATOM      6  C   UNL     1      -0.412  -2.099   2.994  0.00  0.00    +0.007 C 
ATOM      7  C   UNL     1      -0.191  -1.532   1.607  0.00  0.00    -0.026 C 
ATOM      8  C   UNL     1      -1.432  -1.630   0.721  0.00  0.00    +0.012 C 
ATOM      9  C   UNL     1      -1.677  -1.564   3.659  0.00  0.00    +0.038 C 
ATOM     10  C   UNL     1      -1.684  -1.933   5.145  0.00  0.00    +0.146 C 
ATOM     11  C   UNL     1      -1.604  -3.448   5.335  0.00  0.00    +0.177 C 
ATOM     12  C   UNL     1      -0.402  -3.998   4.564  0.00  0.00    +0.126 C 
ATOM     13  C   UNL     1       0.926  -4.140   5.298  0.00  0.00    +0.199 C 
ATOM     14  O   UNL     1       0.122  -5.267   4.939  0.00  0.00    -0.365 OA
ATOM     15  C   UNL     1      -1.599  -4.271   2.418  0.00  0.00    +0.014 C 
ENDROOT
BRANCH  11  16
ATOM     16  O   UNL     1      -1.451  -3.744   6.727  0.00  0.00    -0.386 OA
ATOM     17  H   UNL     1      -1.375  -4.788   7.062  0.00  0.00    +0.210 HD
ENDBRANCH  11  16
BRANCH  10  18
ATOM     18  O   UNL     1      -2.888  -1.444   5.744  0.00  0.00    -0.389 OA
ATOM     19  H   UNL     1      -3.077  -1.612   6.814  0.00  0.00    +0.210 HD
ENDBRANCH  10  18
BRANCH   7  20
ATOM     20  C   UNL     1       0.147  -0.028   1.752  0.00  0.00    +0.012 C 
BRANCH  20  21
ATOM     21  C   UNL     1       1.362   0.136   2.667  0.00  0.00    +0.040 C 
BRANCH  21  22
ATOM     22  C   UNL     1       1.771   1.586   2.704  0.00  0.00    +0.012 C 
ATOM     23  C   UNL     1       1.391   2.464   3.626  0.00  0.00    +0.000 C 
ATOM     24  C   UNL     1       2.036   3.784   3.271  0.00  0.00    +0.132 C 
ATOM     25  N   UNL     1       2.814   3.535   2.050  0.00  0.00    -0.308 N 
ATOM     26  C   UNL     1       2.654   2.237   1.730  0.00  0.00    +0.240 C 
ATOM     27  O   UNL     1       3.163   1.687   0.773  0.00  0.00    -0.271 OA
ATOM     28  H   UNL     1       3.381   4.354   1.583  0.00  0.00    +0.149 HD
ENDBRANCH  21  22
ENDBRANCH  20  21
ENDBRANCH   7  20
TORSDOF 5
