REMARK  Name = ZINC56967012
REMARK  4 active torsions:
REMARK  status: ('A' for Active; 'I' for Inactive)
REMARK    1  A    between atoms: C_6  and  C_7
REMARK    2  A    between atoms: C_7  and  C_13
REMARK    3  A    between atoms: C_13  and  N_14
REMARK    4  A    between atoms: N_17  and  C_18
REMARK                            x       y       z     vdW  Elec       q    Type
REMARK                         _______ _______ _______ _____ _____    ______ ____
ROOT
ATOM      1  C   UNL     1      -1.365  -1.843   1.094  0.00  0.00    +0.117 C 
ENDROOT
BRANCH   1   2
ATOM      2  C   UNL     1      -1.344  -0.854  -0.073  0.00  0.00    +0.011 C 
ATOM      3  C   UNL     1      -1.362  -1.623  -1.395  0.00  0.00    +0.013 C 
ATOM      4  C   UNL     1      -2.631  -2.476  -1.471  0.00  0.00    +0.001 C 
ATOM      5  C   UNL     1      -3.860  -1.569  -1.393  0.00  0.00    +0.000 C 
ATOM      6  C   UNL     1      -3.842  -0.799  -0.071  0.00  0.00    +0.001 C 
ATOM      7  C   UNL     1      -2.574   0.054   0.006  0.00  0.00    +0.013 C 
BRANCH   2  13
ATOM      8  C   UNL     1       0.857  -0.103  -0.996  0.00  0.00    +0.008 A 
ATOM      9  C   UNL     1       2.005   0.665  -0.931  0.00  0.00    +0.050 A 
ATOM     10  C   UNL     1       2.204   1.526   0.136  0.00  0.00    +0.166 A 
ATOM     11  C   UNL     1       1.244   1.616   1.142  0.00  0.00    +0.167 A 
ATOM     12  C   UNL     1       0.097   0.843   1.071  0.00  0.00    +0.053 A 
ATOM     13  C   UNL     1      -0.095  -0.014   0.003  0.00  0.00    -0.036 A 
ATOM     14  O   UNL     1       1.668   2.523   2.070  0.00  0.00    -0.453 OA
ATOM     15  C   UNL     1       3.079   2.684   1.833  0.00  0.00    +0.466 C 
ATOM     16  O   UNL     1       3.228   2.377   0.434  0.00  0.00    -0.453 OA
ENDBRANCH   2  13
ENDBRANCH   1   2
BRANCH   1  17
ATOM     17  N   UNL     1      -0.143  -2.651   1.071  0.00  0.00    -0.299 N 
ATOM     18  C   UNL     1       0.014  -3.660   1.950  0.00  0.00    +0.300 C 
ATOM     19  O   UNL     1      -0.858  -3.900   2.763  0.00  0.00    -0.253 OA
ATOM     20  N   UNL     1       1.138  -4.404   1.929  0.00  0.00    -0.288 N 
ATOM     21  H   UNL     1       0.553  -2.460   0.423  0.00  0.00    +0.150 HD
ATOM     22  H   UNL     1       1.834  -4.212   1.281  0.00  0.00    +0.151 HD
BRANCH  20  23
ATOM     23  C   UNL     1       1.309  -5.500   2.885  0.00  0.00    +0.160 C 
ATOM     24  C   UNL     1       2.780  -5.922   2.926  0.00  0.00    +0.032 C 
ATOM     25  C   UNL     1       3.414  -5.795   1.553  0.00  0.00    +0.004 C 
ATOM     26  C   UNL     1       2.858  -6.766   0.528  0.00  0.00    +0.019 C 
ATOM     27  C   UNL     1       1.398  -6.442   0.205  0.00  0.00    +0.104 C 
ATOM     28  N   UNL     1       0.536  -7.120   1.187  0.00  0.00    -0.314 N 
ATOM     29  C   UNL     1       0.476  -6.688   2.451  0.00  0.00    +0.233 C 
ATOM     30  O   UNL     1      -0.240  -7.249   3.252  0.00  0.00    -0.274 OA
ATOM     31  H   UNL     1       0.006  -7.885   0.915  0.00  0.00    +0.149 HD
ENDBRANCH  20  23
ENDBRANCH   1  17
TORSDOF 4
