REMARK  Name = ZINC14034002
REMARK  9 active torsions:
REMARK  status: ('A' for Active; 'I' for Inactive)
REMARK    1  A    between atoms: C_1  and  C_2
REMARK    2  A    between atoms: C_2  and  C_4
REMARK    3  A    between atoms: C_2  and  O_20
REMARK    4  A    between atoms: N_6  and  N_7
REMARK    5  A    between atoms: C_8  and  C_10
REMARK    6  A    between atoms: C_10  and  O_11
REMARK    7  A    between atoms: O_11  and  C_12
REMARK    8  A    between atoms: O_20  and  C_21
REMARK    9  A    between atoms: C_26  and  N_27
REMARK                            x       y       z     vdW  Elec       q    Type
REMARK                         _______ _______ _______ _____ _____    ______ ____
ROOT
ATOM      1  C   UNL     1      -0.043   5.452   0.530  0.00  0.00    +0.270 C 
ATOM      2  O   UNL     1       1.020   5.885   0.922  0.00  0.00    -0.270 OA
ATOM      3  N   UNL     1      -1.158   6.200   0.644  0.00  0.00    -0.231 N 
ATOM      4  H   UNL     1      -2.008   5.855   0.331  0.00  0.00    +0.173 HD
ENDROOT
BRANCH   3   5
ATOM      5  N   UNL     1      -1.089   7.477   1.218  0.00  0.00    -0.231 N 
ATOM      6  C   UNL     1      -2.204   8.225   1.333  0.00  0.00    +0.267 C 
ATOM      7  O   UNL     1      -3.268   7.793   0.940  0.00  0.00    -0.271 OA
ATOM      8  H   UNL     1      -0.239   7.823   1.532  0.00  0.00    +0.173 HD
BRANCH   6   9
ATOM      9  C   UNL     1      -2.131   9.598   1.949  0.00  0.00    +0.326 C 
BRANCH   9  10
ATOM     10  O   UNL     1      -3.433  10.187   1.958  0.00  0.00    -0.481 OA
BRANCH  10  11
ATOM     11  C   UNL     1      -3.542  11.435   2.485  0.00  0.00    +0.139 A 
ATOM     12  C   UNL     1      -2.419  12.080   2.982  0.00  0.00    +0.048 A 
ATOM     13  C   UNL     1      -2.532  13.348   3.517  0.00  0.00    +0.019 A 
ATOM     14  C   UNL     1      -3.764  13.977   3.557  0.00  0.00    +0.019 A 
ATOM     15  C   UNL     1      -4.886  13.336   3.062  0.00  0.00    +0.039 A 
ATOM     16  C   UNL     1      -4.776  12.069   2.521  0.00  0.00    +0.084 A 
ATOM     17 CL   UNL     1      -6.183  11.268   1.893  0.00  0.00    -0.080 Cl
ATOM     18 BR   UNL     1      -3.915  15.713   4.291  0.00  0.00    -0.050 Br
ENDBRANCH  10  11
ENDBRANCH   9  10
ENDBRANCH   6   9
ENDBRANCH   3   5
BRANCH   1  20
ATOM     19  C   UNL     1      -0.516   4.202  -1.559  0.00  0.00    +0.062 C 
ATOM     20  C   UNL     1      -0.117   4.079  -0.087  0.00  0.00    +0.257 C 
BRANCH  20  21
ATOM     21  O   UNL     1       1.160   3.445   0.009  0.00  0.00    -0.478 OA
BRANCH  21  22
ATOM     22  C   UNL     1       1.176   2.086   0.004  0.00  0.00    +0.152 A 
ATOM     23  C   UNL     1       0.001   1.378  -0.206  0.00  0.00    +0.048 A 
ATOM     24  C   UNL     1       0.020  -0.003  -0.212  0.00  0.00    +0.004 A 
ATOM     25  C   UNL     1       1.208  -0.680  -0.009  0.00  0.00    +0.002 A 
ATOM     26  C   UNL     1       2.380   0.022   0.200  0.00  0.00    +0.036 A 
ATOM     27  C   UNL     1       2.367   1.404   0.207  0.00  0.00    +0.168 A 
BRANCH  27  28
ATOM     28  N   UNL     1       3.622   2.156   0.430  0.00  0.00    +0.060 N 
ATOM     29  O   UNL     1       4.667   1.556   0.609  0.00  0.00    -0.126 OA
ATOM     30  O   UNL     1       3.610   3.374   0.436  0.00  0.00    -0.126 OA
ENDBRANCH  27  28
ENDBRANCH  21  22
ENDBRANCH  20  21
ENDBRANCH   1  20
TORSDOF 8
