REMARK  Name = ZINC62551897
REMARK  5 active torsions:
REMARK  status: ('A' for Active; 'I' for Inactive)
REMARK    1  A    between atoms: C_1  and  C_2
REMARK    2  A    between atoms: C_5  and  O_8
REMARK    3  A    between atoms: O_8  and  C_9
REMARK    4  A    between atoms: C_9  and  C_10
REMARK    5  A    between atoms: C_15  and  O_24
REMARK                            x       y       z     vdW  Elec       q    Type
REMARK                         _______ _______ _______ _____ _____    ______ ____
ROOT
ATOM      1  C   UNL     1       0.090  -6.277   1.043  0.00  0.00    +0.257 C 
ATOM      2  O   UNL     1       0.142  -5.077   1.209  0.00  0.00    -0.272 OA
ATOM      3  N   UNL     1       0.004  -7.101   2.106  0.00  0.00    -0.268 N 
ATOM      4  C   UNL     1       0.027  -8.559   1.925  0.00  0.00    +0.116 C 
ATOM      5  C   UNL     1      -1.075  -9.158   2.810  0.00  0.00    +0.055 C 
ATOM      6  C   UNL     1      -0.748  -8.863   4.274  0.00  0.00    +0.148 C 
ATOM      7  C   UNL     1      -0.469  -7.396   4.466  0.00  0.00    +0.005 A 
ATOM      8  C   UNL     1      -0.102  -6.582   3.405  0.00  0.00    +0.042 A 
ATOM      9  C   UNL     1       0.159  -5.233   3.617  0.00  0.00    +0.026 A 
ATOM     10  C   UNL     1       0.057  -4.700   4.887  0.00  0.00    +0.040 A 
ATOM     11  C   UNL     1      -0.306  -5.511   5.949  0.00  0.00    +0.124 A 
ATOM     12  C   UNL     1      -0.577  -6.855   5.737  0.00  0.00    +0.046 A 
ATOM     13  F   UNL     1      -0.406  -4.991   7.191  0.00  0.00    -0.205 F 
ENDROOT
BRANCH   6  14
ATOM     14  O   UNL     1      -1.857  -9.243   5.090  0.00  0.00    -0.387 OA
ATOM     15  H   UNL     1      -1.723  -9.085   6.035  0.00  0.00    +0.210 HD
ENDBRANCH   6  14
BRANCH   1  16
ATOM     16  C   UNL     1       0.121  -6.848  -0.351  0.00  0.00    +0.325 C 
BRANCH  16  17
ATOM     17  O   UNL     1       0.097  -5.781  -1.302  0.00  0.00    -0.483 OA
BRANCH  17  22
ATOM     18  C   UNL     1       0.195  -7.211  -6.750  0.00  0.00    +0.044 C 
ATOM     19  C   UNL     1       0.168  -6.829  -5.292  0.00  0.00    -0.050 A 
ATOM     20  C   UNL     1       0.122  -5.495  -4.929  0.00  0.00    +0.007 A 
ATOM     21  C   UNL     1       0.098  -5.142  -3.594  0.00  0.00    +0.046 A 
ATOM     22  C   UNL     1       0.120  -6.127  -2.617  0.00  0.00    +0.121 A 
ATOM     23  C   UNL     1       0.165  -7.464  -2.983  0.00  0.00    +0.046 A 
ATOM     24  C   UNL     1       0.184  -7.812  -4.320  0.00  0.00    +0.007 A 
ENDBRANCH  17  22
ENDBRANCH  16  17
ENDBRANCH   1  16
TORSDOF 4
