REMARK  Name = ZINC14101180
REMARK  11 active torsions:
REMARK  status: ('A' for Active; 'I' for Inactive)
REMARK    1  A    between atoms: C_1  and  N_2
REMARK    2  A    between atoms: C_4  and  S_11
REMARK    3  A    between atoms: N_7  and  C_10
REMARK    4  A    between atoms: S_11  and  N_14
REMARK    5  A    between atoms: N_14  and  C_15
REMARK    6  A    between atoms: C_15  and  C_16
REMARK    7  A    between atoms: C_16  and  C_21
REMARK    8  A    between atoms: C_24  and  O_29
REMARK    9  A    between atoms: C_25  and  O_27
REMARK   10  A    between atoms: O_27  and  C_28
REMARK   11  A    between atoms: O_29  and  C_30
REMARK                            x       y       z     vdW  Elec       q    Type
REMARK                         _______ _______ _______ _____ _____    ______ ____
ROOT
ATOM      1  C   UNL     1      -2.502   3.794  -0.022  0.00  0.00    +0.010 C 
ATOM      2  C   UNL     1      -2.389   4.452   1.368  0.00  0.00    +0.013 C 
ATOM      3  C   UNL     1      -3.842   4.457   1.906  0.00  0.00    +0.001 C 
ATOM      4  C   UNL     1      -4.396   3.100   1.405  0.00  0.00    +0.001 C 
ATOM      5  C   UNL     1      -3.778   2.934   0.001  0.00  0.00    +0.013 C 
ENDROOT
BRANCH   1   6
ATOM      6  C   UNL     1      -1.299   2.925  -0.281  0.00  0.00    -0.036 A 
ATOM      7  C   UNL     1      -0.578   3.076  -1.451  0.00  0.00    +0.008 A 
ATOM      8  C   UNL     1       0.524   2.277  -1.696  0.00  0.00    +0.050 A 
ATOM      9  C   UNL     1       0.914   1.331  -0.762  0.00  0.00    +0.168 A 
ATOM     10  C   UNL     1       0.192   1.183   0.418  0.00  0.00    +0.162 A 
ATOM     11  C   UNL     1      -0.914   1.982   0.654  0.00  0.00    +0.053 A 
BRANCH  10  12
ATOM     12  O   UNL     1       0.571   0.255   1.337  0.00  0.00    -0.491 OA
ATOM     13  C   UNL     1      -0.217   0.159   2.525  0.00  0.00    +0.277 C 
ENDBRANCH  10  12
BRANCH   9  14
ATOM     14  O   UNL     1       2.002   0.549  -0.999  0.00  0.00    -0.431 OA
BRANCH  14  15
ATOM     15  C   UNL     1       2.695   0.756  -2.231  0.00  0.00    +0.541 C 
ATOM     16  F   UNL     1       1.824   0.523  -3.301  0.00  0.00    -0.166 F 
ATOM     17  F   UNL     1       3.160   2.075  -2.287  0.00  0.00    -0.166 F 
ENDBRANCH  14  15
ENDBRANCH   9  14
ENDBRANCH   1   6
BRANCH   1  18
ATOM     18  C   UNL     1      -2.615   4.869  -1.105  0.00  0.00    +0.117 C 
BRANCH  18  19
ATOM     19  N   UNL     1      -1.449   5.754  -1.037  0.00  0.00    -0.189 NA
ATOM     20  H   UNL     1      -0.873   5.739  -0.257  0.00  0.00    +0.148 HD
BRANCH  19  21
ATOM     21  S   UNL     1      -1.113   6.779  -2.294  0.00  0.00    +0.065 S 
ATOM     22  O   UNL     1       0.046   7.512  -1.921  0.00  0.00    -0.153 OA
ATOM     23  O   UNL     1      -1.173   6.000  -3.481  0.00  0.00    -0.153 OA
BRANCH  21  27
ATOM     24  C   UNL     1      -5.394   8.647  -4.475  0.00  0.00    +0.153 C 
ATOM     25  N   UNL     1      -4.385   8.753  -3.417  0.00  0.00    -0.301 N 
ATOM     26  C   UNL     1      -3.362   7.846  -3.363  0.00  0.00    +0.124 A 
ATOM     27  C   UNL     1      -2.435   7.940  -2.386  0.00  0.00    +0.186 A 
ATOM     28  C   UNL     1      -2.537   8.988  -1.439  0.00  0.00    +0.283 A 
ATOM     29  O   UNL     1      -1.710   9.097  -0.552  0.00  0.00    -0.265 OA
ATOM     30  N   UNL     1      -3.557   9.865  -1.530  0.00  0.00    -0.262 N 
ATOM     31  C   UNL     1      -4.470   9.744  -2.512  0.00  0.00    +0.332 A 
ATOM     32  O   UNL     1      -5.385  10.542  -2.581  0.00  0.00    -0.246 OA
ATOM     33  C   UNL     1      -3.673  10.953  -0.556  0.00  0.00    +0.157 C 
ENDBRANCH  21  27
ENDBRANCH  19  21
ENDBRANCH  18  19
ENDBRANCH   1  18
TORSDOF 8
