REMARK  Name = ZINC07779790
REMARK  6 active torsions:
REMARK  status: ('A' for Active; 'I' for Inactive)
REMARK    1  A    between atoms: C_1  and  C_2
REMARK    2  A    between atoms: C_9  and  C_11
REMARK    3  A    between atoms: C_11  and  O_13
REMARK    4  A    between atoms: O_13  and  C_14
REMARK    5  A    between atoms: C_14  and  C_15
REMARK    6  A    between atoms: N_17  and  C_18
REMARK                            x       y       z     vdW  Elec       q    Type
REMARK                         _______ _______ _______ _____ _____    ______ ____
ROOT
ATOM      1  C   UNL     1      -4.787  -0.768   0.046  0.00  0.00    +0.255 C 
ATOM      2  O   UNL     1      -4.836   0.444   0.063  0.00  0.00    -0.272 OA
ATOM      3  N   UNL     1      -5.925  -1.489   0.051  0.00  0.00    -0.283 N 
ATOM      4  H   UNL     1      -5.888  -2.455  -0.029  0.00  0.00    +0.155 HD
ENDROOT
BRANCH   3   5
ATOM      5  C   UNL     1      -7.162  -0.843   0.173  0.00  0.00    +0.036 A 
ATOM      6  C   UNL     1      -8.198  -1.453   0.872  0.00  0.00    +0.025 A 
ATOM      7  C   UNL     1      -9.417  -0.820   1.000  0.00  0.00    +0.029 A 
ATOM      8  C   UNL     1      -9.616   0.423   0.419  0.00  0.00    +0.067 A 
ATOM      9  C   UNL     1      -8.580   1.036  -0.288  0.00  0.00    +0.069 A 
ATOM     10  C   UNL     1      -7.354   0.401  -0.410  0.00  0.00    +0.051 A 
ATOM     11  N   UNL     1      -9.072   2.256  -0.747  0.00  0.00    -0.306 N 
ATOM     12  H   UNL     1      -8.579   2.906  -1.272  0.00  0.00    +0.170 HD
ATOM     13  C   UNL     1     -10.348   2.381  -0.337  0.00  0.00    +0.325 A 
ATOM     14  O   UNL     1     -11.069   3.333  -0.570  0.00  0.00    -0.247 OA
ATOM     15  N   UNL     1     -10.706   1.291   0.369  0.00  0.00    -0.306 N 
ATOM     16  H   UNL     1     -11.574   1.137   0.773  0.00  0.00    +0.170 HD
ENDBRANCH   3   5
BRANCH   1  17
ATOM     17  C   UNL     1      -3.452  -1.467   0.021  0.00  0.00    +0.328 C 
BRANCH  17  18
ATOM     18  O   UNL     1      -2.388  -0.479   0.020  0.00  0.00    -0.451 OA
BRANCH  18  19
ATOM     19  C   UNL     1      -1.121  -0.943  -0.002  0.00  0.00    +0.346 C 
ATOM     20  O   UNL     1      -0.913  -2.142  -0.020  0.00  0.00    -0.244 OA
BRANCH  19  28
ATOM     21  C   UNL     1       5.910   1.847  -0.357  0.00  0.00    +0.008 C 
ATOM     22  C   UNL     1       4.390   1.946  -0.497  0.00  0.00    -0.009 C 
ATOM     23  C   UNL     1       3.874   3.101   0.365  0.00  0.00    +0.009 C 
ATOM     24  C   UNL     1       2.403   3.363   0.011  0.00  0.00    +0.043 C 
ATOM     25  C   UNL     1       1.679   2.052   0.002  0.00  0.00    -0.006 A 
ATOM     26  C   UNL     1       2.235   0.804  -0.021  0.00  0.00    -0.036 A 
ATOM     27  C   UNL     1       1.360  -0.269  -0.024  0.00  0.00    +0.026 A 
ATOM     28  C   UNL     1       0.002  -0.005  -0.004  0.00  0.00    +0.097 A 
ATOM     29  S   UNL     1      -0.022   1.780   0.019  0.00  0.00    -0.086 S 
ATOM     30  C   UNL     1       3.752   0.632  -0.044  0.00  0.00    +0.039 C 
ENDBRANCH  19  28
ENDBRANCH  18  19
ENDBRANCH  17  18
ENDBRANCH   1  17
TORSDOF 5
