REMARK  Name = ZINC11335955
REMARK  3 active torsions:
REMARK  status: ('A' for Active; 'I' for Inactive)
REMARK    1  A    between atoms: C_5  and  O_7
REMARK    2  A    between atoms: C_10  and  C_11
REMARK    3  A    between atoms: C_15  and  N_17
REMARK                            x       y       z     vdW  Elec       q    Type
REMARK                         _______ _______ _______ _____ _____    ______ ____
ROOT
ATOM      1  C   UNL     1      -7.373   4.632   0.485  0.00  0.00    +0.004 A 
ATOM      2  C   UNL     1      -6.000   4.622   0.358  0.00  0.00    +0.012 A 
ATOM      3  C   UNL     1      -5.310   3.406   0.289  0.00  0.00    +0.029 A 
ATOM      4  C   UNL     1      -6.022   2.211   0.350  0.00  0.00    +0.009 A 
ATOM      5  C   UNL     1      -7.401   2.232   0.478  0.00  0.00    +0.121 A 
ATOM      6  C   UNL     1      -8.075   3.443   0.545  0.00  0.00    +0.046 A 
ATOM      7  C   UNL     1      -5.049   1.062   0.248  0.00  0.00    +0.078 C 
ATOM      8  C   UNL     1      -3.673   1.674   0.131  0.00  0.00    +0.005 C 
ATOM      9  C   UNL     1      -2.499   1.014   0.019  0.00  0.00    +0.015 C 
ATOM     10  C   UNL     1      -3.865   3.123   0.154  0.00  0.00    +0.190 C 
ATOM     11  O   UNL     1      -2.982   3.958   0.076  0.00  0.00    -0.287 OA
ENDROOT
BRANCH   9  12
ATOM     12  C   UNL     1      -1.230   1.753   0.088  0.00  0.00    -0.022 A 
ATOM     13  C   UNL     1      -1.071   2.792   1.012  0.00  0.00    +0.009 A 
ATOM     14  C   UNL     1       0.119   3.485   1.067  0.00  0.00    +0.023 A 
ATOM     15  C   UNL     1       1.159   3.151   0.213  0.00  0.00    +0.071 A 
ATOM     16  C   UNL     1       1.010   2.120  -0.700  0.00  0.00    +0.145 A 
ATOM     17  C   UNL     1      -0.174   1.418  -0.767  0.00  0.00    +0.042 A 
ATOM     18 CL   UNL     1       2.655   4.029   0.289  0.00  0.00    -0.081 Cl
BRANCH  16  19
ATOM     19  N   UNL     1       2.127   1.771  -1.608  0.00  0.00    +0.058 N 
ATOM     20  O   UNL     1       1.998   0.865  -2.412  0.00  0.00    -0.126 OA
ATOM     21  O   UNL     1       3.174   2.390  -1.550  0.00  0.00    -0.126 OA
ENDBRANCH  16  19
ENDBRANCH   9  12
BRANCH   5  22
ATOM     22  O   UNL     1      -8.095   1.065   0.536  0.00  0.00    -0.506 OA
ATOM     23  H   UNL     1      -8.215   0.723   1.433  0.00  0.00    +0.292 HD
ENDBRANCH   5  22
TORSDOF 3
