REMARK  Name = ZINC01114700
REMARK  7 active torsions:
REMARK  status: ('A' for Active; 'I' for Inactive)
REMARK    1  A    between atoms: C_1  and  C_2
REMARK    2  A    between atoms: C_5  and  C_35
REMARK    3  A    between atoms: C_5  and  C_36
REMARK    4  A    between atoms: C_10  and  O_33
REMARK    5  A    between atoms: C_28  and  N_32
REMARK    6  A    between atoms: C_29  and  C_30
REMARK    7  A    between atoms: O_33  and  C_34
REMARK                            x       y       z     vdW  Elec       q    Type
REMARK                         _______ _______ _______ _____ _____    ______ ____
ROOT
ATOM      1  C   UNL     1      -0.751   1.592  -1.233  0.00  0.00    +0.012 C 
ATOM      2  C   UNL     1      -0.013   1.086   0.008  0.00  0.00    +0.020 C 
ATOM      3  C   UNL     1      -0.735   1.579   1.266  0.00  0.00    +0.033 C 
ATOM      4  C   UNL     1      -0.003   1.158   2.546  0.00  0.00    +0.037 C 
ATOM      5  N   UNL     1       1.383   1.652   2.472  0.00  0.00    -0.264 N 
ATOM      6  C   UNL     1       1.994   1.848   1.234  0.00  0.00    +0.045 A 
ATOM      7  C   UNL     1       1.395   1.604  -0.003  0.00  0.00    -0.019 A 
ATOM      8  C   UNL     1       2.152   1.861  -1.120  0.00  0.00    +0.051 A 
ATOM      9  C   UNL     1       3.453   2.341  -1.001  0.00  0.00    +0.121 A 
ATOM     10  C   UNL     1       4.050   2.584   0.239  0.00  0.00    +0.052 A 
ATOM     11  C   UNL     1       3.291   2.326   1.360  0.00  0.00    +0.003 A 
ATOM     12  C   UNL     1       3.528   2.436   2.832  0.00  0.00    +0.148 C 
ATOM     13  C   UNL     1       2.226   1.972   3.466  0.00  0.00    +0.241 C 
ATOM     14  O   UNL     1       1.991   1.904   4.654  0.00  0.00    -0.273 OA
ATOM     15  C   UNL     1       3.804   3.858   3.230  0.00  0.00    +0.104 A 
ATOM     16  C   UNL     1       5.065   4.242   3.581  0.00  0.00    +0.152 A 
ATOM     17  C   UNL     1       5.272   5.647   3.966  0.00  0.00    +0.060 A 
ATOM     18  C   UNL     1       6.536   6.112   4.336  0.00  0.00    +0.015 A 
ATOM     19  C   UNL     1       6.699   7.432   4.692  0.00  0.00    +0.001 A 
ATOM     20  C   UNL     1       5.614   8.297   4.684  0.00  0.00    +0.004 A 
ATOM     21  C   UNL     1       4.362   7.850   4.320  0.00  0.00    +0.047 A 
ATOM     22  C   UNL     1       4.174   6.521   3.955  0.00  0.00    +0.143 A 
ATOM     23  O   UNL     1       2.952   6.080   3.597  0.00  0.00    -0.422 OA
ATOM     24  C   UNL     1       2.766   4.803   3.246  0.00  0.00    +0.346 A 
ATOM     25  O   UNL     1       1.647   4.444   2.926  0.00  0.00    -0.245 OA
ATOM     26  O   UNL     1       6.093   3.374   3.581  0.00  0.00    -0.440 OA
ATOM     27  C   UNL     1       5.856   2.049   3.611  0.00  0.00    +0.199 C 
ATOM     28  C   UNL     1       4.650   1.537   3.265  0.00  0.00    +0.110 C 
ATOM     29  C   UNL     1      -0.001  -0.368   2.660  0.00  0.00    +0.032 C 
ATOM     30  C   UNL     1      -0.703   1.765   3.764  0.00  0.00    +0.032 C 
ENDROOT
BRANCH  27  31
ATOM     31  N   UNL     1       6.860   1.198   4.001  0.00  0.00    -0.328 N 
ATOM     32  H   UNL     1       6.702   0.241   4.026  0.00  0.00    +0.145 HD
ATOM     33  H   UNL     1       7.727   1.553   4.251  0.00  0.00    +0.145 HD
ENDBRANCH  27  31
BRANCH  28  34
ATOM     34  C   UNL     1       4.443   0.120   3.312  0.00  0.00    +0.102 C 
ATOM     35  N   UNL     1       4.279  -1.003   3.350  0.00  0.00    -0.191 NA
ENDBRANCH  28  34
BRANCH   9  36
ATOM     36  O   UNL     1       4.168   2.583  -2.132  0.00  0.00    -0.495 OA
ATOM     37  C   UNL     1       3.520   2.322  -3.378  0.00  0.00    +0.277 C 
ENDBRANCH   9  36
TORSDOF 3
