REMARK  Name = ZINC03530634
REMARK  8 active torsions:
REMARK  status: ('A' for Active; 'I' for Inactive)
REMARK    1  A    between atoms: C_1  and  C_2
REMARK    2  A    between atoms: C_5  and  N_9
REMARK    3  A    between atoms: C_6  and  C_8
REMARK    4  A    between atoms: C_13  and  C_28
REMARK    5  A    between atoms: C_14  and  C_27
REMARK    6  A    between atoms: C_18  and  S_19
REMARK    7  A    between atoms: S_19  and  C_20
REMARK    8  A    between atoms: C_20  and  C_21
REMARK                            x       y       z     vdW  Elec       q    Type
REMARK                         _______ _______ _______ _____ _____    ______ ____
ROOT
ATOM      1  N   UNL     1      -0.115   1.167   4.055  0.00  0.00    -0.255 N 
ATOM      2  C   UNL     1       0.649   0.637   5.028  0.00  0.00    +0.268 A 
ATOM      3  O   UNL     1       0.375   0.826   6.200  0.00  0.00    -0.267 OA
ATOM      4  C   UNL     1       1.790  -0.147   4.668  0.00  0.00    +0.076 A 
ATOM      5  C   UNL     1       2.757  -0.810   5.526  0.00  0.00    -0.026 A 
ATOM      6  C   UNL     1       3.762  -1.501   4.968  0.00  0.00    -0.008 A 
ATOM      7  S   UNL     1       3.477  -1.308   3.219  0.00  0.00    -0.073 S 
ATOM      8  C   UNL     1       2.016  -0.303   3.288  0.00  0.00    +0.117 A 
ATOM      9  N   UNL     1       1.219   0.242   2.377  0.00  0.00    -0.215 NA
ATOM     10  C   UNL     1       0.174   0.961   2.735  0.00  0.00    +0.178 A 
ATOM     11  C   UNL     1       4.868  -2.259   5.656  0.00  0.00    +0.052 C 
ATOM     12  C   UNL     1       2.632  -0.722   7.025  0.00  0.00    +0.045 C 
ENDROOT
BRANCH   1  17
ATOM     13  C   UNL     1      -4.633   4.301   5.460  0.00  0.00    +0.044 C 
ATOM     14  C   UNL     1      -3.433   3.469   5.087  0.00  0.00    -0.050 A 
ATOM     15  C   UNL     1      -3.566   2.102   4.921  0.00  0.00    +0.005 A 
ATOM     16  C   UNL     1      -2.468   1.337   4.579  0.00  0.00    +0.027 A 
ATOM     17  C   UNL     1      -1.230   1.941   4.402  0.00  0.00    +0.055 A 
ATOM     18  C   UNL     1      -1.099   3.312   4.574  0.00  0.00    -0.026 A 
ATOM     19  C   UNL     1      -2.202   4.073   4.911  0.00  0.00    +0.008 A 
ATOM     20  C   UNL     1       0.243   3.971   4.389  0.00  0.00    +0.046 C 
ENDBRANCH   1  17
BRANCH  10  21
ATOM     21  S   UNL     1      -0.860   1.669   1.497  0.00  0.00    -0.078 S 
BRANCH  21  22
ATOM     22  C   UNL     1      -0.013   1.086   0.008  0.00  0.00    +0.173 C 
BRANCH  22  23
ATOM     23  C   UNL     1      -0.742   1.585  -1.213  0.00  0.00    +0.231 C 
ATOM     24  O   UNL     1      -1.736   2.268  -1.089  0.00  0.00    -0.274 OA
ATOM     25  N   UNL     1      -0.288   1.272  -2.443  0.00  0.00    -0.240 N 
ATOM     26  C   UNL     1      -0.940   1.719  -3.535  0.00  0.00    +0.303 C 
ATOM     27  O   UNL     1      -1.937   2.403  -3.410  0.00  0.00    -0.253 OA
ATOM     28  N   UNL     1      -0.487   1.406  -4.765  0.00  0.00    -0.313 N 
ATOM     29  H   UNL     1       0.507   0.726  -2.543  0.00  0.00    +0.159 HD
ATOM     30  H   UNL     1       0.308   0.860  -4.865  0.00  0.00    +0.146 HD
ATOM     31  H   UNL     1      -0.956   1.727  -5.551  0.00  0.00    +0.146 HD
ENDBRANCH  22  23
ENDBRANCH  21  22
ENDBRANCH  10  21
TORSDOF 4
