REMARK  Name = ZINC38767406
REMARK  4 active torsions:
REMARK  status: ('A' for Active; 'I' for Inactive)
REMARK    1  A    between atoms: C_4  and  S_7
REMARK    2  A    between atoms: S_7  and  N_10
REMARK    3  A    between atoms: N_13  and  C_16
REMARK    4  A    between atoms: N_19  and  C_24
REMARK                            x       y       z     vdW  Elec       q    Type
REMARK                         _______ _______ _______ _____ _____    ______ ____
ROOT
ATOM      1  C   UNL     1       4.413  -1.101   5.560  0.00  0.00    +0.074 A 
ATOM      2  C   UNL     1       5.101  -2.276   5.930  0.00  0.00    +0.157 A 
ATOM      3  N   UNL     1       5.452  -2.473   7.170  0.00  0.00    -0.171 NA
ATOM      4  N   UNL     1       5.157  -1.530   8.161  0.00  0.00    -0.186 N 
ATOM      5  C   UNL     1       4.501  -0.394   7.853  0.00  0.00    +0.291 A 
ATOM      6  O   UNL     1       4.247   0.424   8.723  0.00  0.00    -0.264 OA
ATOM      7  C   UNL     1       4.117  -0.155   6.525  0.00  0.00    +0.129 A 
ATOM      8 CL   UNL     1       3.277   1.304   6.100  0.00  0.00    -0.076 Cl
ENDROOT
BRANCH   4   9
ATOM      9  C   UNL     1       5.564  -1.781   9.546  0.00  0.00    +0.305 C 
ATOM     10  N   UNL     1       7.014  -1.996   9.614  0.00  0.00    -0.345 N 
ATOM     11  C   UNL     1       7.210  -3.195  10.084  0.00  0.00    +0.062 A 
ATOM     12  C   UNL     1       8.425  -3.968  10.374  0.00  0.00    +0.027 A 
ATOM     13  C   UNL     1       8.316  -5.217  10.869  0.00  0.00    +0.002 A 
ATOM     14  C   UNL     1       7.074  -5.826  11.123  0.00  0.00    +0.002 A 
ATOM     15  C   UNL     1       5.899  -5.206  10.892  0.00  0.00    +0.027 A 
ATOM     16  C   UNL     1       5.895  -3.839  10.354  0.00  0.00    +0.062 A 
ATOM     17  N   UNL     1       4.938  -3.014  10.040  0.00  0.00    -0.345 N 
ATOM     18  H   UNL     1       7.701  -1.363   9.355  0.00  0.00    +0.163 HD
ATOM     19  H   UNL     1       3.986  -3.183  10.118  0.00  0.00    +0.163 HD
ENDBRANCH   4   9
BRANCH   1  23
ATOM     20  N   UNL     1       4.278  -1.231   1.540  0.00  0.00    -0.174 NA
ATOM     21  C   UNL     1       5.244  -0.336   2.194  0.00  0.00    +0.128 C 
ATOM     22  C   UNL     1       4.607   0.222   3.472  0.00  0.00    +0.122 C 
ATOM     23  N   UNL     1       4.042  -0.895   4.242  0.00  0.00    -0.325 N 
ATOM     24  C   UNL     1       3.076  -1.789   3.588  0.00  0.00    +0.122 C 
ATOM     25  C   UNL     1       3.709  -2.344   2.312  0.00  0.00    +0.128 C 
BRANCH  20  26
ATOM     26  S   UNL     1       3.834  -0.984  -0.036  0.00  0.00    +0.061 S 
ATOM     27  O   UNL     1       3.379  -2.236  -0.531  0.00  0.00    -0.153 OA
ATOM     28  O   UNL     1       4.895  -0.263  -0.649  0.00  0.00    -0.153 OA
BRANCH  26  32
ATOM     29  C   UNL     1       0.245   1.775  -0.002  0.00  0.00    +0.000 A 
ATOM     30  C   UNL     1       1.522   2.302  -0.063  0.00  0.00    +0.002 A 
ATOM     31  C   UNL     1       2.618   1.460  -0.073  0.00  0.00    +0.028 A 
ATOM     32  C   UNL     1       2.438   0.090  -0.022  0.00  0.00    +0.105 A 
ATOM     33  C   UNL     1       1.161  -0.437   0.040  0.00  0.00    +0.028 A 
ATOM     34  C   UNL     1       0.065   0.405   0.048  0.00  0.00    +0.002 A 
ENDBRANCH  26  32
ENDBRANCH  20  26
ENDBRANCH   1  23
TORSDOF 4
