REMARK  Name = ZINC15574441
REMARK  9 active torsions:
REMARK  status: ('A' for Active; 'I' for Inactive)
REMARK    1  A    between atoms: C_1  and  S_2
REMARK    2  A    between atoms: S_2  and  C_3
REMARK    3  A    between atoms: C_3  and  C_4
REMARK    4  A    between atoms: C_4  and  C_5
REMARK    5  A    between atoms: C_5  and  C_7
REMARK    6  A    between atoms: C_5  and  N_19
REMARK    7  A    between atoms: N_9  and  C_10
REMARK    8  A    between atoms: C_14  and  C_16
REMARK    9  A    between atoms: C_20  and  C_22
REMARK                            x       y       z     vdW  Elec       q    Type
REMARK                         _______ _______ _______ _____ _____    ______ ____
ROOT
ATOM      1  C   UNL     1       0.115   1.455   0.104  0.00  0.00    +0.160 C 
ENDROOT
BRANCH   1   2
ATOM      2  C   UNL     1      -0.583   1.957   1.341  0.00  0.00    +0.238 C 
ATOM      3  O   UNL     1      -0.893   1.180   2.220  0.00  0.00    -0.273 OA
ATOM      4  N   UNL     1      -0.862   3.269   1.472  0.00  0.00    -0.284 N 
ATOM      5  H   UNL     1      -0.547   3.900   0.806  0.00  0.00    +0.155 HD
BRANCH   4   6
ATOM      6  C   UNL     1      -1.607   3.720   2.567  0.00  0.00    +0.034 A 
ATOM      7  C   UNL     1      -1.352   4.973   3.113  0.00  0.00    +0.023 A 
ATOM      8  C   UNL     1      -2.085   5.423   4.194  0.00  0.00    +0.003 A 
ATOM      9  C   UNL     1      -3.076   4.632   4.740  0.00  0.00    +0.013 A 
ATOM     10  C   UNL     1      -3.340   3.373   4.200  0.00  0.00    +0.038 A 
ATOM     11  C   UNL     1      -2.603   2.920   3.105  0.00  0.00    +0.036 A 
BRANCH  10  12
ATOM     12  C   UNL     1      -4.401   2.524   4.782  0.00  0.00    +0.242 C 
ATOM     13  O   UNL     1      -4.629   1.427   4.310  0.00  0.00    -0.270 OA
ATOM     14  N   UNL     1      -5.115   2.965   5.836  0.00  0.00    -0.325 N 
ATOM     15  H   UNL     1      -4.933   3.841   6.213  0.00  0.00    +0.145 HD
ATOM     16  H   UNL     1      -5.811   2.408   6.218  0.00  0.00    +0.145 HD
ENDBRANCH  10  12
ENDBRANCH   4   6
ENDBRANCH   1   2
BRANCH   1  17
ATOM     17  N   UNL     1       0.303   0.005   0.203  0.00  0.00    -0.300 N 
ATOM     18  C   UNL     1       0.424  -0.737  -0.915  0.00  0.00    +0.246 C 
ATOM     19  O   UNL     1       0.378  -0.204  -2.007  0.00  0.00    -0.270 OA
ATOM     20  H   UNL     1       0.340  -0.421   1.074  0.00  0.00    +0.150 HD
BRANCH  18  21
ATOM     21  C   UNL     1       0.613  -2.199  -0.815  0.00  0.00    +0.055 A 
ATOM     22  C   UNL     1       0.672  -2.814   0.437  0.00  0.00    +0.014 A 
ATOM     23  C   UNL     1       0.843  -4.180   0.524  0.00  0.00    +0.001 A 
ATOM     24  C   UNL     1       0.968  -4.940  -0.627  0.00  0.00    +0.001 A 
ATOM     25  C   UNL     1       0.916  -4.338  -1.870  0.00  0.00    +0.021 A 
ATOM     26  C   UNL     1       0.739  -2.971  -1.972  0.00  0.00    +0.053 A 
ATOM     27 CL   UNL     1       0.675  -2.216  -3.534  0.00  0.00    -0.083 Cl
ENDBRANCH  18  21
ENDBRANCH   1  17
BRANCH   1  28
ATOM     28  C   UNL     1       1.478   2.137  -0.025  0.00  0.00    +0.042 C 
BRANCH  28  29
ATOM     29  C   UNL     1       2.134   1.723  -1.344  0.00  0.00    +0.071 C 
BRANCH  29  31
ATOM     30  C   UNL     1       4.386   1.944  -3.091  0.00  0.00    +0.084 C 
ATOM     31  S   UNL     1       3.750   2.532  -1.497  0.00  0.00    -0.164 S 
ENDBRANCH  29  31
ENDBRANCH  28  29
ENDBRANCH   1  28
TORSDOF 8
