REMARK  Name = ZINC08299908
REMARK  8 active torsions:
REMARK  status: ('A' for Active; 'I' for Inactive)
REMARK    1  A    between atoms: C_1  and  C_2
REMARK    2  A    between atoms: C_2  and  C_3
REMARK    3  A    between atoms: C_2  and  C_4
REMARK    4  A    between atoms: C_2  and  C_34
REMARK    5  A    between atoms: C_4  and  C_5
REMARK    6  A    between atoms: N_7  and  C_8
REMARK    7  A    between atoms: C_19  and  C_26
REMARK    8  A    between atoms: C_34  and  C_35
REMARK                            x       y       z     vdW  Elec       q    Type
REMARK                         _______ _______ _______ _____ _____    ______ ____
ROOT
ATOM      1  C   UNL     1       2.998   3.883  -0.006  0.00  0.00    +0.092 C 
ATOM      2  C   UNL     1       3.059   5.310  -0.611  0.00  0.00    +0.055 C 
ATOM      3  C   UNL     1       4.317   5.910   0.049  0.00  0.00    +0.164 C 
ATOM      4  C   UNL     1       4.052   7.347   0.417  0.00  0.00    +0.238 C 
ATOM      5  O   UNL     1       2.983   7.843   0.132  0.00  0.00    -0.273 OA
ATOM      6  N   UNL     1       4.963   8.083   1.046  0.00  0.00    -0.283 N 
ATOM      7  C   UNL     1       6.242   7.696   1.395  0.00  0.00    +0.046 A 
ATOM      8  C   UNL     1       7.264   8.630   1.190  0.00  0.00    +0.024 A 
ATOM      9  C   UNL     1       8.565   8.339   1.521  0.00  0.00    +0.010 A 
ATOM     10  C   UNL     1       8.886   7.096   2.071  0.00  0.00    -0.014 A 
ATOM     11  C   UNL     1       7.887   6.157   2.275  0.00  0.00    +0.023 A 
ATOM     12  C   UNL     1       6.559   6.448   1.932  0.00  0.00    +0.059 A 
ATOM     13  C   UNL     1       5.556   5.394   2.153  0.00  0.00    +0.249 C 
ATOM     14  O   UNL     1       5.641   4.707   3.154  0.00  0.00    -0.270 OA
ATOM     15  N   UNL     1       4.554   5.160   1.295  0.00  0.00    -0.284 N 
ATOM     16  C   UNL     1       3.508   4.133   1.435  0.00  0.00    +0.131 C 
ATOM     17  H   UNL     1       4.702   8.987   1.284  0.00  0.00    +0.155 HD
ENDROOT
BRANCH  10  18
ATOM     18  C   UNL     1      10.289   6.782   2.436  0.00  0.00    +0.018 A 
ATOM     19  C   UNL     1      10.587   6.275   3.699  0.00  0.00    +0.014 A 
ATOM     20  C   UNL     1      11.892   5.979   4.032  0.00  0.00    +0.039 A 
ATOM     21  C   UNL     1      12.910   6.196   3.117  0.00  0.00    +0.126 A 
ATOM     22  C   UNL     1      12.623   6.705   1.862  0.00  0.00    +0.077 A 
ATOM     23  C   UNL     1      11.317   6.999   1.516  0.00  0.00    +0.134 A 
ATOM     24  F   UNL     1      11.036   7.496   0.292  0.00  0.00    -0.205 F 
ATOM     25  F   UNL     1      14.188   5.910   3.450  0.00  0.00    -0.205 F 
ENDBRANCH  10  18
BRANCH   1  28
ATOM     26  C   UNL     1       1.395   2.047  -0.000  0.00  0.00    +0.214 C 
ATOM     27  O   UNL     1       2.328   1.272  -0.013  0.00  0.00    -0.276 OA
ATOM     28  N   UNL     1       1.623   3.376   0.005  0.00  0.00    -0.311 N 
ATOM     29  H   UNL     1       0.878   3.996   0.015  0.00  0.00    +0.149 HD
BRANCH  26  30
ATOM     30  C   UNL     1      -0.019   1.526   0.010  0.00  0.00    +0.102 C 
BRANCH  30  32
ATOM     31  C   UNL     1       0.718  -0.497  -1.257  0.00  0.00    +0.012 C 
ATOM     32  C   UNL     1       0.002  -0.004   0.002  0.00  0.00    -0.016 C 
ATOM     33  C   UNL     1       0.742  -0.511   1.242  0.00  0.00    +0.012 C 
BRANCH  32  34
ATOM     34  C   UNL     1      -1.433  -0.534   0.013  0.00  0.00    +0.132 C 
BRANCH  34  35
ATOM     35  C   UNL     1      -1.413  -2.041   0.005  0.00  0.00    +0.357 C 
ATOM     36  O   UNL     1      -0.358  -2.630  -0.009  0.00  0.00    -0.246 OA
ATOM     37  O   UNL     1      -2.566  -2.727   0.012  0.00  0.00    -0.246 OA
ENDBRANCH  34  35
ENDBRANCH  32  34
ENDBRANCH  30  32
ENDBRANCH  26  30
ENDBRANCH   1  28
TORSDOF 6
