REMARK  Name = ZINC45437552
REMARK  9 active torsions:
REMARK  status: ('A' for Active; 'I' for Inactive)
REMARK    1  A    between atoms: C_1  and  C_2
REMARK    2  A    between atoms: C_2  and  C_3
REMARK    3  A    between atoms: C_2  and  N_4
REMARK    4  A    between atoms: N_4  and  C_5
REMARK    5  A    between atoms: C_5  and  C_6
REMARK    6  A    between atoms: C_5  and  C_7
REMARK    7  A    between atoms: C_5  and  C_15
REMARK    8  A    between atoms: C_7  and  C_8
REMARK    9  A    between atoms: C_8  and  N_9
REMARK                            x       y       z     vdW  Elec       q    Type
REMARK                         _______ _______ _______ _____ _____    ______ ____
ROOT
ATOM      1  C   UNL     1       1.952  -0.536  -0.927  0.00  0.00    +0.009 C 
ATOM      2  C   UNL     1       2.255   0.914  -1.309  0.00  0.00    -0.001 C 
ENDROOT
BRANCH   1   3
ATOM      3  C   UNL     1       2.464  -0.806   0.465  0.00  0.00    +0.199 C 
ATOM      4  O   UNL     1       3.314  -0.089   0.948  0.00  0.00    -0.278 OA
ATOM      5  N   UNL     1       1.976  -1.844   1.173  0.00  0.00    -0.330 N 
ATOM      6  H   UNL     1       1.296  -2.417   0.786  0.00  0.00    +0.145 HD
ATOM      7  H   UNL     1       2.305  -2.018   2.068  0.00  0.00    +0.145 HD
ENDBRANCH   1   3
BRANCH   1   8
ATOM      8  N   UNL     1       0.501  -0.760  -0.967  0.00  0.00    +0.390 N 
ATOM      9  H   UNL     1       0.292  -1.677  -0.600  0.00  0.00    -0.084 HD
ATOM     10  H   UNL     1       0.177  -0.698  -1.921  0.00  0.00    -0.084 HD
BRANCH   8  12
ATOM     11  C   UNL     1      -1.688   0.145  -0.347  0.00  0.00    -0.014 C 
ATOM     12  C   UNL     1      -0.175   0.259  -0.153  0.00  0.00    -0.077 C 
ATOM     13  C   UNL     1       0.168   0.043   1.322  0.00  0.00    -0.014 C 
ENDBRANCH   8  12
ENDBRANCH   1   8
BRANCH   1  14
ATOM     14  C   UNL     1       2.642  -1.478  -1.915  0.00  0.00    +0.020 C 
BRANCH  14  15
ATOM     15  C   UNL     1       4.153  -1.245  -1.873  0.00  0.00    +0.142 C 
BRANCH  15  16
ATOM     16  N   UNL     1       4.813  -2.147  -2.820  0.00  0.00    -0.270 N 
ATOM     17  C   UNL     1       5.654  -1.782  -3.811  0.00  0.00    +0.123 A 
ATOM     18  C   UNL     1       6.046  -2.906  -4.455  0.00  0.00    +0.055 A 
ATOM     19  C   UNL     1       5.423  -3.995  -3.836  0.00  0.00    +0.149 A 
ATOM     20  N   UNL     1       4.688  -3.542  -2.853  0.00  0.00    -0.179 NA
ATOM     21 BR   UNL     1       7.226  -2.990  -5.930  0.00  0.00    -0.047 Br
ENDBRANCH  15  16
ENDBRANCH  14  15
ENDBRANCH   1  14
TORSDOF 6
