REMARK  Name = ZINC05717418
REMARK  8 active torsions:
REMARK  status: ('A' for Active; 'I' for Inactive)
REMARK    1  A    between atoms: C_5  and  N_7
REMARK    2  A    between atoms: C_8  and  C_10
REMARK    3  A    between atoms: C_10  and  C_11
REMARK    4  A    between atoms: C_11  and  C_12
REMARK    5  A    between atoms: N_14  and  N_15
REMARK    6  A    between atoms: C_16  and  C_17
REMARK    7  A    between atoms: C_20  and  O_24
REMARK    8  A    between atoms: C_22  and  O_23
REMARK                            x       y       z     vdW  Elec       q    Type
REMARK                         _______ _______ _______ _____ _____    ______ ____
ROOT
ATOM      1  C   UNL     1       3.751   1.771   0.011  0.00  0.00    +0.233 C 
ATOM      2  O   UNL     1       3.735   2.984   0.022  0.00  0.00    -0.274 OA
ATOM      3  N   UNL     1       4.927   1.112   0.003  0.00  0.00    -0.207 N 
ATOM      4  H   UNL     1       4.940   0.142  -0.005  0.00  0.00    +0.177 HD
ENDROOT
BRANCH   3   5
ATOM      5  N   UNL     1       6.131   1.829   0.006  0.00  0.00    -0.188 NA
ATOM      6  C   UNL     1       7.264   1.194  -0.002  0.00  0.00    +0.142 C 
BRANCH   6   7
ATOM      7  C   UNL     1       8.530   1.948   0.002  0.00  0.00    +0.036 A 
ATOM      8  C   UNL     1       9.751   1.268  -0.007  0.00  0.00    +0.016 A 
ATOM      9  C   UNL     1      10.932   1.976  -0.004  0.00  0.00    +0.046 A 
ATOM     10  C   UNL     1      10.915   3.366   0.007  0.00  0.00    +0.120 A 
ATOM     11  C   UNL     1       9.709   4.050   0.016  0.00  0.00    +0.091 A 
ATOM     12  C   UNL     1       8.515   3.350   0.008  0.00  0.00    +0.129 A 
BRANCH  12  13
ATOM     13  O   UNL     1       7.333   4.018   0.011  0.00  0.00    -0.506 OA
ATOM     14  H   UNL     1       6.990   4.208   0.895  0.00  0.00    +0.292 HD
ENDBRANCH  12  13
BRANCH  10  15
ATOM     15  O   UNL     1      12.085   4.057   0.010  0.00  0.00    -0.507 OA
ATOM     16  H   UNL     1      12.421   4.264  -0.873  0.00  0.00    +0.292 HD
ENDBRANCH  10  15
ENDBRANCH   6   7
ENDBRANCH   3   5
BRANCH   1  17
ATOM     17  C   UNL     1       2.456   1.000   0.008  0.00  0.00    +0.107 C 
BRANCH  17  18
ATOM     18  C   UNL     1       1.280   1.979   0.019  0.00  0.00    +0.105 C 
BRANCH  18  20
ATOM     19  N   UNL     1      -1.191   1.867   0.018  0.00  0.00    -0.284 N 
ATOM     20  C   UNL     1      -0.015   1.208   0.015  0.00  0.00    +0.218 C 
ATOM     21  O   UNL     1       0.001  -0.005   0.005  0.00  0.00    -0.275 OA
ATOM     22  H   UNL     1      -1.205   2.834   0.092  0.00  0.00    +0.155 HD
BRANCH  19  27
ATOM     23  C   UNL     1      -3.698  -0.796   0.399  0.00  0.00    +0.002 A 
ATOM     24  C   UNL     1      -4.766  -0.253  -0.291  0.00  0.00    +0.002 A 
ATOM     25  C   UNL     1      -4.650   0.993  -0.880  0.00  0.00    +0.022 A 
ATOM     26  C   UNL     1      -3.466   1.699  -0.779  0.00  0.00    +0.062 A 
ATOM     27  C   UNL     1      -2.392   1.155  -0.086  0.00  0.00    +0.052 A 
ATOM     28  C   UNL     1      -2.510  -0.099   0.499  0.00  0.00    +0.025 A 
ATOM     29 CL   UNL     1      -3.320   3.263  -1.519  0.00  0.00    -0.082 Cl
ENDBRANCH  19  27
ENDBRANCH  18  20
ENDBRANCH  17  18
ENDBRANCH   1  17
TORSDOF 8
