REMARK  Name = ZINC10953122
REMARK  8 active torsions:
REMARK  status: ('A' for Active; 'I' for Inactive)
REMARK    1  A    between atoms: C_1  and  C_2
REMARK    2  A    between atoms: C_2  and  C_24
REMARK    3  A    between atoms: N_5  and  N_9
REMARK    4  A    between atoms: C_10  and  C_12
REMARK    5  A    between atoms: C_12  and  S_13
REMARK    6  A    between atoms: S_13  and  C_14
REMARK    7  A    between atoms: C_27  and  O_30
REMARK    8  A    between atoms: O_30  and  C_31
REMARK                            x       y       z     vdW  Elec       q    Type
REMARK                         _______ _______ _______ _____ _____    ______ ____
ROOT
ATOM      1  C   UNL     1       1.822  -1.203   1.235  0.00  0.00    +0.047 C 
ATOM      2  C   UNL     1       1.467  -0.394  -0.014  0.00  0.00    +0.137 C 
ATOM      3  C   UNL     1       0.002  -0.004   0.002  0.00  0.00    +0.267 C 
ATOM      4  O   UNL     1      -0.954  -0.749   0.008  0.00  0.00    -0.271 OA
ATOM      5  N   UNL     1      -0.016   1.343   0.009  0.00  0.00    -0.137 N 
ATOM      6  C   UNL     1       1.220   1.854   0.000  0.00  0.00    +0.327 C 
ATOM      7  O   UNL     1       1.460   3.045   0.004  0.00  0.00    -0.251 OA
ATOM      8  N   UNL     1       2.170   0.901  -0.014  0.00  0.00    -0.280 N 
ATOM      9  H   UNL     1       3.130   1.039  -0.022  0.00  0.00    +0.152 HD
ENDROOT
BRANCH   2  10
ATOM     10  C   UNL     1       1.794  -1.175  -1.261  0.00  0.00    -0.015 A 
ATOM     11  C   UNL     1       0.826  -1.964  -1.855  0.00  0.00    +0.010 A 
ATOM     12  C   UNL     1       1.122  -2.676  -3.001  0.00  0.00    +0.046 A 
ATOM     13  C   UNL     1       2.394  -2.607  -3.550  0.00  0.00    +0.120 A 
ATOM     14  C   UNL     1       3.365  -1.819  -2.949  0.00  0.00    +0.046 A 
ATOM     15  C   UNL     1       3.063  -1.105  -1.806  0.00  0.00    +0.010 A 
BRANCH  13  16
ATOM     16  O   UNL     1       2.690  -3.312  -4.674  0.00  0.00    -0.495 OA
ATOM     17  C   UNL     1       1.641  -4.101  -5.239  0.00  0.00    +0.277 C 
ENDBRANCH  13  16
ENDBRANCH   2  10
BRANCH   5  18
ATOM     18  N   UNL     1      -1.186   2.115   0.019  0.00  0.00    -0.223 N 
ATOM     19  C   UNL     1      -1.577   2.732   1.152  0.00  0.00    +0.240 C 
ATOM     20  O   UNL     1      -0.916   2.619   2.163  0.00  0.00    -0.273 OA
ATOM     21  H   UNL     1      -1.714   2.204  -0.789  0.00  0.00    +0.174 HD
BRANCH  19  22
ATOM     22  C   UNL     1      -2.835   3.561   1.163  0.00  0.00    +0.173 C 
BRANCH  22  23
ATOM     23  S   UNL     1      -3.087   4.253   2.816  0.00  0.00    -0.089 S 
BRANCH  23  24
ATOM     24  C   UNL     1      -4.581   5.149   2.548  0.00  0.00    +0.136 A 
ATOM     25  N   UNL     1      -5.285   5.267   1.444  0.00  0.00    -0.233 NA
ATOM     26  C   UNL     1      -6.425   5.989   1.385  0.00  0.00    +0.081 A 
ATOM     27  C   UNL     1      -7.272   6.192   0.272  0.00  0.00    +0.049 A 
ATOM     28  C   UNL     1      -8.399   6.966   0.381  0.00  0.00    +0.043 A 
ATOM     29  C   UNL     1      -8.747   7.575   1.579  0.00  0.00    +0.021 A 
ATOM     30  C   UNL     1      -7.939   7.398   2.688  0.00  0.00    +0.018 A 
ATOM     31  C   UNL     1      -6.810   6.625   2.587  0.00  0.00    +0.040 A 
ATOM     32  S   UNL     1      -5.520   6.134   3.706  0.00  0.00    -0.061 S 
ATOM     33 CL   UNL     1      -9.414   7.189  -1.010  0.00  0.00    -0.083 Cl
ENDBRANCH  23  24
ENDBRANCH  22  23
ENDBRANCH  19  22
ENDBRANCH   5  18
TORSDOF 6
