REMARK  Name = ZINC00876875
REMARK  8 active torsions:
REMARK  status: ('A' for Active; 'I' for Inactive)
REMARK    1  A    between atoms: C_1  and  C_2
REMARK    2  A    between atoms: C_2  and  O_3
REMARK    3  A    between atoms: O_3  and  C_4
REMARK    4  A    between atoms: C_9  and  N_10
REMARK    5  A    between atoms: C_12  and  C_22
REMARK    6  A    between atoms: C_17  and  O_21
REMARK    7  A    between atoms: N_24  and  C_25
REMARK    8  A    between atoms: C_25  and  C_26
REMARK                            x       y       z     vdW  Elec       q    Type
REMARK                         _______ _______ _______ _____ _____    ______ ____
ROOT
ATOM      1  N   UNL     1      -3.876  -1.567  -0.028  0.00  0.00    -0.322 N 
ATOM      2  C   UNL     1      -5.077  -2.099  -0.099  0.00  0.00    +0.212 A 
ATOM      3  C   UNL     1      -6.284  -1.253  -0.172  0.00  0.00    +0.097 A 
ATOM      4  C   UNL     1      -7.412  -1.800  -0.768  0.00  0.00    +0.030 A 
ATOM      5  C   UNL     1      -7.340  -3.138  -1.234  0.00  0.00    +0.018 A 
ATOM      6  C   UNL     1      -8.374  -3.672  -2.018  0.00  0.00    +0.015 A 
ATOM      7  C   UNL     1      -8.276  -4.945  -2.496  0.00  0.00    +0.046 A 
ATOM      8  C   UNL     1      -7.159  -5.726  -2.205  0.00  0.00    +0.120 A 
ATOM      9  C   UNL     1      -6.135  -5.222  -1.416  0.00  0.00    +0.092 A 
ATOM     10  C   UNL     1      -6.223  -3.933  -0.916  0.00  0.00    +0.141 A 
ATOM     11  O   UNL     1      -5.249  -3.446  -0.113  0.00  0.00    -0.438 OA
ATOM     12  H   UNL     1      -3.774  -0.602  -0.006  0.00  0.00    +0.169 HD
ENDROOT
BRANCH   1  18
ATOM     13  C   UNL     1      -1.709  -2.160  -0.872  0.00  0.00    +0.144 A 
ATOM     14  C   UNL     1      -0.594  -2.978  -0.816  0.00  0.00    +0.048 A 
ATOM     15  C   UNL     1      -0.532  -4.005   0.108  0.00  0.00    +0.004 A 
ATOM     16  C   UNL     1      -1.582  -4.223   0.983  0.00  0.00    +0.002 A 
ATOM     17  C   UNL     1      -2.701  -3.416   0.941  0.00  0.00    +0.029 A 
ATOM     18  C   UNL     1      -2.772  -2.373   0.016  0.00  0.00    +0.084 A 
BRANCH  13  19
ATOM     19  O   UNL     1      -1.770  -1.151  -1.780  0.00  0.00    -0.490 OA
BRANCH  19  21
ATOM     20  C   UNL     1      -0.899   0.183  -3.598  0.00  0.00    +0.048 C 
ATOM     21  C   UNL     1      -0.649  -0.995  -2.653  0.00  0.00    +0.226 C 
ENDBRANCH  19  21
ENDBRANCH  13  19
ENDBRANCH   1  18
BRANCH   3  22
ATOM     22  C   UNL     1      -6.292   0.117   0.365  0.00  0.00    +0.249 C 
ATOM     23  O   UNL     1      -5.272   0.597   0.824  0.00  0.00    -0.270 OA
ATOM     24  N   UNL     1      -7.429   0.841   0.349  0.00  0.00    -0.309 N 
ATOM     25  H   UNL     1      -8.225   0.485  -0.076  0.00  0.00    +0.149 HD
BRANCH  24  26
ATOM     26  C   UNL     1      -7.463   2.166   0.973  0.00  0.00    +0.136 C 
BRANCH  26  27
ATOM     27  C   UNL     1      -8.860   2.769   0.815  0.00  0.00    +0.135 C 
ATOM     28  C   UNL     1      -8.873   4.213   1.362  0.00  0.00    +0.035 C 
ATOM     29  C   UNL     1     -10.255   4.286   2.066  0.00  0.00    +0.031 C 
ATOM     30  C   UNL     1     -10.394   2.836   2.594  0.00  0.00    +0.160 C 
ATOM     31  O   UNL     1      -9.806   2.008   1.576  0.00  0.00    -0.375 OA
ENDBRANCH  26  27
ENDBRANCH  24  26
ENDBRANCH   3  22
BRANCH   8  32
ATOM     32  O   UNL     1      -7.071  -6.987  -2.698  0.00  0.00    -0.507 OA
ATOM     33  H   UNL     1      -6.641  -7.042  -3.563  0.00  0.00    +0.292 HD
ENDBRANCH   8  32
TORSDOF 7
