REMARK  Name = ZINC41486322
REMARK  5 active torsions:
REMARK  status: ('A' for Active; 'I' for Inactive)
REMARK    1  A    between atoms: C_1  and  C_2
REMARK    2  A    between atoms: C_2  and  C_4
REMARK    3  A    between atoms: C_2  and  O_16
REMARK    4  A    between atoms: O_16  and  C_17
REMARK    5  A    between atoms: C_21  and  N_23
REMARK                            x       y       z     vdW  Elec       q    Type
REMARK                         _______ _______ _______ _____ _____    ______ ____
ROOT
ATOM      1  C   UNL     1      -0.009   1.499   0.117  0.00  0.00    +0.062 C 
ATOM      2  C   UNL     1      -0.013  -0.024  -0.035  0.00  0.00    +0.256 C 
ENDROOT
BRANCH   2   3
ATOM      3  C   UNL     1      -1.419  -0.541   0.128  0.00  0.00    +0.260 C 
ATOM      4  O   UNL     1      -1.754  -1.070   1.167  0.00  0.00    -0.271 OA
ATOM      5  N   UNL     1      -2.304  -0.415  -0.880  0.00  0.00    -0.268 N 
ATOM      6  C   UNL     1      -1.952   0.334  -2.094  0.00  0.00    +0.114 C 
ATOM      7  C   UNL     1      -3.143   1.234  -2.452  0.00  0.00    +0.024 C 
ATOM      8  C   UNL     1      -4.348   0.351  -2.778  0.00  0.00    +0.038 C 
ATOM      9  C   UNL     1      -4.581  -0.651  -1.679  0.00  0.00    -0.026 A 
ATOM     10  C   UNL     1      -3.575  -1.001  -0.790  0.00  0.00    +0.040 A 
ATOM     11  C   UNL     1      -3.820  -1.937   0.207  0.00  0.00    +0.024 A 
ATOM     12  C   UNL     1      -5.065  -2.524   0.314  0.00  0.00    +0.002 A 
ATOM     13  C   UNL     1      -6.068  -2.178  -0.573  0.00  0.00    +0.000 A 
ATOM     14  C   UNL     1      -5.830  -1.238  -1.561  0.00  0.00    +0.005 A 
ENDBRANCH   2   3
BRANCH   2  15
ATOM     15  O   UNL     1       0.827  -0.604   0.965  0.00  0.00    -0.480 OA
BRANCH  15  16
ATOM     16  C   UNL     1       2.154  -0.686   0.684  0.00  0.00    +0.123 A 
ATOM     17  C   UNL     1       2.656  -0.110  -0.474  0.00  0.00    +0.046 A 
ATOM     18  C   UNL     1       4.005  -0.193  -0.761  0.00  0.00    +0.005 A 
ATOM     19  C   UNL     1       4.859  -0.850   0.104  0.00  0.00    +0.023 A 
ATOM     20  C   UNL     1       4.362  -1.429   1.265  0.00  0.00    +0.028 A 
ATOM     21  C   UNL     1       3.008  -1.341   1.558  0.00  0.00    +0.068 A 
BRANCH  20  22
ATOM     22  N   UNL     1       5.225  -2.092   2.140  0.00  0.00    -0.358 N 
ATOM     23  H   UNL     1       6.172  -2.150   1.936  0.00  0.00    +0.142 HD
ATOM     24  H   UNL     1       4.878  -2.496   2.950  0.00  0.00    +0.142 HD
ENDBRANCH  20  22
ENDBRANCH  15  16
ENDBRANCH   2  15
TORSDOF 4
