REMARK  Name = ZINC00421479
REMARK  6 active torsions:
REMARK  status: ('A' for Active; 'I' for Inactive)
REMARK    1  A    between atoms: C_1  and  C_2
REMARK    2  A    between atoms: C_6  and  C_15
REMARK    3  A    between atoms: C_13  and  C_14
REMARK    4  A    between atoms: C_18  and  C_29
REMARK    5  A    between atoms: C_24  and  N_28
REMARK    6  A    between atoms: C_25  and  C_26
REMARK                            x       y       z     vdW  Elec       q    Type
REMARK                         _______ _______ _______ _____ _____    ______ ____
ROOT
ATOM      1  C   UNL     1      -1.294  -0.772   0.010  0.00  0.00    +0.107 C 
ATOM      2  C   UNL     1      -1.345  -1.671   1.219  0.00  0.00    +0.049 A 
ATOM      3  C   UNL     1      -1.522  -1.339   2.555  0.00  0.00    +0.068 A 
ATOM      4  N   UNL     1      -1.496  -2.447   3.257  0.00  0.00    -0.176 NA
ATOM      5  N   UNL     1      -1.300  -3.525   2.379  0.00  0.00    -0.246 N 
ATOM      6  H   UNL     1      -1.238  -4.489   2.634  0.00  0.00    +0.192 HD
ATOM      7  C   UNL     1      -1.211  -3.030   1.134  0.00  0.00    +0.222 A 
ATOM      8  O   UNL     1      -1.024  -3.675  -0.044  0.00  0.00    -0.423 OA
ATOM      9  C   UNL     1      -1.245  -2.980  -1.179  0.00  0.00    +0.200 C 
ATOM     10  C   UNL     1      -1.382  -1.636  -1.223  0.00  0.00    +0.098 C 
ATOM     11  C   UNL     1      -1.710   0.051   3.104  0.00  0.00    +0.068 C 
ENDROOT
BRANCH   1  17
ATOM     12  C   UNL     1       2.561   5.611   0.008  0.00  0.00    +0.044 C 
ATOM     13  C   UNL     1       2.513   4.105   0.000  0.00  0.00    -0.047 A 
ATOM     14  C   UNL     1       1.305   3.466   0.008  0.00  0.00    +0.013 A 
ATOM     15  C   UNL     1       1.260   2.068   0.001  0.00  0.00    -0.001 A 
ATOM     16  C   UNL     1      -0.016   1.352   0.009  0.00  0.00    +0.020 A 
ATOM     17  C   UNL     1       0.002  -0.004   0.002  0.00  0.00    +0.030 A 
ATOM     18  C   UNL     1       1.231  -0.698  -0.013  0.00  0.00    +0.253 A 
ATOM     19  O   UNL     1       1.224  -1.917  -0.019  0.00  0.00    -0.268 OA
ATOM     20  N   UNL     1       2.408  -0.049  -0.021  0.00  0.00    -0.322 N 
ATOM     21  H   UNL     1       3.260  -0.573  -0.031  0.00  0.00    +0.169 HD
ATOM     22  C   UNL     1       2.458   1.329  -0.014  0.00  0.00    +0.049 A 
ATOM     23  C   UNL     1       3.676   2.001  -0.022  0.00  0.00    +0.030 A 
ATOM     24  C   UNL     1       3.696   3.379  -0.015  0.00  0.00    -0.046 A 
ATOM     25  C   UNL     1       5.016   4.106  -0.022  0.00  0.00    +0.044 C 
ENDBRANCH   1  17
BRANCH   9  26
ATOM     26  N   UNL     1      -1.335  -3.678  -2.357  0.00  0.00    -0.328 N 
ATOM     27  H   UNL     1      -1.494  -3.206  -3.190  0.00  0.00    +0.145 HD
ATOM     28  H   UNL     1      -1.241  -4.644  -2.357  0.00  0.00    +0.145 HD
ENDBRANCH   9  26
BRANCH  10  29
ATOM     29  C   UNL     1      -1.619  -1.009  -2.489  0.00  0.00    +0.101 C 
ATOM     30  N   UNL     1      -1.806  -0.511  -3.492  0.00  0.00    -0.191 NA
ENDBRANCH  10  29
TORSDOF 3
