REMARK  Name = ZINC04899128
REMARK  8 active torsions:
REMARK  status: ('A' for Active; 'I' for Inactive)
REMARK    1  A    between atoms: C_1  and  O_2
REMARK    2  A    between atoms: O_2  and  C_3
REMARK    3  A    between atoms: C_6  and  C_9
REMARK    4  A    between atoms: C_9  and  C_11
REMARK    5  A    between atoms: C_13  and  C_25
REMARK    6  A    between atoms: C_19  and  C_20
REMARK    7  A    between atoms: C_19  and  O_24
REMARK    8  A    between atoms: C_28  and  O_31
REMARK                            x       y       z     vdW  Elec       q    Type
REMARK                         _______ _______ _______ _____ _____    ______ ____
ROOT
ATOM      1  C   UNL     1      -5.396  -4.426   0.476  0.00  0.00    +0.144 C 
ATOM      2  C   UNL     1      -6.168  -4.697  -0.820  0.00  0.00    +0.120 C 
ATOM      3  N   UNL     1      -7.413  -3.928  -0.806  0.00  0.00    -0.292 N 
ATOM      4  C   UNL     1      -8.029  -3.618   0.344  0.00  0.00    +0.302 C 
ATOM      5  O   UNL     1      -9.067  -2.986   0.299  0.00  0.00    -0.253 OA
ATOM      6  N   UNL     1      -7.546  -3.977   1.543  0.00  0.00    -0.264 N 
ATOM      7  C   UNL     1      -6.304  -4.750   1.667  0.00  0.00    +0.243 C 
ATOM      8  H   UNL     1      -7.801  -3.636  -1.646  0.00  0.00    +0.151 HD
ATOM      9  H   UNL     1      -8.026  -3.720   2.345  0.00  0.00    +0.153 HD
ENDROOT
BRANCH   2  10
ATOM     10  C   UNL     1      -6.483  -6.167  -0.920  0.00  0.00    -0.026 A 
ATOM     11  C   UNL     1      -7.733  -6.631  -0.556  0.00  0.00    +0.009 A 
ATOM     12  C   UNL     1      -8.024  -7.978  -0.647  0.00  0.00    +0.046 A 
ATOM     13  C   UNL     1      -7.061  -8.866  -1.104  0.00  0.00    +0.117 A 
ATOM     14  C   UNL     1      -5.807  -8.397  -1.469  0.00  0.00    +0.046 A 
ATOM     15  C   UNL     1      -5.523  -7.048  -1.381  0.00  0.00    +0.009 A 
BRANCH  13  16
ATOM     16  O   UNL     1      -7.345 -10.192  -1.194  0.00  0.00    -0.507 OA
ATOM     17  H   UNL     1      -7.712 -10.458  -2.048  0.00  0.00    +0.292 HD
ENDBRANCH  13  16
ENDBRANCH   2  10
BRANCH   7  18
ATOM     18  C   UNL     1      -5.592  -4.380   2.969  0.00  0.00    +0.436 C 
ATOM     19  F   UNL     1      -5.418  -2.993   3.028  0.00  0.00    -0.166 F 
ATOM     20  F   UNL     1      -6.363  -4.800   4.058  0.00  0.00    -0.166 F 
ATOM     21  F   UNL     1      -4.343  -5.008   3.013  0.00  0.00    -0.166 F 
ENDBRANCH   7  18
BRANCH   1  22
ATOM     22  C   UNL     1      -4.989  -2.975   0.530  0.00  0.00    +0.173 C 
ATOM     23  O   UNL     1      -5.834  -2.107   0.477  0.00  0.00    -0.292 OA
BRANCH  22  27
ATOM     24  C   UNL     1      -0.898  -1.933   0.864  0.00  0.00    +0.120 A 
ATOM     25  C   UNL     1      -1.866  -0.935   0.814  0.00  0.00    +0.046 A 
ATOM     26  C   UNL     1      -3.192  -1.267   0.706  0.00  0.00    +0.015 A 
ATOM     27  C   UNL     1      -3.571  -2.614   0.645  0.00  0.00    +0.018 A 
ATOM     28  C   UNL     1      -2.592  -3.615   0.696  0.00  0.00    +0.015 A 
ATOM     29  C   UNL     1      -1.269  -3.272   0.799  0.00  0.00    +0.046 A 
BRANCH  24  31
ATOM     30  C   UNL     1       0.724  -0.206   1.033  0.00  0.00    +0.277 C 
ATOM     31  O   UNL     1       0.412  -1.599   0.971  0.00  0.00    -0.495 OA
ENDBRANCH  24  31
ENDBRANCH  22  27
ENDBRANCH   1  22
BRANCH   7  32
ATOM     32  O   UNL     1      -6.609  -6.146   1.668  0.00  0.00    -0.364 OA
ATOM     33  H   UNL     1      -7.182  -6.422   2.397  0.00  0.00    +0.212 HD
ENDBRANCH   7  32
TORSDOF 7
