REMARK  Name = ZINC10140405
REMARK  10 active torsions:
REMARK  status: ('A' for Active; 'I' for Inactive)
REMARK    1  A    between atoms: C_1  and  C_2
REMARK    2  A    between atoms: C_2  and  C_4
REMARK    3  A    between atoms: C_2  and  O_17
REMARK    4  A    between atoms: N_6  and  C_7
REMARK    5  A    between atoms: C_10  and  C_13
REMARK    6  A    between atoms: C_13  and  C_14
REMARK    7  A    between atoms: C_13  and  C_15
REMARK    8  A    between atoms: C_13  and  C_16
REMARK    9  A    between atoms: O_17  and  C_18
REMARK   10  A    between atoms: C_18  and  C_20
REMARK                            x       y       z     vdW  Elec       q    Type
REMARK                         _______ _______ _______ _____ _____    ______ ____
ROOT
ATOM      1  C   UNL     1       1.836   6.331  -0.869  0.00  0.00    +0.062 C 
ATOM      2  C   UNL     1       1.219   5.899   0.463  0.00  0.00    +0.259 C 
ENDROOT
BRANCH   2   3
ATOM      3  C   UNL     1       1.096   7.096   1.370  0.00  0.00    +0.258 C 
ATOM      4  O   UNL     1       0.007   7.439   1.778  0.00  0.00    -0.271 OA
ATOM      5  N   UNL     1       2.198   7.785   1.730  0.00  0.00    -0.282 N 
ATOM      6  H   UNL     1       3.059   7.558   1.345  0.00  0.00    +0.155 HD
BRANCH   5   7
ATOM      7  C   UNL     1       2.099   8.828   2.658  0.00  0.00    +0.034 A 
ATOM      8  C   UNL     1       2.946   9.924   2.565  0.00  0.00    +0.023 A 
ATOM      9  C   UNL     1       2.844  10.954   3.480  0.00  0.00    +0.006 A 
ATOM     10  C   UNL     1       1.905  10.889   4.493  0.00  0.00    -0.042 A 
ATOM     11  C   UNL     1       1.063   9.796   4.591  0.00  0.00    +0.006 A 
ATOM     12  C   UNL     1       1.157   8.766   3.676  0.00  0.00    +0.023 A 
BRANCH  10  13
ATOM     13  C   UNL     1       1.799  12.012   5.493  0.00  0.00    -0.013 C 
ATOM     14  C   UNL     1       2.058  11.468   6.899  0.00  0.00    +0.015 C 
ATOM     15  C   UNL     1       2.835  13.088   5.163  0.00  0.00    +0.015 C 
ATOM     16  C   UNL     1       0.396  12.618   5.431  0.00  0.00    +0.015 C 
ENDBRANCH  10  13
ENDBRANCH   5   7
ENDBRANCH   2   3
BRANCH   2  17
ATOM     17  O   UNL     1      -0.098   5.335   0.226  0.00  0.00    -0.448 OA
BRANCH  17  18
ATOM     18  C   UNL     1      -0.163   4.008   0.000  0.00  0.00    +0.362 C 
ATOM     19  O   UNL     1       0.853   3.341   0.002  0.00  0.00    -0.243 OA
BRANCH  18  20
ATOM     20  C   UNL     1      -1.468   3.365  -0.248  0.00  0.00    +0.187 A 
ATOM     21  C   UNL     1      -1.529   2.007  -0.605  0.00  0.00    +0.149 A 
ATOM     22  N   UNL     1      -2.709   1.437  -0.821  0.00  0.00    -0.237 NA
ATOM     23  C   UNL     1      -3.816   2.148  -0.706  0.00  0.00    +0.132 A 
ATOM     24  C   UNL     1      -3.755   3.490  -0.359  0.00  0.00    +0.131 A 
ATOM     25  N   UNL     1      -2.591   4.069  -0.142  0.00  0.00    -0.244 NA
ATOM     26  N   UNL     1      -0.368   1.267  -0.724  0.00  0.00    -0.341 N 
ATOM     27  H   UNL     1       0.479   1.714  -0.879  0.00  0.00    +0.144 HD
ATOM     28  H   UNL     1      -0.399   0.300  -0.649  0.00  0.00    +0.144 HD
ENDBRANCH  18  20
ENDBRANCH  17  18
ENDBRANCH   2  17
TORSDOF 6
