REMARK  Name = ZINC25499446
REMARK  6 active torsions:
REMARK  status: ('A' for Active; 'I' for Inactive)
REMARK    1  A    between atoms: C_1  and  C_2
REMARK    2  A    between atoms: C_10  and  S_12
REMARK    3  A    between atoms: S_12  and  C_13
REMARK    4  A    between atoms: C_13  and  C_14
REMARK    5  A    between atoms: N_19  and  C_20
REMARK    6  A    between atoms: C_20  and  C_21
REMARK                            x       y       z     vdW  Elec       q    Type
REMARK                         _______ _______ _______ _____ _____    ______ ____
ROOT
ATOM      1  C   UNL     1       0.128  -8.426   1.625  0.00  0.00    +0.231 C 
ATOM      2  O   UNL     1       0.138  -8.583   2.827  0.00  0.00    -0.274 OA
ATOM      3  N   UNL     1       0.139  -9.496   0.805  0.00  0.00    -0.239 N 
ATOM      4  C   UNL     1       0.159 -10.741   1.322  0.00  0.00    +0.306 C 
ATOM      5  O   UNL     1       0.169 -10.898   2.527  0.00  0.00    -0.252 OA
ATOM      6  N   UNL     1       0.170 -11.811   0.503  0.00  0.00    -0.292 N 
ATOM      7  H   UNL     1       0.131  -9.371  -0.156  0.00  0.00    +0.159 HD
ATOM      8  H   UNL     1       0.163 -11.685  -0.459  0.00  0.00    +0.151 HD
ENDROOT
BRANCH   1   9
ATOM      9  C   UNL     1       0.105  -7.035   1.047  0.00  0.00    +0.173 C 
BRANCH   9  10
ATOM     10  S   UNL     1       0.096  -5.820   2.394  0.00  0.00    -0.079 S 
BRANCH  10  20
ATOM     11  C   UNL     1      -0.018   1.503   0.010  0.00  0.00    +0.044 C 
ATOM     12  C   UNL     1       0.002  -0.004   0.002  0.00  0.00    -0.048 A 
ATOM     13  C   UNL     1       0.006  -0.686  -1.206  0.00  0.00    +0.005 A 
ATOM     14  C   UNL     1       0.024  -2.063  -1.230  0.00  0.00    +0.030 A 
ATOM     15  C   UNL     1       0.040  -2.778  -0.030  0.00  0.00    +0.090 A 
ATOM     16  C   UNL     1       0.037  -2.082   1.190  0.00  0.00    +0.067 A 
ATOM     17  C   UNL     1       0.023  -0.696   1.196  0.00  0.00    +0.031 A 
ATOM     18  N   UNL     1       0.055  -3.047   2.184  0.00  0.00    -0.333 N 
ATOM     19  H   UNL     1       0.058  -2.887   3.141  0.00  0.00    +0.168 HD
ATOM     20  C   UNL     1       0.069  -4.265   1.566  0.00  0.00    +0.168 A 
ATOM     21  N   UNL     1       0.060  -4.104   0.266  0.00  0.00    -0.222 NA
ENDBRANCH  10  20
ENDBRANCH   9  10
ENDBRANCH   1   9
BRANCH   6  22
ATOM     22  C   UNL     1       0.192 -13.164   1.065  0.00  0.00    +0.180 C 
BRANCH  22  23
ATOM     23  C   UNL     1       0.200 -14.172  -0.054  0.00  0.00    +0.122 A 
ATOM     24  C   UNL     1       1.295 -14.688  -0.641  0.00  0.00    +0.046 A 
ATOM     25  C   UNL     1       0.843 -15.588  -1.634  0.00  0.00    +0.041 A 
ATOM     26  C   UNL     1      -0.501 -15.569  -1.593  0.00  0.00    +0.195 A 
ATOM     27  O   UNL     1      -0.885 -14.714  -0.631  0.00  0.00    -0.466 OA
ENDBRANCH  22  23
ENDBRANCH   6  22
TORSDOF 5
