REMARK  Name = ZINC55155654
REMARK  10 active torsions:
REMARK  status: ('A' for Active; 'I' for Inactive)
REMARK    1  A    between atoms: C_1  and  C_2
REMARK    2  A    between atoms: C_2  and  N_3
REMARK    3  A    between atoms: N_3  and  C_4
REMARK    4  A    between atoms: C_12  and  C_14
REMARK    5  A    between atoms: C_14  and  C_16
REMARK    6  A    between atoms: C_14  and  N_17
REMARK    7  A    between atoms: N_17  and  C_18
REMARK    8  A    between atoms: C_21  and  C_26
REMARK    9  A    between atoms: C_23  and  O_24
REMARK   10  A    between atoms: O_24  and  C_25
REMARK                            x       y       z     vdW  Elec       q    Type
REMARK                         _______ _______ _______ _____ _____    ______ ____
ROOT
ATOM      1  C   UNL     1       2.823  -0.118  -0.268  0.00  0.00    +0.154 C 
ATOM      2  C   UNL     1       2.453   1.345  -0.519  0.00  0.00    +0.038 C 
ENDROOT
BRANCH   1   4
ATOM      3  N   UNL     1       1.439  -0.494   1.747  0.00  0.00    -0.296 N 
ATOM      4  C   UNL     1       2.668  -0.431   1.198  0.00  0.00    +0.236 C 
ATOM      5  O   UNL     1       3.650  -0.626   1.883  0.00  0.00    -0.274 OA
BRANCH   3   6
ATOM      6  C   UNL     1       1.289  -0.778   3.177  0.00  0.00    +0.098 C 
ATOM      7  C   UNL     1       1.921  -2.143   3.495  0.00  0.00    +0.046 C 
ATOM      8  C   UNL     1       2.030  -2.278   5.040  0.00  0.00    +0.168 C 
ATOM      9  S   UNL     1       2.568  -0.574   5.490  0.00  0.00    -0.029 S 
ATOM     10  O   UNL     1       3.988  -0.533   5.534  0.00  0.00    -0.174 OA
ATOM     11  O   UNL     1       1.821  -0.135   6.616  0.00  0.00    -0.174 OA
ATOM     12  C   UNL     1       1.992   0.331   3.997  0.00  0.00    +0.188 C 
ENDBRANCH   3   6
BRANCH   3  14
ATOM     13  C   UNL     1      -0.224   1.167   1.071  0.00  0.00    +0.024 C 
ATOM     14  C   UNL     1       0.253  -0.279   0.915  0.00  0.00    +0.105 C 
ENDBRANCH   3  14
ENDBRANCH   1   4
BRANCH   1  15
ATOM     15  N   UNL     1       4.213  -0.346  -0.672  0.00  0.00    -0.330 N 
ATOM     16  H   UNL     1       4.924  -0.295  -0.014  0.00  0.00    +0.147 HD
BRANCH  15  17
ATOM     17  C   UNL     1       4.514  -0.639  -2.007  0.00  0.00    +0.070 A 
ATOM     18  C   UNL     1       3.499  -0.707  -2.950  0.00  0.00    +0.027 A 
ATOM     19  C   UNL     1       3.800  -0.996  -4.269  0.00  0.00    +0.005 A 
ATOM     20  C   UNL     1       5.110  -1.217  -4.650  0.00  0.00    -0.047 A 
ATOM     21  C   UNL     1       6.127  -1.151  -3.715  0.00  0.00    +0.051 A 
ATOM     22  C   UNL     1       5.835  -0.857  -2.393  0.00  0.00    +0.141 A 
ATOM     23  C   UNL     1       5.431  -1.532  -6.088  0.00  0.00    +0.044 C 
BRANCH  22  24
ATOM     24  O   UNL     1       6.835  -0.786  -1.474  0.00  0.00    -0.493 OA
ATOM     25  C   UNL     1       8.164  -1.021  -1.942  0.00  0.00    +0.277 C 
ENDBRANCH  22  24
ENDBRANCH  15  17
ENDBRANCH   1  15
TORSDOF 6
