REMARK  Name = ZINC17028468
REMARK  4 active torsions:
REMARK  status: ('A' for Active; 'I' for Inactive)
REMARK    1  A    between atoms: C_1  and  C_2
REMARK    2  A    between atoms: C_2  and  C_4
REMARK    3  A    between atoms: C_2  and  N_10
REMARK    4  A    between atoms: C_13  and  C_20
REMARK                            x       y       z     vdW  Elec       q    Type
REMARK                         _______ _______ _______ _____ _____    ______ ____
ROOT
ATOM      1  N   UNL     1       0.746  -0.600  -1.111  0.00  0.00    -0.253 N 
ATOM      2  C   UNL     1       1.726  -1.490  -0.859  0.00  0.00    +0.268 A 
ATOM      3  O   UNL     1       1.995  -1.799   0.289  0.00  0.00    -0.267 OA
ATOM      4  C   UNL     1       2.437  -2.060  -1.931  0.00  0.00    +0.126 A 
ATOM      5  C   UNL     1       2.116  -1.698  -3.205  0.00  0.00    +0.265 A 
ATOM      6  N   UNL     1       1.111  -0.789  -3.416  0.00  0.00    -0.274 N 
ATOM      7  H   UNL     1       0.879  -0.528  -4.321  0.00  0.00    +0.173 HD
ATOM      8  C   UNL     1       0.441  -0.260  -2.376  0.00  0.00    +0.333 A 
ATOM      9  O   UNL     1      -0.451   0.541  -2.583  0.00  0.00    -0.246 OA
ATOM     10  O   UNL     1       2.783  -2.230  -4.252  0.00  0.00    -0.267 OA
ENDROOT
BRANCH   4  11
ATOM     11  C   UNL     1       3.537  -3.057  -1.673  0.00  0.00    +0.248 C 
ATOM     12  C   UNL     1       4.667  -2.396  -0.926  0.00  0.00    +0.012 A 
ATOM     13  C   UNL     1       5.504  -1.342  -1.211  0.00  0.00    +0.008 A 
ATOM     14  C   UNL     1       6.472  -0.961  -0.297  0.00  0.00    +0.000 A 
ATOM     15  C   UNL     1       6.601  -1.636   0.904  0.00  0.00    +0.001 A 
ATOM     16  C   UNL     1       5.766  -2.695   1.201  0.00  0.00    +0.015 A 
ATOM     17  C   UNL     1       4.789  -3.084   0.284  0.00  0.00    +0.066 A 
ATOM     18  C   UNL     1       3.767  -4.146   0.299  0.00  0.00    +0.340 C 
ATOM     19  O   UNL     1       3.594  -4.935   1.206  0.00  0.00    -0.245 OA
ATOM     20  O   UNL     1       3.055  -4.115  -0.841  0.00  0.00    -0.448 OA
ENDBRANCH   4  11
BRANCH   1  22
ATOM     21  C   UNL     1      -0.744  -1.102   0.763  0.00  0.00    +0.036 C 
ATOM     22  C   UNL     1       0.002  -0.004   0.002  0.00  0.00    +0.122 C 
BRANCH  22  23
ATOM     23  C   UNL     1       0.963   0.689   0.934  0.00  0.00    -0.025 A 
ATOM     24  C   UNL     1       2.061   1.355   0.423  0.00  0.00    +0.005 A 
ATOM     25  C   UNL     1       2.942   1.991   1.278  0.00  0.00    +0.000 A 
ATOM     26  C   UNL     1       2.724   1.962   2.643  0.00  0.00    +0.000 A 
ATOM     27  C   UNL     1       1.625   1.296   3.153  0.00  0.00    +0.000 A 
ATOM     28  C   UNL     1       0.742   0.664   2.298  0.00  0.00    +0.005 A 
ENDBRANCH  22  23
ENDBRANCH   1  22
TORSDOF 3
