REMARK  Name = ZINC06719893
REMARK  8 active torsions:
REMARK  status: ('A' for Active; 'I' for Inactive)
REMARK    1  A    between atoms: C_1  and  C_2
REMARK    2  A    between atoms: C_3  and  C_16
REMARK    3  A    between atoms: C_4  and  C_7
REMARK    4  A    between atoms: C_10  and  O_14
REMARK    5  A    between atoms: C_12  and  O_13
REMARK    6  A    between atoms: O_14  and  C_15
REMARK    7  A    between atoms: C_21  and  O_22
REMARK    8  A    between atoms: O_22  and  C_23
REMARK                            x       y       z     vdW  Elec       q    Type
REMARK                         _______ _______ _______ _____ _____    ______ ____
ROOT
ATOM      1  C   UNL     1      -0.018   1.503   0.010  0.00  0.00    +0.070 C 
ATOM      2  C   UNL     1       0.002  -0.004   0.002  0.00  0.00    +0.089 A 
ATOM      3  C   UNL     1       0.008  -0.825  -1.147  0.00  0.00    +0.055 A 
ATOM      4  C   UNL     1       0.029  -2.141  -0.717  0.00  0.00    +0.179 A 
ATOM      5  O   UNL     1       0.035  -2.122   0.630  0.00  0.00    -0.354 OA
ATOM      6  N   UNL     1       0.023  -0.772   1.053  0.00  0.00    -0.082 NA
ENDROOT
BRANCH   4   7
ATOM      7  C   UNL     1       0.041  -3.340  -1.574  0.00  0.00    +0.062 A 
ATOM      8  C   UNL     1       0.038  -3.208  -2.965  0.00  0.00    +0.019 A 
ATOM      9  C   UNL     1       0.050  -4.331  -3.762  0.00  0.00    +0.046 A 
ATOM     10  C   UNL     1       0.065  -5.597  -3.188  0.00  0.00    +0.124 A 
ATOM     11  C   UNL     1       0.069  -5.738  -1.808  0.00  0.00    +0.091 A 
ATOM     12  C   UNL     1       0.062  -4.617  -0.996  0.00  0.00    +0.131 A 
BRANCH  12  13
ATOM     13  O   UNL     1       0.071  -4.755   0.355  0.00  0.00    -0.506 OA
ATOM     14  H   UNL     1      -0.810  -4.807   0.750  0.00  0.00    +0.292 HD
ENDBRANCH  12  13
BRANCH  10  15
ATOM     15  O   UNL     1       0.076  -6.699  -3.981  0.00  0.00    -0.495 OA
ATOM     16  C   UNL     1       0.072  -6.482  -5.394  0.00  0.00    +0.277 C 
ENDBRANCH  10  15
ENDBRANCH   4   7
BRANCH   3  17
ATOM     17  C   UNL     1      -0.006  -0.363  -2.555  0.00  0.00    +0.029 A 
ATOM     18  C   UNL     1       1.193  -0.134  -3.228  0.00  0.00    +0.012 A 
ATOM     19  C   UNL     1       1.174   0.297  -4.540  0.00  0.00    +0.001 A 
ATOM     20  C   UNL     1      -0.030   0.501  -5.189  0.00  0.00    +0.004 A 
ATOM     21  C   UNL     1      -1.225   0.277  -4.530  0.00  0.00    +0.046 A 
ATOM     22  C   UNL     1      -1.222  -0.161  -3.216  0.00  0.00    +0.128 A 
BRANCH  22  23
ATOM     23  O   UNL     1      -2.395  -0.388  -2.570  0.00  0.00    -0.495 OA
ATOM     24  C   UNL     1      -3.597  -0.160  -3.309  0.00  0.00    +0.277 C 
ENDBRANCH  22  23
ENDBRANCH   3  17
TORSDOF 5
