REMARK  Name = ZINC39252201
REMARK  7 active torsions:
REMARK  status: ('A' for Active; 'I' for Inactive)
REMARK    1  A    between atoms: C_1  and  O_2
REMARK    2  A    between atoms: O_2  and  C_3
REMARK    3  A    between atoms: C_10  and  N_13
REMARK    4  A    between atoms: C_14  and  C_16
REMARK    5  A    between atoms: N_21  and  C_23
REMARK    6  A    between atoms: C_23  and  C_24
REMARK    7  A    between atoms: C_24  and  C_25
REMARK                            x       y       z     vdW  Elec       q    Type
REMARK                         _______ _______ _______ _____ _____    ______ ____
ROOT
ATOM      1  C   UNL     1      -6.179  -6.634  -2.516  0.00  0.00    +0.101 C 
ATOM      2  C   UNL     1      -7.654  -6.189  -2.652  0.00  0.00    +0.110 C 
ATOM      3  C   UNL     1      -8.359  -7.406  -3.208  0.00  0.00    +0.216 C 
ATOM      4  O   UNL     1      -9.458  -7.398  -3.720  0.00  0.00    -0.276 OA
ATOM      5  N   UNL     1      -7.590  -8.497  -3.052  0.00  0.00    -0.300 N 
ATOM      6  C   UNL     1      -6.322  -8.167  -2.388  0.00  0.00    +0.121 C 
ENDROOT
BRANCH   1   8
ATOM      7  N   UNL     1      -5.397  -4.712  -1.169  0.00  0.00    -0.288 N 
ATOM      8  C   UNL     1      -5.550  -6.046  -1.278  0.00  0.00    +0.220 C 
ATOM      9  O   UNL     1      -5.183  -6.775  -0.381  0.00  0.00    -0.275 OA
ATOM     10  H   UNL     1      -5.691  -4.130  -1.887  0.00  0.00    +0.151 HD
BRANCH   7  18
ATOM     11  C   UNL     1      -1.201  -0.638   0.010  0.00  0.00    +0.121 A 
ATOM     12  C   UNL     1      -2.382   0.090   0.019  0.00  0.00    +0.047 A 
ATOM     13  C   UNL     1      -3.604  -0.541   0.028  0.00  0.00    +0.027 A 
ATOM     14  C   UNL     1      -3.701  -1.944   0.028  0.00  0.00    +0.043 A 
ATOM     15  C   UNL     1      -2.495  -2.651   0.017  0.00  0.00    +0.035 A 
ATOM     16  C   UNL     1      -1.269  -2.025   0.003  0.00  0.00    +0.062 A 
ATOM     17  S   UNL     1      -2.962  -4.367   0.019  0.00  0.00    -0.082 S 
ATOM     18  C   UNL     1      -4.785  -4.141   0.033  0.00  0.00    +0.224 C 
ATOM     19  N   UNL     1      -4.890  -2.676   0.035  0.00  0.00    -0.316 N 
ATOM     20  H   UNL     1      -5.753  -2.233   0.043  0.00  0.00    +0.149 HD
BRANCH  11  22
ATOM     21  C   UNL     1      -0.017   1.425   0.010  0.00  0.00    +0.277 C 
ATOM     22  O   UNL     1       0.002  -0.004   0.002  0.00  0.00    -0.495 OA
ENDBRANCH  11  22
ENDBRANCH   7  18
ENDBRANCH   1   8
BRANCH   5  23
ATOM     23  C   UNL     1      -7.967  -9.844  -3.489  0.00  0.00    +0.112 C 
BRANCH  23  24
ATOM     24  C   UNL     1      -7.489 -10.067  -4.925  0.00  0.00    +0.056 C 
BRANCH  24  25
ATOM     25  C   UNL     1      -7.877 -11.452  -5.374  0.00  0.00    -0.021 A 
ATOM     26  C   UNL     1      -9.165 -11.853  -5.947  0.00  0.00    +0.004 A 
ATOM     27  C   UNL     1     -10.348 -11.174  -6.244  0.00  0.00    +0.030 A 
ATOM     28  C   UNL     1     -11.408 -11.861  -6.794  0.00  0.00    +0.042 A 
ATOM     29  C   UNL     1     -11.304 -13.222  -7.052  0.00  0.00    +0.022 A 
ATOM     30  C   UNL     1     -10.143 -13.905  -6.764  0.00  0.00    +0.027 A 
ATOM     31  C   UNL     1      -9.061 -13.232  -6.209  0.00  0.00    +0.047 A 
ATOM     32  N   UNL     1      -7.799 -13.625  -5.820  0.00  0.00    -0.360 N 
ATOM     33  C   UNL     1      -7.107 -12.551  -5.331  0.00  0.00    +0.087 A 
ATOM     34 CL   UNL     1     -12.881 -11.021  -7.166  0.00  0.00    -0.084 Cl
ATOM     35  H   UNL     1      -7.452 -14.528  -5.886  0.00  0.00    +0.165 HD
ENDBRANCH  24  25
ENDBRANCH  23  24
ENDBRANCH   5  23
TORSDOF 6
