REMARK  Name = ZINC39533423
REMARK  12 active torsions:
REMARK  status: ('A' for Active; 'I' for Inactive)
REMARK    1  A    between atoms: C_1  and  C_2
REMARK    2  A    between atoms: C_2  and  O_3
REMARK    3  A    between atoms: O_3  and  N_4
REMARK    4  A    between atoms: N_4  and  C_5
REMARK    5  A    between atoms: C_5  and  C_6
REMARK    6  A    between atoms: C_6  and  C_8
REMARK    7  A    between atoms: C_6  and  N_18
REMARK    8  A    between atoms: C_11  and  C_14
REMARK    9  A    between atoms: C_14  and  C_15
REMARK   10  A    between atoms: C_15  and  C_16
REMARK   11  A    between atoms: C_15  and  C_17
REMARK   12  A    between atoms: C_22  and  O_25
REMARK                            x       y       z     vdW  Elec       q    Type
REMARK                         _______ _______ _______ _____ _____    ______ ____
ROOT
ATOM      1  C   UNL     1      -2.897  -3.923   0.009  0.00  0.00    +0.103 C 
ENDROOT
BRANCH   1   2
ATOM      2  N   UNL     1      -2.103  -4.265   1.197  0.00  0.00    -0.295 NA
ATOM      3  C   UNL     1      -2.265  -3.251   2.248  0.00  0.00    +0.066 C 
ATOM      4  C   UNL     1      -1.473  -3.675   3.487  0.00  0.00    -0.063 C 
ATOM      5  N   UNL     1      -0.054  -3.818   3.135  0.00  0.00    +0.398 N 
ATOM      6  C   UNL     1       0.094  -4.851   2.102  0.00  0.00    +0.073 C 
ATOM      7  C   UNL     1      -0.685  -4.438   0.852  0.00  0.00    +0.096 C 
ATOM      8  H   UNL     1       0.296  -2.939   2.785  0.00  0.00    -0.082 HD
ATOM      9  H   UNL     1       0.470  -4.085   3.955  0.00  0.00    -0.082 HD
BRANCH   6  10
ATOM     10  O   UNL     1       1.477  -5.001   1.774  0.00  0.00    -0.409 OA
ATOM     11  H   UNL     1       2.033  -5.263   2.520  0.00  0.00    +0.207 HD
ENDBRANCH   6  10
ENDBRANCH   1   2
BRANCH   1  12
ATOM     12  C   UNL     1      -4.253  -4.572   0.106  0.00  0.00    -0.029 A 
ATOM     13  C   UNL     1      -4.867  -4.708   1.337  0.00  0.00    +0.005 A 
ATOM     14  C   UNL     1      -6.112  -5.303   1.427  0.00  0.00    +0.004 A 
ATOM     15  C   UNL     1      -6.742  -5.761   0.285  0.00  0.00    -0.047 A 
ATOM     16  C   UNL     1      -6.129  -5.624  -0.946  0.00  0.00    +0.004 A 
ATOM     17  C   UNL     1      -4.886  -5.026  -1.036  0.00  0.00    +0.005 A 
BRANCH  15  18
ATOM     18  C   UNL     1      -8.099  -6.411   0.383  0.00  0.00    +0.038 C 
BRANCH  18  19
ATOM     19  C   UNL     1      -9.186  -5.344   0.246  0.00  0.00    -0.013 C 
ATOM     20  C   UNL     1      -9.130  -4.734  -1.156  0.00  0.00    +0.007 C 
ATOM     21  C   UNL     1     -10.559  -5.982   0.469  0.00  0.00    +0.007 C 
ENDBRANCH  18  19
ENDBRANCH  15  18
ENDBRANCH   1  12
BRANCH   1  22
ATOM     22  C   UNL     1      -3.062  -2.404  -0.074  0.00  0.00    +0.134 C 
BRANCH  22  23
ATOM     23  N   UNL     1      -1.738  -1.770  -0.134  0.00  0.00    -0.199 NA
ATOM     24  H   UNL     1      -1.200  -2.131  -0.907  0.00  0.00    +0.154 HD
BRANCH  23  25
ATOM     25  O   UNL     1      -1.858  -0.314  -0.214  0.00  0.00    -0.300 OA
BRANCH  25  27
ATOM     26  C   UNL     1      -0.850   1.878  -0.356  0.00  0.00    +0.036 C 
ATOM     27  C   UNL     1      -0.605   0.369  -0.276  0.00  0.00    +0.182 C 
ENDBRANCH  25  27
ENDBRANCH  23  25
ENDBRANCH  22  23
ENDBRANCH   1  22
TORSDOF 9
