REMARK  Name = ZINC67274314
REMARK  4 active torsions:
REMARK  status: ('A' for Active; 'I' for Inactive)
REMARK    1  A    between atoms: C_3  and  C_22
REMARK    2  A    between atoms: C_8  and  C_10
REMARK    3  A    between atoms: C_22  and  C_23
REMARK    4  A    between atoms: C_23  and  C_24
REMARK                            x       y       z     vdW  Elec       q    Type
REMARK                         _______ _______ _______ _____ _____    ______ ____
ROOT
ATOM      1  C   UNL     1      -0.761   1.753   0.751  0.00  0.00    +0.019 C 
ATOM      2  C   UNL     1       0.398   2.662   1.167  0.00  0.00    +0.006 C 
ATOM      3  C   UNL     1       1.101   2.069   2.390  0.00  0.00    +0.007 C 
ATOM      4  C   UNL     1       1.670   0.693   2.030  0.00  0.00    +0.111 C 
ATOM      5  N   UNL     1       0.587  -0.141   1.492  0.00  0.00    -0.301 N 
ATOM      6  C   UNL     1      -0.212   0.374   0.372  0.00  0.00    +0.108 C 
ATOM      7  C   UNL     1       0.332  -1.357   2.016  0.00  0.00    +0.219 C 
ATOM      8  O   UNL     1      -0.615  -2.002   1.617  0.00  0.00    -0.275 OA
ENDROOT
BRANCH   7   9
ATOM      9  C   UNL     1       1.222  -1.913   3.097  0.00  0.00    +0.075 C 
ATOM     10  C   UNL     1       2.465  -2.540   2.461  0.00  0.00    +0.015 C 
ATOM     11  C   UNL     1       3.374  -3.095   3.561  0.00  0.00    +0.036 C 
ATOM     12  C   UNL     1       2.616  -4.139   4.373  0.00  0.00    +0.112 C 
ATOM     13  C   UNL     1       1.361  -3.535   4.992  0.00  0.00    +0.036 C 
ATOM     14  C   UNL     1       0.459  -2.979   3.887  0.00  0.00    +0.015 C 
ATOM     15  C   UNL     1       2.259  -5.325   3.507  0.00  0.00    +0.244 C 
ATOM     16  O   UNL     1       1.557  -5.327   2.518  0.00  0.00    -0.273 OA
ATOM     17  N   UNL     1       2.887  -6.381   4.065  0.00  0.00    -0.238 N 
ATOM     18  C   UNL     1       3.582  -6.023   5.152  0.00  0.00    +0.307 C 
ATOM     19  O   UNL     1       4.230  -6.800   5.825  0.00  0.00    -0.252 OA
ATOM     20  N   UNL     1       3.481  -4.706   5.415  0.00  0.00    -0.285 N 
ATOM     21  H   UNL     1       2.840  -7.287   3.721  0.00  0.00    +0.159 HD
ATOM     22  H   UNL     1       3.898  -4.227   6.149  0.00  0.00    +0.151 HD
ENDBRANCH   7   9
BRANCH   3  23
ATOM     23  C   UNL     1       2.238   2.995   2.826  0.00  0.00    +0.014 C 
BRANCH  23  24
ATOM     24  C   UNL     1       1.656   4.328   3.301  0.00  0.00    +0.096 C 
BRANCH  24  25
ATOM     25  C   UNL     1       2.776   5.240   3.729  0.00  0.00    +0.210 C 
ATOM     26  O   UNL     1       3.927   4.862   3.662  0.00  0.00    -0.276 OA
ATOM     27  N   UNL     1       2.500   6.477   4.188  0.00  0.00    -0.329 N 
ATOM     28  H   UNL     1       1.580   6.780   4.242  0.00  0.00    +0.145 HD
ATOM     29  H   UNL     1       3.221   7.065   4.464  0.00  0.00    +0.145 HD
ENDBRANCH  24  25
ENDBRANCH  23  24
ENDBRANCH   3  23
TORSDOF 4
