REMARK  Name = ZINC32861793
REMARK  8 active torsions:
REMARK  status: ('A' for Active; 'I' for Inactive)
REMARK    1  A    between atoms: C_1  and  C_2
REMARK    2  A    between atoms: C_3  and  C_7
REMARK    3  A    between atoms: C_10  and  S_13
REMARK    4  A    between atoms: N_11  and  N_12
REMARK    5  A    between atoms: S_13  and  C_14
REMARK    6  A    between atoms: C_14  and  C_15
REMARK    7  A    between atoms: C_18  and  C_28
REMARK    8  A    between atoms: C_21  and  C_23
REMARK                            x       y       z     vdW  Elec       q    Type
REMARK                         _______ _______ _______ _____ _____    ______ ____
ROOT
ATOM      1  C   UNL     1      -8.784   0.369   0.057  0.00  0.00    +0.246 C 
ATOM      2  O   UNL     1      -9.179  -0.778   0.059  0.00  0.00    -0.273 OA
ATOM      3  N   UNL     1      -9.668   1.386   0.064  0.00  0.00    -0.184 N 
ATOM      4  C   UNL     1     -11.133   1.247   0.081  0.00  0.00    +0.144 C 
ATOM      5  C   UNL     1     -11.636   2.703   0.083  0.00  0.00    +0.090 C 
ATOM      6  C   UNL     1     -10.369   3.528   0.068  0.00  0.00    +0.104 C 
ATOM      7  N   UNL     1      -9.344   2.742   0.064  0.00  0.00    -0.178 NA
ENDROOT
BRANCH   6   8
ATOM      8  C   UNL     1     -10.312   4.993   0.063  0.00  0.00    +0.150 A 
ATOM      9  C   UNL     1      -9.177   5.751   0.044  0.00  0.00    +0.051 A 
ATOM     10  C   UNL     1      -9.590   7.096   0.047  0.00  0.00    +0.042 A 
ATOM     11  C   UNL     1     -10.938   7.098   0.068  0.00  0.00    +0.196 A 
ATOM     12  O   UNL     1     -11.371   5.826   0.072  0.00  0.00    -0.462 OA
ENDBRANCH   6   8
BRANCH   4  13
ATOM     13  C   UNL     1     -11.610   0.520  -1.150  0.00  0.00    +0.013 A 
ATOM     14  C   UNL     1     -12.603  -0.395  -1.270  0.00  0.00    +0.013 A 
ATOM     15  C   UNL     1     -12.869  -0.936  -2.514  0.00  0.00    +0.008 A 
ATOM     16  C   UNL     1     -12.129  -0.536  -3.577  0.00  0.00    +0.045 A 
ATOM     17  S   UNL     1     -11.018   0.645  -2.830  0.00  0.00    -0.100 S 
ENDBRANCH   4  13
BRANCH   1  18
ATOM     18  C   UNL     1      -7.305   0.657   0.047  0.00  0.00    +0.175 C 
BRANCH  18  19
ATOM     19  S   UNL     1      -6.385  -0.906   0.039  0.00  0.00    -0.075 S 
BRANCH  19  23
ATOM     20  C   UNL     1      -2.510  -0.400   0.013  0.00  0.00    +0.185 A 
ATOM     21  N   UNL     1      -2.963   0.832   0.017  0.00  0.00    -0.127 NA
ATOM     22  N   UNL     1      -4.248   0.828   0.025  0.00  0.00    -0.121 NA
ATOM     23  C   UNL     1      -4.695  -0.406   0.027  0.00  0.00    +0.209 A 
ATOM     24  N   UNL     1      -3.605  -1.232   0.013  0.00  0.00    -0.224 N 
BRANCH  20  27
ATOM     25  C   UNL     1      -0.018   1.503   0.010  0.00  0.00    +0.087 C 
ATOM     26  C   UNL     1       0.002  -0.004   0.002  0.00  0.00    +0.112 A 
ATOM     27  C   UNL     1      -1.091  -0.815   0.003  0.00  0.00    +0.061 A 
ATOM     28  C   UNL     1      -0.568  -2.187  -0.008  0.00  0.00    +0.053 A 
ATOM     29  C   UNL     1       0.770  -2.074  -0.014  0.00  0.00    +0.196 A 
ATOM     30  O   UNL     1       1.100  -0.773  -0.013  0.00  0.00    -0.467 OA
ENDBRANCH  20  27
BRANCH  24  31
ATOM     31  N   UNL     1      -3.604  -2.598   0.004  0.00  0.00    -0.295 N 
ATOM     32  H   UNL     1      -3.598  -2.966   0.944  0.00  0.00    +0.163 HD
ATOM     33  H   UNL     1      -4.388  -2.957  -0.520  0.00  0.00    +0.163 HD
ENDBRANCH  24  31
ENDBRANCH  19  23
ENDBRANCH  18  19
ENDBRANCH   1  18
TORSDOF 7
