REMARK  Name = ZINC50039566
REMARK  3 active torsions:
REMARK  status: ('A' for Active; 'I' for Inactive)
REMARK    1  A    between atoms: C_5  and  C_7
REMARK    2  A    between atoms: C_8  and  C_13
REMARK    3  A    between atoms: C_9  and  N_12
REMARK                            x       y       z     vdW  Elec       q    Type
REMARK                         _______ _______ _______ _____ _____    ______ ____
ROOT
ATOM      1  C   UNL     1       1.232  -2.172  -0.155  0.00  0.00    +0.124 A 
ATOM      2  C   UNL     1       0.088  -3.056   0.080  0.00  0.00    +0.071 A 
ATOM      3  C   UNL     1       0.589  -4.341   0.153  0.00  0.00    +0.224 A 
ATOM      4  O   UNL     1       1.918  -4.276  -0.019  0.00  0.00    -0.339 OA
ATOM      5  N   UNL     1       2.301  -2.929  -0.213  0.00  0.00    -0.075 NA
ENDROOT
BRANCH   2   6
ATOM      6  C   UNL     1      -1.331  -2.651   0.214  0.00  0.00    -0.009 A 
ATOM      7  C   UNL     1      -1.738  -1.881   1.303  0.00  0.00    +0.010 A 
ATOM      8  C   UNL     1      -3.061  -1.506   1.424  0.00  0.00    +0.022 A 
ATOM      9  C   UNL     1      -3.983  -1.894   0.468  0.00  0.00    +0.059 A 
ATOM     10  C   UNL     1      -3.584  -2.659  -0.616  0.00  0.00    +0.060 A 
ATOM     11  C   UNL     1      -2.262  -3.034  -0.750  0.00  0.00    +0.030 A 
ATOM     12 CL   UNL     1      -4.747  -3.142  -1.811  0.00  0.00    -0.082 Cl
ATOM     13 CL   UNL     1      -5.646  -1.419   0.627  0.00  0.00    -0.082 Cl
ENDBRANCH   2   6
BRANCH   1  18
ATOM     14  C   UNL     1       0.209   1.266  -1.282  0.00  0.00    +0.001 A 
ATOM     15  C   UNL     1       1.107   2.057  -0.588  0.00  0.00    +0.001 A 
ATOM     16  C   UNL     1       2.045   1.479   0.247  0.00  0.00    +0.020 A 
ATOM     17  C   UNL     1       2.091   0.105   0.392  0.00  0.00    +0.050 A 
ATOM     18  C   UNL     1       1.188  -0.697  -0.306  0.00  0.00    +0.023 A 
ATOM     19  C   UNL     1       0.244  -0.107  -1.145  0.00  0.00    +0.011 A 
ATOM     20 CL   UNL     1       3.270  -0.620   1.439  0.00  0.00    -0.083 Cl
ENDBRANCH   1  18
BRANCH   3  21
ATOM     21  N   UNL     1      -0.146  -5.488   0.366  0.00  0.00    -0.327 N 
ATOM     22  H   UNL     1      -1.108  -5.433   0.480  0.00  0.00    +0.145 HD
ATOM     23  H   UNL     1       0.298  -6.349   0.401  0.00  0.00    +0.145 HD
ENDBRANCH   3  21
TORSDOF 3
