REMARK  Name = ZINC27062082
REMARK  6 active torsions:
REMARK  status: ('A' for Active; 'I' for Inactive)
REMARK    1  A    between atoms: C_1  and  O_2
REMARK    2  A    between atoms: O_2  and  C_3
REMARK    3  A    between atoms: C_6  and  C_9
REMARK    4  A    between atoms: N_10  and  N_11
REMARK    5  A    between atoms: N_11  and  C_12
REMARK    6  A    between atoms: C_13  and  C_17
REMARK                            x       y       z     vdW  Elec       q    Type
REMARK                         _______ _______ _______ _____ _____    ______ ____
ROOT
ATOM      1  C   UNL     1      -3.757   5.083   0.063  0.00  0.00    +0.138 C 
ATOM      2  N   UNL     1      -2.972   4.049   0.051  0.00  0.00    -0.188 NA
ENDROOT
BRANCH   1   6
ATOM      3  C   UNL     1      -7.969   4.550   0.100  0.00  0.00    +0.120 A 
ATOM      4  C   UNL     1      -7.433   5.832   0.101  0.00  0.00    +0.046 A 
ATOM      5  C   UNL     1      -6.067   6.010   0.089  0.00  0.00    +0.013 A 
ATOM      6  C   UNL     1      -5.220   4.898   0.076  0.00  0.00    -0.005 A 
ATOM      7  C   UNL     1      -5.763   3.611   0.069  0.00  0.00    +0.013 A 
ATOM      8  C   UNL     1      -7.131   3.443   0.086  0.00  0.00    +0.046 A 
BRANCH   3  10
ATOM      9  C   UNL     1      -9.801   3.035   0.109  0.00  0.00    +0.277 C 
ATOM     10  O   UNL     1      -9.317   4.380   0.112  0.00  0.00    -0.495 OA
ENDBRANCH   3  10
ENDBRANCH   1   6
BRANCH   2  11
ATOM     11  N   UNL     1      -1.582   4.224   0.038  0.00  0.00    -0.205 N 
ATOM     12  H   UNL     1      -1.156   5.239   0.040  0.00  0.00    +0.177 HD
BRANCH  11  13
ATOM     13  C   UNL     1      -0.749   3.127   0.025  0.00  0.00    +0.243 A 
ATOM     14  C   UNL     1       0.636   3.138   0.012  0.00  0.00    +0.202 A 
ATOM     15  N   UNL     1       1.039   1.837   0.002  0.00  0.00    -0.204 NA
ATOM     16  C   UNL     1      -0.013   1.076   0.008  0.00  0.00    +0.311 A 
ATOM     17  O   UNL     1      -1.121   1.833   0.017  0.00  0.00    -0.426 OA
BRANCH  14  18
ATOM     18  C   UNL     1       1.481   4.294   0.011  0.00  0.00    +0.124 C 
ATOM     19  N   UNL     1       2.152   5.211   0.009  0.00  0.00    -0.189 NA
ENDBRANCH  14  18
ENDBRANCH  11  13
ENDBRANCH   2  11
TORSDOF 5
