REMARK  Name = ZINC40881894
REMARK  7 active torsions:
REMARK  status: ('A' for Active; 'I' for Inactive)
REMARK    1  A    between atoms: C_1  and  C_2
REMARK    2  A    between atoms: C_4  and  C_18
REMARK    3  A    between atoms: C_5  and  C_17
REMARK    4  A    between atoms: C_6  and  O_8
REMARK    5  A    between atoms: O_8  and  C_9
REMARK    6  A    between atoms: C_12  and  C_15
REMARK    7  A    between atoms: C_15  and  O_16
REMARK                            x       y       z     vdW  Elec       q    Type
REMARK                         _______ _______ _______ _____ _____    ______ ____
ROOT
ATOM      1  O   UNL     1       0.051  -2.776   2.358  0.00  0.00    -0.438 OA
ENDROOT
BRANCH   1   7
ATOM      2  C   UNL     1       0.217   1.562   0.126  0.00  0.00    +0.044 C 
ATOM      3  C   UNL     1       0.122   0.059   0.078  0.00  0.00    -0.047 A 
ATOM      4  C   UNL     1       0.025  -0.589  -1.140  0.00  0.00    +0.007 A 
ATOM      5  C   UNL     1      -0.063  -1.968  -1.187  0.00  0.00    -0.044 A 
ATOM      6  C   UNL     1      -0.054  -2.703  -0.017  0.00  0.00    -0.005 A 
ATOM      7  C   UNL     1       0.043  -2.055   1.206  0.00  0.00    +0.134 A 
ATOM      8  C   UNL     1       0.136  -0.671   1.251  0.00  0.00    +0.050 A 
ATOM      9  C   UNL     1      -0.151  -4.206  -0.070  0.00  0.00    +0.048 C 
ATOM     10  C   UNL     1      -0.169  -2.670  -2.516  0.00  0.00    +0.044 C 
ENDBRANCH   1   7
BRANCH   1  11
ATOM     11  C   UNL     1       1.238  -3.266   2.795  0.00  0.00    +0.220 A 
ATOM     12  C   UNL     1       1.277  -4.067   3.929  0.00  0.00    +0.068 A 
ATOM     13  C   UNL     1       2.494  -4.561   4.364  0.00  0.00    +0.012 A 
ATOM     14  C   UNL     1       3.636  -4.234   3.644  0.00  0.00    -0.004 A 
ATOM     15  C   UNL     1       3.523  -3.433   2.526  0.00  0.00    +0.120 A 
ATOM     16  N   UNL     1       2.347  -2.981   2.133  0.00  0.00    -0.221 NA
BRANCH  14  17
ATOM     17  C   UNL     1       4.984  -4.749   4.080  0.00  0.00    +0.192 C 
BRANCH  17  18
ATOM     18  O   UNL     1       5.239  -6.006   3.451  0.00  0.00    -0.390 OA
ATOM     19  H   UNL     1       6.092  -6.398   3.687  0.00  0.00    +0.210 HD
ENDBRANCH  17  18
ENDBRANCH  14  17
ENDBRANCH   1  11
TORSDOF 4
