REMARK  Name = ZINC04908833
REMARK  11 active torsions:
REMARK  status: ('A' for Active; 'I' for Inactive)
REMARK    1  A    between atoms: C_1  and  C_2
REMARK    2  A    between atoms: C_2  and  O_30
REMARK    3  A    between atoms: C_6  and  O_10
REMARK    4  A    between atoms: C_11  and  C_21
REMARK    5  A    between atoms: C_13  and  C_15
REMARK    6  A    between atoms: C_15  and  O_17
REMARK    7  A    between atoms: O_17  and  C_18
REMARK    8  A    between atoms: C_18  and  C_19
REMARK    9  A    between atoms: C_24  and  O_29
REMARK   10  A    between atoms: C_25  and  O_27
REMARK   11  A    between atoms: O_27  and  C_28
REMARK                            x       y       z     vdW  Elec       q    Type
REMARK                         _______ _______ _______ _____ _____    ______ ____
ROOT
ATOM      1  C   UNL     1       3.380  -1.383  -1.941  0.00  0.00    +0.042 C 
ATOM      2  C   UNL     1       3.294  -1.762  -0.461  0.00  0.00    +0.082 C 
ATOM      3  C   UNL     1       1.823  -1.810  -0.030  0.00  0.00    +0.090 C 
ATOM      4  C   UNL     1       1.286  -0.400  -0.013  0.00  0.00    +0.046 A 
ATOM      5  C   UNL     1       2.065   0.711  -0.013  0.00  0.00    +0.044 A 
ATOM      6  C   UNL     1       1.225   1.827   0.000  0.00  0.00    +0.235 A 
ATOM      7  N   UNL     1      -0.017   1.399   0.010  0.00  0.00    -0.136 NA
ATOM      8  N   UNL     1       0.002  -0.004   0.002  0.00  0.00    -0.278 N 
ATOM      9  H   UNL     1      -0.798  -0.603   0.007  0.00  0.00    +0.189 HD
ATOM     10  C   UNL     1       3.573   0.687  -0.025  0.00  0.00    +0.073 C 
ATOM     11  C   UNL     1       4.038  -0.718   0.377  0.00  0.00    +0.141 C 
ENDROOT
BRANCH  10  12
ATOM     12  C   UNL     1       4.106   1.698   0.957  0.00  0.00    -0.035 A 
ATOM     13  C   UNL     1       3.765   1.606   2.294  0.00  0.00    +0.008 A 
ATOM     14  C   UNL     1       4.252   2.531   3.199  0.00  0.00    +0.049 A 
ATOM     15  C   UNL     1       5.082   3.553   2.767  0.00  0.00    +0.158 A 
ATOM     16  C   UNL     1       5.424   3.646   1.422  0.00  0.00    +0.162 A 
ATOM     17  C   UNL     1       4.938   2.712   0.520  0.00  0.00    +0.053 A 
BRANCH  16  18
ATOM     18  O   UNL     1       6.239   4.647   0.993  0.00  0.00    -0.491 OA
ATOM     19  C   UNL     1       6.547   4.680  -0.402  0.00  0.00    +0.277 C 
ENDBRANCH  16  18
BRANCH  15  20
ATOM     20  O   UNL     1       5.561   4.463   3.656  0.00  0.00    -0.503 OA
ATOM     21  H   UNL     1       6.405   4.215   4.058  0.00  0.00    +0.292 HD
ENDBRANCH  15  20
ENDBRANCH  10  12
BRANCH   6  22
ATOM     22  O   UNL     1       1.622   3.127   0.003  0.00  0.00    -0.491 OA
ATOM     23  H   UNL     1       0.818   3.722   0.014  0.00  0.00    +0.294 HD
ENDBRANCH   6  22
BRANCH  11  24
ATOM     24  C   UNL     1       5.520  -0.845   0.136  0.00  0.00    +0.314 C 
ATOM     25  O   UNL     1       6.142   0.089  -0.311  0.00  0.00    -0.250 OA
BRANCH  24  26
ATOM     26  O   UNL     1       6.149  -1.997   0.419  0.00  0.00    -0.460 OA
BRANCH  26  27
ATOM     27  C   UNL     1       7.578  -2.047   0.162  0.00  0.00    +0.259 C 
BRANCH  27  28
ATOM     28  C   UNL     1       8.108  -3.407   0.537  0.00  0.00    +0.006 C 
ATOM     29  C   UNL     1       8.932  -4.033  -0.267  0.00  0.00    +0.007 C 
ENDBRANCH  27  28
ENDBRANCH  26  27
ENDBRANCH  24  26
ENDBRANCH  11  24
BRANCH   2  30
ATOM     30  O   UNL     1       3.890  -3.045  -0.262  0.00  0.00    -0.388 OA
ATOM     31  H   UNL     1       3.469  -3.756  -0.764  0.00  0.00    +0.210 HD
ENDBRANCH   2  30
TORSDOF 9
