REMARK  Name = ZINC01235331
REMARK  4 active torsions:
REMARK  status: ('A' for Active; 'I' for Inactive)
REMARK    1  A    between atoms: C_4  and  C_7
REMARK    2  A    between atoms: C_16  and  N_18
REMARK    3  A    between atoms: C_19  and  C_21
REMARK    4  A    between atoms: C_22  and  C_23
REMARK                            x       y       z     vdW  Elec       q    Type
REMARK                         _______ _______ _______ _____ _____    ______ ____
ROOT
ATOM      1  C   UNL     1       3.711  -0.707  -0.038  0.00  0.00    +0.149 C 
ATOM      2  C   UNL     1       3.791  -1.587  -1.288  0.00  0.00    +0.128 C 
ATOM      3  C   UNL     1       2.944  -2.820  -1.139  0.00  0.00    +0.222 C 
ATOM      4  O   UNL     1       2.367  -3.262  -2.110  0.00  0.00    -0.275 OA
ATOM      5  N   UNL     1       2.811  -3.449   0.049  0.00  0.00    -0.255 N 
ATOM      6  C   UNL     1       3.383  -2.851   1.165  0.00  0.00    +0.222 A 
ATOM      7  N   UNL     1       3.812  -1.560   1.146  0.00  0.00    -0.223 N 
ATOM      8  N   UNL     1       4.324  -1.279   2.411  0.00  0.00    -0.127 NA
ATOM      9  C   UNL     1       4.189  -2.382   3.126  0.00  0.00    +0.274 A 
ATOM     10  N   UNL     1       3.613  -3.336   2.353  0.00  0.00    -0.176 NA
ATOM     11  H   UNL     1       2.332  -4.290   0.121  0.00  0.00    +0.158 HD
ENDROOT
BRANCH   1  15
ATOM     12  C   UNL     1      -0.017   1.378   0.010  0.00  0.00    +0.000 A 
ATOM     13  C   UNL     1       1.171   2.086   0.002  0.00  0.00    +0.000 A 
ATOM     14  C   UNL     1       2.377   1.411  -0.013  0.00  0.00    +0.006 A 
ATOM     15  C   UNL     1       2.396   0.029  -0.020  0.00  0.00    -0.023 A 
ATOM     16  C   UNL     1       1.208  -0.679  -0.012  0.00  0.00    +0.006 A 
ATOM     17  C   UNL     1       0.002  -0.004   0.002  0.00  0.00    +0.000 A 
ENDBRANCH   1  15
BRANCH   9  18
ATOM     18  N   UNL     1       4.569  -2.536   4.429  0.00  0.00    -0.170 NA
ATOM     19  C   UNL     1       4.382  -3.688   5.038  0.00  0.00    +0.273 C 
ATOM     20  O   UNL     1       3.813  -4.721   4.372  0.00  0.00    -0.266 OA
BRANCH  19  21
ATOM     21  C   UNL     1       4.776  -3.847   6.388  0.00  0.00    +0.076 C 
ATOM     22  C   UNL     1       4.583  -5.034   7.014  0.00  0.00    +0.051 C 
BRANCH  22  23
ATOM     23  C   UNL     1       4.978  -5.194   8.366  0.00  0.00    +0.128 A 
ATOM     24  C   UNL     1       4.847  -6.340   9.121  0.00  0.00    +0.049 A 
ATOM     25  C   UNL     1       5.366  -6.044  10.392  0.00  0.00    +0.042 A 
ATOM     26  C   UNL     1       5.782  -4.759  10.363  0.00  0.00    +0.195 A 
ATOM     27  O   UNL     1       5.553  -4.252   9.143  0.00  0.00    -0.464 OA
ENDBRANCH  22  23
ENDBRANCH  19  21
ENDBRANCH   9  18
TORSDOF 4
