REMARK  Name = ZINC43763806
REMARK  8 active torsions:
REMARK  status: ('A' for Active; 'I' for Inactive)
REMARK    1  A    between atoms: C_1  and  C_2
REMARK    2  A    between atoms: C_9  and  O_32
REMARK    3  A    between atoms: C_16  and  O_31
REMARK    4  A    between atoms: C_19  and  C_30
REMARK    5  A    between atoms: C_24  and  C_25
REMARK    6  A    between atoms: C_24  and  O_29
REMARK    7  A    between atoms: C_25  and  C_27
REMARK    8  A    between atoms: C_27  and  O_28
REMARK                            x       y       z     vdW  Elec       q    Type
REMARK                         _______ _______ _______ _____ _____    ______ ____
ROOT
ATOM      1  C   UNL     1      -0.261   1.635  -1.159  0.00  0.00    +0.016 C 
ATOM      2  C   UNL     1      -0.157   0.128  -0.916  0.00  0.00    -0.002 C 
ATOM      3  C   UNL     1       0.447  -0.574  -2.127  0.00  0.00    +0.019 C 
ATOM      4  C   UNL     1       1.877  -0.080  -2.365  0.00  0.00    +0.080 C 
ATOM      5  C   UNL     1       2.684  -0.273  -1.106  0.00  0.00    +0.156 C 
ATOM      6  O   UNL     1       3.888  -0.407  -1.172  0.00  0.00    -0.293 OA
ATOM      7  C   UNL     1       2.017  -0.295   0.194  0.00  0.00    +0.048 C 
ATOM      8  C   UNL     1       0.708  -0.113   0.303  0.00  0.00    -0.032 C 
ATOM      9  C   UNL     1       0.033  -0.139   1.656  0.00  0.00    +0.141 C 
ATOM     10  C   UNL     1      -0.960  -1.305   1.690  0.00  0.00    +0.040 C 
ATOM     11  C   UNL     1      -1.375  -1.678   0.277  0.00  0.00    +0.002 C 
ATOM     12  C   UNL     1      -1.548  -0.443  -0.607  0.00  0.00    +0.031 C 
ATOM     13  C   UNL     1      -2.299  -0.806  -1.881  0.00  0.00    +0.119 C 
ATOM     14  C   UNL     1      -3.735  -1.265  -1.589  0.00  0.00    +0.041 C 
ATOM     15  C   UNL     1      -3.858  -1.817  -0.192  0.00  0.00    +0.009 C 
ATOM     16  C   UNL     1      -2.576  -2.572   0.212  0.00  0.00    +0.002 C 
ATOM     17  C   UNL     1      -3.001  -3.254   1.522  0.00  0.00    +0.008 C 
ATOM     18  C   UNL     1      -4.464  -3.691   1.240  0.00  0.00    +0.043 C 
ATOM     19  C   UNL     1      -4.910  -2.935  -0.035  0.00  0.00    +0.131 C 
ATOM     20  C   UNL     1      -4.224  -0.712   0.802  0.00  0.00    +0.015 C 
ENDROOT
BRANCH  19  21
ATOM     21  C   UNL     1      -6.275  -2.334   0.155  0.00  0.00    +0.190 C 
ATOM     22  O   UNL     1      -6.714  -2.173   1.268  0.00  0.00    -0.292 OA
BRANCH  21  23
ATOM     23  C   UNL     1      -7.096  -1.934  -1.044  0.00  0.00    +0.233 C 
BRANCH  23  24
ATOM     24  O   UNL     1      -8.344  -1.392  -0.607  0.00  0.00    -0.387 OA
ATOM     25  H   UNL     1      -8.925  -1.112  -1.328  0.00  0.00    +0.210 HD
ENDBRANCH  23  24
ENDBRANCH  21  23
ENDBRANCH  19  21
BRANCH  19  26
ATOM     26  O   UNL     1      -4.886  -3.803  -1.165  0.00  0.00    -0.380 OA
ATOM     27  H   UNL     1      -5.527  -4.525  -1.120  0.00  0.00    +0.211 HD
ENDBRANCH  19  26
BRANCH  13  28
ATOM     28  O   UNL     1      -2.361   0.324  -2.760  0.00  0.00    -0.391 OA
ATOM     29  H   UNL     1      -2.829   0.152  -3.589  0.00  0.00    +0.210 HD
ENDBRANCH  13  28
BRANCH   9  30
ATOM     30  O   UNL     1       1.006  -0.319   2.684  0.00  0.00    -0.387 OA
ATOM     31  H   UNL     1       1.676   0.378   2.718  0.00  0.00    +0.210 HD
ENDBRANCH   9  30
TORSDOF 6
