REMARK  Name = ZINC08986433
REMARK  3 active torsions:
REMARK  status: ('A' for Active; 'I' for Inactive)
REMARK    1  A    between atoms: N_14  and  C_18
REMARK    2  A    between atoms: C_18  and  C_19
REMARK    3  A    between atoms: C_23  and  N_25
REMARK                            x       y       z     vdW  Elec       q    Type
REMARK                         _______ _______ _______ _____ _____    ______ ____
ROOT
ATOM      1  C   UNL     1      -2.107   4.737  -3.878  0.00  0.00    +0.000 A 
ATOM      2  C   UNL     1      -2.367   3.450  -3.446  0.00  0.00    +0.000 A 
ATOM      3  C   UNL     1      -1.907   3.032  -2.214  0.00  0.00    +0.006 A 
ATOM      4  C   UNL     1      -1.179   3.899  -1.401  0.00  0.00    -0.012 A 
ATOM      5  C   UNL     1      -0.917   5.166  -1.835  0.00  0.00    -0.042 A 
ATOM      6  C   UNL     1      -1.383   5.593  -3.074  0.00  0.00    +0.004 A 
ATOM      7  C   UNL     1      -0.126   6.167  -1.020  0.00  0.00    +0.035 C 
ATOM      8  C   UNL     1      -0.904   6.506   0.250  0.00  0.00    +0.005 C 
ATOM      9  C   UNL     1      -0.660   5.467   1.326  0.00  0.00    +0.003 C 
ATOM     10  C   UNL     1      -1.349   4.141   1.078  0.00  0.00    +0.040 C 
ATOM     11  C   UNL     1      -0.718   3.360  -0.068  0.00  0.00    +0.138 C 
ATOM     12  C   UNL     1       0.779   3.290   0.029  0.00  0.00    +0.251 C 
ATOM     13  O   UNL     1       1.586   4.190   0.113  0.00  0.00    -0.272 OA
ATOM     14  N   UNL     1       1.086   1.971   0.002  0.00  0.00    -0.220 N 
ATOM     15  C   UNL     1      -0.014   1.212   0.009  0.00  0.00    +0.310 C 
ATOM     16  O   UNL     1       0.002  -0.004   0.002  0.00  0.00    -0.252 OA
ATOM     17  N   UNL     1      -1.140   1.947   0.037  0.00  0.00    -0.281 N 
ATOM     18  H   UNL     1      -2.051   1.631   0.116  0.00  0.00    +0.152 HD
ENDROOT
BRANCH  14  19
ATOM     19  C   UNL     1       2.454   1.449  -0.027  0.00  0.00    +0.153 C 
BRANCH  19  20
ATOM     20  C   UNL     1       2.900   1.290  -1.458  0.00  0.00    -0.027 A 
ATOM     21  C   UNL     1       2.682   0.097  -2.122  0.00  0.00    +0.005 A 
ATOM     22  C   UNL     1       3.088  -0.048  -3.435  0.00  0.00    +0.003 A 
ATOM     23  C   UNL     1       3.719   0.998  -4.082  0.00  0.00    +0.033 A 
ATOM     24  C   UNL     1       3.941   2.189  -3.417  0.00  0.00    +0.127 A 
ATOM     25  C   UNL     1       3.532   2.335  -2.105  0.00  0.00    +0.038 A 
BRANCH  24  26
ATOM     26  N   UNL     1       4.618   3.309  -4.110  0.00  0.00    +0.056 N 
ATOM     27  O   UNL     1       4.814   4.358  -3.524  0.00  0.00    -0.126 OA
ATOM     28  O   UNL     1       4.978   3.180  -5.267  0.00  0.00    -0.126 OA
ENDBRANCH  24  26
ENDBRANCH  19  20
ENDBRANCH  14  19
TORSDOF 3
