REMARK  Name = ZINC62235137
REMARK  3 active torsions:
REMARK  status: ('A' for Active; 'I' for Inactive)
REMARK    1  A    between atoms: C_2  and  C_14
REMARK    2  A    between atoms: C_14  and  C_16
REMARK    3  A    between atoms: C_14  and  N_23
REMARK                            x       y       z     vdW  Elec       q    Type
REMARK                         _______ _______ _______ _____ _____    ______ ____
ROOT
ATOM      1  C   UNL     1       0.587   1.491  -1.221  0.00  0.00    +0.031 A 
ATOM      2  C   UNL     1       0.930   2.103  -0.031  0.00  0.00    -0.045 A 
ATOM      3  C   UNL     1       1.071   1.353   1.124  0.00  0.00    +0.022 A 
ATOM      4  C   UNL     1       0.871  -0.015   1.096  0.00  0.00    +0.043 A 
ATOM      5  C   UNL     1       0.526  -0.637  -0.094  0.00  0.00    +0.068 A 
ATOM      6  C   UNL     1       0.383   0.120  -1.259  0.00  0.00    +0.067 A 
ATOM      7  N   UNL     1       0.038  -0.767  -2.276  0.00  0.00    -0.306 N 
ATOM      8  H   UNL     1      -0.128  -0.533  -3.202  0.00  0.00    +0.170 HD
ATOM      9  C   UNL     1      -0.026  -2.007  -1.753  0.00  0.00    +0.325 A 
ATOM     10  O   UNL     1      -0.304  -3.016  -2.374  0.00  0.00    -0.247 OA
ATOM     11  N   UNL     1       0.263  -1.960  -0.439  0.00  0.00    -0.306 N 
ATOM     12  H   UNL     1       0.285  -2.720   0.165  0.00  0.00    +0.170 HD
ATOM     13 BR   UNL     1       1.542   2.202   2.747  0.00  0.00    -0.050 Br
ENDROOT
BRANCH   2  14
ATOM     14  C   UNL     1       1.151   3.593   0.010  0.00  0.00    -0.038 C 
BRANCH  14  15
ATOM     15  C   UNL     1       1.382   4.113  -1.410  0.00  0.00    +0.005 C 
ATOM     16  C   UNL     1       1.489   5.641  -1.385  0.00  0.00    +0.007 C 
ATOM     17  C   UNL     1       1.796   6.144  -2.798  0.00  0.00    +0.028 C 
ATOM     18  C   UNL     1       3.082   5.480  -3.299  0.00  0.00    +0.160 C 
ATOM     19  O   UNL     1       2.925   4.060  -3.269  0.00  0.00    -0.380 OA
ATOM     20  C   UNL     1       2.682   3.526  -1.966  0.00  0.00    +0.162 C 
ENDBRANCH  14  15
BRANCH  14  21
ATOM     21  N   UNL     1      -0.030   4.248   0.586  0.00  0.00    +0.383 N 
ATOM     22  H   UNL     1      -0.182   3.905   1.522  0.00  0.00    -0.089 HD
ATOM     23  H   UNL     1       0.118   5.246   0.613  0.00  0.00    -0.089 HD
ATOM     24  H   UNL     1      -0.839   4.044   0.018  0.00  0.00    -0.089 HD
ENDBRANCH  14  21
ENDBRANCH   2  14
TORSDOF 3
