REMARK  Name = ZINC18053636
REMARK  3 active torsions:
REMARK  status: ('A' for Active; 'I' for Inactive)
REMARK    1  A    between atoms: C_10  and  C_16
REMARK    2  A    between atoms: C_19  and  O_25
REMARK    3  A    between atoms: C_20  and  N_22
REMARK                            x       y       z     vdW  Elec       q    Type
REMARK                         _______ _______ _______ _____ _____    ______ ____
ROOT
ATOM      1  C   UNL     1      -0.017   1.373   0.010  0.00  0.00    +0.002 A 
ATOM      2  C   UNL     1       1.170   2.091   0.002  0.00  0.00    +0.002 A 
ATOM      3  C   UNL     1       2.384   1.436  -0.013  0.00  0.00    +0.028 A 
ATOM      4  C   UNL     1       2.425   0.049  -0.021  0.00  0.00    +0.072 A 
ATOM      5  C   UNL     1       1.223  -0.684  -0.014  0.00  0.00    +0.091 A 
ATOM      6  C   UNL     1       0.002  -0.004   0.002  0.00  0.00    +0.030 A 
ATOM      7  N   UNL     1       1.550  -2.004  -0.026  0.00  0.00    -0.210 NA
ATOM      8  C   UNL     1       2.850  -2.135  -0.051  0.00  0.00    +0.236 A 
ATOM      9  N   UNL     1       3.434  -0.883  -0.033  0.00  0.00    -0.285 N 
ATOM     10  C   UNL     1       4.891  -0.705  -0.021  0.00  0.00    +0.209 C 
ATOM     11  N   UNL     1       5.471  -1.938  -0.584  0.00  0.00    -0.293 N 
ATOM     12  C   UNL     1       4.897  -3.150  -0.308  0.00  0.00    +0.183 C 
ATOM     13  N   UNL     1       3.600  -3.262  -0.075  0.00  0.00    -0.183 NA
ATOM     14  N   UNL     1       5.682  -4.270  -0.272  0.00  0.00    -0.331 N 
ATOM     15  H   UNL     1       6.257  -1.890  -1.150  0.00  0.00    +0.151 HD
ATOM     16  H   UNL     1       6.635  -4.199  -0.442  0.00  0.00    +0.145 HD
ATOM     17  H   UNL     1       5.287  -5.134  -0.077  0.00  0.00    +0.145 HD
ENDROOT
BRANCH  10  18
ATOM     18  C   UNL     1       5.374  -0.504   1.392  0.00  0.00    -0.004 A 
ATOM     19  C   UNL     1       5.546  -1.595   2.225  0.00  0.00    +0.011 A 
ATOM     20  C   UNL     1       5.989  -1.413   3.520  0.00  0.00    +0.048 A 
ATOM     21  C   UNL     1       6.261  -0.135   3.986  0.00  0.00    +0.147 A 
ATOM     22  C   UNL     1       6.088   0.958   3.149  0.00  0.00    +0.168 A 
ATOM     23  C   UNL     1       5.649   0.770   1.853  0.00  0.00    +0.043 A 
BRANCH  22  24
ATOM     24  N   UNL     1       6.377   2.323   3.644  0.00  0.00    +0.060 N 
ATOM     25  O   UNL     1       6.225   3.275   2.914  0.00  0.00    -0.126 OA
ATOM     26  O   UNL     1       6.764   2.486   4.777  0.00  0.00    -0.126 OA
ENDBRANCH  22  24
BRANCH  21  27
ATOM     27  O   UNL     1       6.697   0.047   5.261  0.00  0.00    -0.504 OA
ATOM     28  H   UNL     1       7.659   0.021   5.355  0.00  0.00    +0.292 HD
ENDBRANCH  21  27
ENDBRANCH  10  18
TORSDOF 3
