REMARK  Name = ZINC12146704
REMARK  5 active torsions:
REMARK  status: ('A' for Active; 'I' for Inactive)
REMARK    1  A    between atoms: C_4  and  C_7
REMARK    2  A    between atoms: C_14  and  C_16
REMARK    3  A    between atoms: C_16  and  N_17
REMARK    4  A    between atoms: C_20  and  N_29
REMARK    5  A    between atoms: C_22  and  C_24
REMARK                            x       y       z     vdW  Elec       q    Type
REMARK                         _______ _______ _______ _____ _____    ______ ____
ROOT
ATOM      1  C   UNL     1       3.550   1.599   3.159  0.00  0.00    +0.243 C 
ENDROOT
BRANCH   1   8
ATOM      2  C   UNL     1      -0.019   1.526   0.010  0.00  0.00    +0.036 C 
ATOM      3  C   UNL     1       0.002  -0.004   0.002  0.00  0.00    +0.011 C 
ATOM      4  C   UNL     1       0.712  -0.513   1.258  0.00  0.00    +0.020 C 
ATOM      5  C   UNL     1       2.159  -0.010   1.262  0.00  0.00    +0.108 C 
ATOM      6  N   UNL     1       2.151   1.453   1.124  0.00  0.00    -0.299 N 
ATOM      7  C   UNL     1       1.420   2.052  -0.001  0.00  0.00    +0.116 C 
ATOM      8  C   UNL     1       2.803   2.229   2.011  0.00  0.00    +0.237 C 
ATOM      9  O   UNL     1       2.789   3.436   1.887  0.00  0.00    -0.274 OA
BRANCH   2  13
ATOM     10  C   UNL     1      -2.081   2.944  -3.451  0.00  0.00    +0.000 A 
ATOM     11  C   UNL     1      -2.547   3.263  -2.190  0.00  0.00    +0.000 A 
ATOM     12  C   UNL     1      -1.880   2.805  -1.070  0.00  0.00    +0.004 A 
ATOM     13  C   UNL     1      -0.746   2.026  -1.211  0.00  0.00    -0.043 A 
ATOM     14  C   UNL     1      -0.277   1.710  -2.472  0.00  0.00    +0.004 A 
ATOM     15  C   UNL     1      -0.948   2.165  -3.593  0.00  0.00    +0.000 A 
ENDBRANCH   2  13
ENDBRANCH   1   8
BRANCH   1  16
ATOM     16  N   UNL     1       4.168   2.648   3.974  0.00  0.00    -0.218 N 
ATOM     17  C   UNL     1       3.485   3.189   5.002  0.00  0.00    +0.288 A 
ATOM     18  O   UNL     1       2.353   2.808   5.256  0.00  0.00    -0.264 OA
ATOM     19  C   UNL     1       4.091   4.200   5.791  0.00  0.00    +0.094 A 
ATOM     20  C   UNL     1       5.355   4.614   5.486  0.00  0.00    +0.061 A 
ATOM     21  C   UNL     1       6.037   4.028   4.397  0.00  0.00    +0.128 A 
ATOM     22  N   UNL     1       5.463   3.087   3.678  0.00  0.00    -0.165 NA
BRANCH  21  23
ATOM     23  C   UNL     1       7.406   4.474   4.064  0.00  0.00    +0.155 A 
ATOM     24  C   UNL     1       8.177   3.995   3.052  0.00  0.00    +0.051 A 
ATOM     25  C   UNL     1       9.395   4.702   3.099  0.00  0.00    +0.042 A 
ATOM     26  C   UNL     1       9.311   5.562   4.133  0.00  0.00    +0.196 A 
ATOM     27  O   UNL     1       8.109   5.422   4.713  0.00  0.00    -0.461 OA
ENDBRANCH  21  23
BRANCH  19  28
ATOM     28  N   UNL     1       3.403   4.767   6.863  0.00  0.00    -0.354 N 
ATOM     29  H   UNL     1       3.822   5.461   7.396  0.00  0.00    +0.142 HD
ATOM     30  H   UNL     1       2.504   4.468   7.075  0.00  0.00    +0.142 HD
ENDBRANCH  19  28
ENDBRANCH   1  16
TORSDOF 5
