REMARK  Name = ZINC40733505
REMARK  4 active torsions:
REMARK  status: ('A' for Active; 'I' for Inactive)
REMARK    1  A    between atoms: C_1  and  C_2
REMARK    2  A    between atoms: C_2  and  C_3
REMARK    3  A    between atoms: C_11  and  N_22
REMARK    4  A    between atoms: C_12  and  N_16
REMARK                            x       y       z     vdW  Elec       q    Type
REMARK                         _______ _______ _______ _____ _____    ______ ____
ROOT
ATOM      1  C   UNL     1       0.779  -0.381  -1.297  0.00  0.00    +0.075 C 
ATOM      2  C   UNL     1       0.902  -1.906  -1.385  0.00  0.00    +0.022 C 
ATOM      3  C   UNL     1       1.530  -2.286  -2.728  0.00  0.00    +0.003 C 
ATOM      4  C   UNL     1       0.629  -1.808  -3.868  0.00  0.00    +0.019 C 
ATOM      5  C   UNL     1       0.503  -0.282  -3.808  0.00  0.00    +0.107 C 
ATOM      6  N   UNL     1       0.039   0.105  -2.469  0.00  0.00    -0.311 N 
ATOM      7  C   UNL     1      -1.082   0.912  -2.314  0.00  0.00    +0.147 A 
ATOM      8  C   UNL     1      -0.967   2.303  -2.359  0.00  0.00    +0.106 A 
ATOM      9  C   UNL     1      -2.124   3.066  -2.198  0.00  0.00    +0.150 A 
ATOM     10  N   UNL     1      -3.285   2.443  -2.008  0.00  0.00    -0.219 NA
ATOM     11  C   UNL     1      -3.351   1.128  -1.971  0.00  0.00    +0.225 A 
ATOM     12  N   UNL     1      -2.283   0.371  -2.124  0.00  0.00    -0.219 NA
ENDROOT
BRANCH   9  13
ATOM     13  N   UNL     1      -2.065   4.455  -2.235  0.00  0.00    -0.277 N 
ATOM     14  C   UNL     1      -3.222   5.203  -2.073  0.00  0.00    +0.163 A 
ATOM     15  N   UNL     1      -4.450   4.776  -1.871  0.00  0.00    -0.233 NA
ATOM     16  C   UNL     1      -5.453   5.625  -1.736  0.00  0.00    +0.120 A 
ATOM     17  C   UNL     1      -5.159   6.945  -1.813  0.00  0.00    +0.068 A 
ATOM     18  S   UNL     1      -3.394   6.877  -2.080  0.00  0.00    -0.061 S 
ATOM     19  H   UNL     1      -1.214   4.901  -2.373  0.00  0.00    +0.156 HD
ENDBRANCH   9  13
BRANCH   8  20
ATOM     20  N   UNL     1       0.280   2.917  -2.562  0.00  0.00    -0.353 N 
ATOM     21  H   UNL     1       1.086   2.378  -2.591  0.00  0.00    +0.143 HD
ATOM     22  H   UNL     1       0.334   3.879  -2.671  0.00  0.00    +0.143 HD
ENDBRANCH   8  20
BRANCH   1  24
ATOM     23  C   UNL     1       0.866  -0.385   1.200  0.00  0.00    +0.006 C 
ATOM     24  C   UNL     1       0.027  -0.000  -0.020  0.00  0.00    +0.019 C 
ENDBRANCH   1  24
TORSDOF 3
