REMARK  Name = ZINC00128841
REMARK  6 active torsions:
REMARK  status: ('A' for Active; 'I' for Inactive)
REMARK    1  A    between atoms: C_1  and  C_2
REMARK    2  A    between atoms: C_7  and  C_8
REMARK    3  A    between atoms: C_8  and  N_9
REMARK    4  A    between atoms: C_17  and  C_18
REMARK    5  A    between atoms: C_18  and  C_20
REMARK    6  A    between atoms: C_18  and  O_21
REMARK                            x       y       z     vdW  Elec       q    Type
REMARK                         _______ _______ _______ _____ _____    ______ ____
ROOT
ATOM      1  N   UNL     1      -1.294   0.750   2.672  0.00  0.00    -0.321 N 
ATOM      2  C   UNL     1      -1.837   1.920   2.179  0.00  0.00    +0.069 A 
ATOM      3  C   UNL     1      -1.371   2.925   1.343  0.00  0.00    +0.028 A 
ATOM      4  C   UNL     1      -2.189   3.992   1.036  0.00  0.00    +0.002 A 
ATOM      5  C   UNL     1      -3.473   4.067   1.558  0.00  0.00    +0.002 A 
ATOM      6  C   UNL     1      -3.948   3.087   2.384  0.00  0.00    +0.030 A 
ATOM      7  C   UNL     1      -3.137   1.996   2.708  0.00  0.00    +0.089 A 
ATOM      8  N   UNL     1      -3.316   0.893   3.479  0.00  0.00    -0.230 NA
ATOM      9  C   UNL     1      -2.240   0.162   3.453  0.00  0.00    +0.140 A 
ENDROOT
BRANCH   9  10
ATOM     10  C   UNL     1      -2.066  -1.145   4.184  0.00  0.00    +0.177 C 
ATOM     11  C   UNL     1      -2.843  -2.244   3.456  0.00  0.00    +0.046 C 
BRANCH  10  12
ATOM     12  O   UNL     1      -2.562  -1.014   5.518  0.00  0.00    -0.384 OA
ATOM     13  H   UNL     1      -2.482  -1.818   6.048  0.00  0.00    +0.210 HD
ENDBRANCH  10  12
ENDBRANCH   9  10
BRANCH   1  14
ATOM     14  C   UNL     1       0.050   0.235   2.399  0.00  0.00    +0.159 C 
BRANCH  14  21
ATOM     15  C   UNL     1       2.864  -0.392   2.210  0.00  0.00    +0.044 C 
ATOM     16  C   UNL     1       2.359   0.476   3.334  0.00  0.00    -0.046 A 
ATOM     17  C   UNL     1       3.243   0.976   4.272  0.00  0.00    +0.004 A 
ATOM     18  C   UNL     1       2.780   1.772   5.303  0.00  0.00    +0.000 A 
ATOM     19  C   UNL     1       1.433   2.067   5.396  0.00  0.00    +0.000 A 
ATOM     20  C   UNL     1       0.549   1.568   4.459  0.00  0.00    +0.005 A 
ATOM     21  C   UNL     1       1.013   0.775   3.425  0.00  0.00    -0.025 A 
ENDBRANCH  14  21
ENDBRANCH   1  14
TORSDOF 4
