REMARK  Name = ZINC09973336
REMARK  3 active torsions:
REMARK  status: ('A' for Active; 'I' for Inactive)
REMARK    1  A    between atoms: C_4  and  C_7
REMARK    2  A    between atoms: C_7  and  N_8
REMARK    3  A    between atoms: C_37  and  C_39
REMARK                            x       y       z     vdW  Elec       q    Type
REMARK                         _______ _______ _______ _____ _____    ______ ____
ROOT
ATOM      1  N   UNL     1       5.209   1.248   2.297  0.00  0.00    -0.292 N 
ATOM      2  C   UNL     1       4.667   1.931   1.245  0.00  0.00    +0.090 A 
ATOM      3  C   UNL     1       3.456   1.492   0.796  0.00  0.00    +0.033 A 
ATOM      4  S   UNL     1       3.105   0.133   1.881  0.00  0.00    -0.030 S 
ATOM      5  C   UNL     1       4.553   0.199   2.837  0.00  0.00    +0.292 A 
ATOM      6  O   UNL     1       4.890  -0.523   3.760  0.00  0.00    -0.259 OA
ATOM      7  C   UNL     1       2.667   2.031  -0.319  0.00  0.00    +0.066 C 
ATOM      8  C   UNL     1       1.225   1.615  -0.421  0.00  0.00    +0.003 A 
ATOM      9  C   UNL     1       0.935   0.271  -0.533  0.00  0.00    +0.008 A 
ATOM     10  C   UNL     1      -0.365  -0.175  -0.636  0.00  0.00    +0.001 A 
ATOM     11  C   UNL     1      -1.391   0.753  -0.652  0.00  0.00    +0.004 A 
ATOM     12  C   UNL     1      -1.104   2.094  -0.552  0.00  0.00    +0.046 A 
ATOM     13  C   UNL     1       0.192   2.572  -0.414  0.00  0.00    +0.135 A 
ATOM     14  O   UNL     1       0.405   3.846  -0.235  0.00  0.00    -0.425 OA
ATOM     15  C   UNL     1       0.567   4.983  -0.841  0.00  0.00    +0.317 C 
ATOM     16  O   UNL     1      -0.285   5.866  -0.679  0.00  0.00    -0.250 OA
ATOM     17  C   UNL     1       1.722   5.302  -1.772  0.00  0.00    +0.116 C 
ATOM     18  C   UNL     1       2.445   3.917  -2.028  0.00  0.00    +0.009 C 
ATOM     19  C   UNL     1       2.822   3.477  -0.640  0.00  0.00    +0.019 C 
ATOM     20  C   UNL     1       4.012   4.210  -0.158  0.00  0.00    +0.061 C 
ATOM     21  S   UNL     1       5.425   3.337   0.441  0.00  0.00    -0.103 S 
ATOM     22  C   UNL     1       4.158   5.337  -1.208  0.00  0.00    +0.018 C 
ATOM     23  C   UNL     1       3.816   4.536  -2.523  0.00  0.00    +0.010 C 
ATOM     24  C   UNL     1       2.822   6.155  -1.121  0.00  0.00    +0.120 C 
ENDROOT
BRANCH  24  25
ATOM     25  C   UNL     1       2.470   6.675   0.229  0.00  0.00    +0.360 C 
ATOM     26  O   UNL     1       1.950   5.946   1.040  0.00  0.00    -0.246 OA
ATOM     27  O   UNL     1       2.732   7.953   0.545  0.00  0.00    -0.246 OA
ENDBRANCH  24  25
BRANCH   1  28
ATOM     28  C   UNL     1       6.507   1.658   2.840  0.00  0.00    +0.161 C 
BRANCH  28  32
ATOM     29  C   UNL     1       5.910   4.537   5.938  0.00  0.00    +0.000 A 
ATOM     30  C   UNL     1       5.946   3.190   6.245  0.00  0.00    +0.000 A 
ATOM     31  C   UNL     1       6.139   2.258   5.242  0.00  0.00    +0.005 A 
ATOM     32  C   UNL     1       6.296   2.674   3.933  0.00  0.00    -0.028 A 
ATOM     33  C   UNL     1       6.265   4.021   3.627  0.00  0.00    +0.005 A 
ATOM     34  C   UNL     1       6.067   4.953   4.629  0.00  0.00    +0.000 A 
ENDBRANCH  28  32
ENDBRANCH   1  28
TORSDOF 3
