REMARK  Name = ZINC46088490
REMARK  5 active torsions:
REMARK  status: ('A' for Active; 'I' for Inactive)
REMARK    1  A    between atoms: C_1  and  C_2
REMARK    2  A    between atoms: C_5  and  C_7
REMARK    3  A    between atoms: N_9  and  C_10
REMARK    4  A    between atoms: C_19  and  C_21
REMARK    5  A    between atoms: C_19  and  C_22
REMARK                            x       y       z     vdW  Elec       q    Type
REMARK                         _______ _______ _______ _____ _____    ______ ____
ROOT
ATOM      1  C   UNL     1       3.008  -5.373   0.048  0.00  0.00    +0.036 A 
ATOM      2  C   UNL     1       2.217  -6.514   0.033  0.00  0.00    +0.027 A 
ATOM      3  C   UNL     1       2.800  -7.765   0.112  0.00  0.00    +0.049 A 
ATOM      4  C   UNL     1       4.176  -7.882   0.206  0.00  0.00    +0.143 A 
ATOM      5  C   UNL     1       4.973  -6.738   0.221  0.00  0.00    +0.077 A 
ATOM      6  C   UNL     1       4.389  -5.486   0.136  0.00  0.00    +0.050 A 
ATOM      7  N   UNL     1       6.365  -6.874   0.319  0.00  0.00    -0.279 N 
ATOM      8  C   UNL     1       6.924  -8.080   0.080  0.00  0.00    +0.261 C 
ATOM      9  O   UNL     1       8.123  -8.228   0.188  0.00  0.00    -0.271 OA
ATOM     10  C   UNL     1       6.051  -9.242  -0.322  0.00  0.00    +0.180 C 
ATOM     11  O   UNL     1       4.763  -9.107   0.283  0.00  0.00    -0.475 OA
ATOM     12  C   UNL     1       6.697 -10.549   0.141  0.00  0.00    +0.065 C 
ATOM     13  C   UNL     1       5.899  -9.262  -1.845  0.00  0.00    +0.065 C 
ATOM     14  H   UNL     1       6.918  -6.113   0.555  0.00  0.00    +0.155 HD
ENDROOT
BRANCH   1  17
ATOM     15  C   UNL     1       1.223  -3.884   0.559  0.00  0.00    +0.255 C 
ATOM     16  O   UNL     1       0.626  -4.801   1.091  0.00  0.00    -0.269 OA
ATOM     17  N   UNL     1       2.413  -4.108  -0.033  0.00  0.00    -0.281 N 
ATOM     18  H   UNL     1       2.857  -3.392  -0.514  0.00  0.00    +0.155 HD
BRANCH  15  23
ATOM     19  C   UNL     1      -0.027   1.499   0.007  0.00  0.00    +0.051 C 
ATOM     20  C   UNL     1       0.070   0.022   0.292  0.00  0.00    -0.013 A 
ATOM     21  C   UNL     1      -0.821  -0.759   0.951  0.00  0.00    +0.011 A 
ATOM     22  C   UNL     1      -0.548  -2.097   1.109  0.00  0.00    +0.021 A 
ATOM     23  C   UNL     1       0.648  -2.536   0.562  0.00  0.00    +0.074 A 
ATOM     24  S   UNL     1       1.302  -1.034  -0.141  0.00  0.00    -0.089 S 
ENDBRANCH  15  23
ENDBRANCH   1  17
TORSDOF 2
