REMARK  Name = ZINC41070130
REMARK  6 active torsions:
REMARK  status: ('A' for Active; 'I' for Inactive)
REMARK    1  A    between atoms: C_1  and  N_2
REMARK    2  A    between atoms: N_2  and  C_3
REMARK    3  A    between atoms: N_2  and  S_9
REMARK    4  A    between atoms: S_9  and  C_12
REMARK    5  A    between atoms: C_17  and  N_18
REMARK    6  A    between atoms: N_18  and  N_19
REMARK                            x       y       z     vdW  Elec       q    Type
REMARK                         _______ _______ _______ _____ _____    ______ ____
ROOT
ATOM      1  C   UNL     1       1.682  -1.059  -1.905  0.00  0.00    +0.147 A 
ATOM      2  C   UNL     1       2.218  -2.333  -1.979  0.00  0.00    +0.048 A 
ATOM      3  C   UNL     1       3.548  -2.471  -2.352  0.00  0.00    +0.038 A 
ATOM      4  C   UNL     1       4.292  -1.342  -2.637  0.00  0.00    +0.128 A 
ATOM      5  N   UNL     1       3.754  -0.140  -2.558  0.00  0.00    -0.236 NA
ATOM      6  C   UNL     1       2.487   0.032  -2.212  0.00  0.00    +0.159 A 
ATOM      7 BR   UNL     1       4.334  -4.187  -2.469  0.00  0.00    -0.049 Br
ENDROOT
BRANCH   1   8
ATOM      8  S   UNL     1      -0.000  -0.824  -1.437  0.00  0.00    +0.064 S 
ATOM      9  O   UNL     1      -0.531  -2.115  -1.167  0.00  0.00    -0.153 OA
ATOM     10  O   UNL     1      -0.572   0.049  -2.401  0.00  0.00    -0.153 OA
BRANCH   8  12
ATOM     11  C   UNL     1      -0.018   1.461   0.010  0.00  0.00    +0.132 C 
ATOM     12  N   UNL     1       0.002  -0.004   0.002  0.00  0.00    -0.176 NA
BRANCH  12  13
ATOM     13  C   UNL     1       0.024  -0.743   1.267  0.00  0.00    +0.084 C 
ATOM     14  C   UNL     1       1.271  -0.353   2.066  0.00  0.00    +0.049 C 
ATOM     15  C   UNL     1       1.245  -1.071   3.419  0.00  0.00    +0.161 C 
ATOM     16  O   UNL     1       0.045  -0.728   4.115  0.00  0.00    -0.380 OA
ATOM     17  C   UNL     1      -1.153  -1.111   3.437  0.00  0.00    +0.161 C 
ATOM     18  C   UNL     1      -1.223  -0.396   2.085  0.00  0.00    +0.049 C 
ENDBRANCH  12  13
ENDBRANCH   8  12
ENDBRANCH   1   8
BRANCH   6  19
ATOM     19  N   UNL     1       1.960   1.317  -2.148  0.00  0.00    -0.266 N 
ATOM     20  H   UNL     1       1.034   1.449  -1.890  0.00  0.00    +0.167 HD
BRANCH  19  21
ATOM     21  N   UNL     1       2.745   2.394  -2.447  0.00  0.00    -0.255 NA
ATOM     22  H   UNL     1       2.227   3.255  -2.357  0.00  0.00    +0.140 HD
ATOM     23  H   UNL     1       3.574   2.408  -1.872  0.00  0.00    +0.140 HD
ENDBRANCH  19  21
ENDBRANCH   6  19
TORSDOF 5
