REMARK  Name = ZINC02819262
REMARK  5 active torsions:
REMARK  status: ('A' for Active; 'I' for Inactive)
REMARK    1  A    between atoms: C_2  and  C_3
REMARK    2  A    between atoms: C_3  and  O_4
REMARK    3  A    between atoms: O_4  and  C_5
REMARK    4  A    between atoms: C_8  and  C_12
REMARK    5  A    between atoms: N_19  and  C_22
REMARK                            x       y       z     vdW  Elec       q    Type
REMARK                         _______ _______ _______ _____ _____    ______ ____
ROOT
ATOM      1  C   UNL     1       5.623  -5.316   2.033  0.00  0.00    +0.026 C 
ATOM      2  C   UNL     1       6.778  -4.744   2.541  0.00  0.00    +0.102 C 
ATOM      3  C   UNL     1       6.797  -3.357   3.033  0.00  0.00    +0.276 C 
ATOM      4  O   UNL     1       5.682  -2.598   3.003  0.00  0.00    -0.268 OA
ATOM      5  N   UNL     1       7.933  -2.872   3.505  0.00  0.00    -0.123 NA
ATOM      6  C   UNL     1       9.048  -3.597   3.547  0.00  0.00    +0.340 C 
ATOM      7  O   UNL     1      10.055  -3.078   3.997  0.00  0.00    -0.250 OA
ATOM      8  N   UNL     1       9.125  -4.866   3.123  0.00  0.00    -0.188 N 
ATOM      9  C   UNL     1       8.044  -5.500   2.619  0.00  0.00    +0.264 C 
ATOM     10  O   UNL     1       8.112  -6.653   2.238  0.00  0.00    -0.269 OA
ENDROOT
BRANCH   1  14
ATOM     11  C   UNL     1       2.285  -2.885   1.113  0.00  0.00    +0.157 A 
ATOM     12  C   UNL     1       3.564  -2.472   0.752  0.00  0.00    +0.085 A 
ATOM     13  C   UNL     1       4.650  -3.255   1.048  0.00  0.00    +0.031 A 
ATOM     14  C   UNL     1       4.470  -4.476   1.716  0.00  0.00    -0.021 A 
ATOM     15  C   UNL     1       3.177  -4.888   2.078  0.00  0.00    +0.031 A 
ATOM     16  C   UNL     1       2.100  -4.093   1.781  0.00  0.00    +0.085 A 
ATOM     17 CL   UNL     1       0.501  -4.597   2.234  0.00  0.00    -0.080 Cl
ATOM     18 CL   UNL     1       3.785  -0.961  -0.074  0.00  0.00    -0.080 Cl
BRANCH  11  19
ATOM     19  O   UNL     1       1.214  -2.106   0.818  0.00  0.00    -0.485 OA
BRANCH  19  20
ATOM     20  C   UNL     1       0.830  -1.135   1.793  0.00  0.00    +0.256 C 
BRANCH  20  22
ATOM     21  C   UNL     1      -1.380  -0.141   2.096  0.00  0.00    +0.007 C 
ATOM     22  C   UNL     1      -0.369  -0.370   1.295  0.00  0.00    +0.006 C 
ENDBRANCH  20  22
ENDBRANCH  19  20
ENDBRANCH  11  19
ENDBRANCH   1  14
BRANCH   8  23
ATOM     23  C   UNL     1      10.346  -5.549   3.208  0.00  0.00    +0.047 A 
ATOM     24  C   UNL     1      11.195  -5.595   2.110  0.00  0.00    +0.025 A 
ATOM     25  C   UNL     1      12.398  -6.268   2.196  0.00  0.00    +0.023 A 
ATOM     26  C   UNL     1      12.758  -6.897   3.375  0.00  0.00    +0.059 A 
ATOM     27  C   UNL     1      11.913  -6.853   4.471  0.00  0.00    +0.061 A 
ATOM     28  C   UNL     1      10.711  -6.174   4.392  0.00  0.00    +0.045 A 
ATOM     29 CL   UNL     1      12.368  -7.643   5.949  0.00  0.00    -0.082 Cl
ATOM     30 CL   UNL     1      14.270  -7.742   3.479  0.00  0.00    -0.082 Cl
ENDBRANCH   8  23
TORSDOF 5
