REMARK  Name = ZINC02374647
REMARK  7 active torsions:
REMARK  status: ('A' for Active; 'I' for Inactive)
REMARK    1  A    between atoms: C_3  and  C_9
REMARK    2  A    between atoms: N_10  and  N_11
REMARK    3  A    between atoms: C_12  and  C_14
REMARK    4  A    between atoms: N_16  and  C_17
REMARK    5  A    between atoms: C_17  and  C_18
REMARK    6  A    between atoms: C_18  and  C_19
REMARK    7  A    between atoms: C_19  and  N_45
REMARK                            x       y       z     vdW  Elec       q    Type
REMARK                         _______ _______ _______ _____ _____    ______ ____
ROOT
ATOM      1  N   UNL     1       4.752   4.033  -0.020  0.00  0.00    -0.199 N 
ATOM      2  C   UNL     1       5.931   3.380  -0.034  0.00  0.00    +0.318 C 
ATOM      3  O   UNL     1       5.953   2.166  -0.041  0.00  0.00    -0.263 OA
ATOM      4  H   UNL     1       4.734   5.003  -0.015  0.00  0.00    +0.178 HD
ENDROOT
BRANCH   2   5
ATOM      5  C   UNL     1       7.209   4.150  -0.042  0.00  0.00    +0.301 C 
ATOM      6  O   UNL     1       7.187   5.363  -0.035  0.00  0.00    -0.265 OA
ATOM      7  N   UNL     1       8.388   3.497  -0.056  0.00  0.00    -0.308 N 
ATOM      8  H   UNL     1       8.406   2.527  -0.061  0.00  0.00    +0.149 HD
BRANCH   7   9
ATOM      9  C   UNL     1       9.643   4.253  -0.063  0.00  0.00    +0.103 C 
BRANCH   9  10
ATOM     10  C   UNL     1      10.824   3.280  -0.079  0.00  0.00    +0.000 C 
BRANCH  10  11
ATOM     11  C   UNL     1      12.135   4.069  -0.086  0.00  0.00    -0.077 C 
BRANCH  11  17
ATOM     12  C   UNL     1      13.337   2.369   1.152  0.00  0.00    -0.050 C 
ATOM     13  C   UNL     1      14.493   1.369   1.070  0.00  0.00    +0.141 C 
ATOM     14  O   UNL     1      15.708   2.073   0.799  0.00  0.00    -0.383 OA
ATOM     15  C   UNL     1      15.677   2.829  -0.414  0.00  0.00    +0.141 C 
ATOM     16  C   UNL     1      14.533   3.844  -0.347  0.00  0.00    -0.050 C 
ATOM     17  N   UNL     1      13.266   3.117  -0.121  0.00  0.00    +0.383 N 
ATOM     18  H   UNL     1      13.120   2.453  -0.891  0.00  0.00    -0.082 HD
ENDBRANCH  11  17
ENDBRANCH  10  11
ENDBRANCH   9  10
ENDBRANCH   7   9
ENDBRANCH   2   5
BRANCH   1  20
ATOM     19  C   UNL     1       2.415   3.939   0.000  0.00  0.00    +0.139 C 
ATOM     20  N   UNL     1       3.551   3.310  -0.013  0.00  0.00    -0.187 NA
BRANCH  19  23
ATOM     21  C   UNL     1      -1.250   3.135   0.030  0.00  0.00    +0.021 A 
ATOM     22  C   UNL     1      -0.072   3.852   0.022  0.00  0.00    +0.012 A 
ATOM     23  C   UNL     1       1.152   3.179   0.008  0.00  0.00    +0.013 A 
ATOM     24  C   UNL     1       1.174   1.781   0.000  0.00  0.00    +0.051 A 
ATOM     25  C   UNL     1      -0.013   1.076   0.008  0.00  0.00    +0.040 A 
ATOM     26  C   UNL     1      -1.222   1.750   0.017  0.00  0.00    +0.042 A 
ATOM     27 CL   UNL     1      -2.710   0.856   0.019  0.00  0.00    -0.083 Cl
ATOM     28 CL   UNL     1       2.689   0.934  -0.018  0.00  0.00    -0.083 Cl
ENDBRANCH  19  23
ENDBRANCH   1  20
TORSDOF 7
