REMARK  Name = ZINC56206823
REMARK  9 active torsions:
REMARK  status: ('A' for Active; 'I' for Inactive)
REMARK    1  A    between atoms: C_1  and  C_2
REMARK    2  A    between atoms: C_4  and  O_23
REMARK    3  A    between atoms: C_7  and  N_8
REMARK    4  A    between atoms: N_8  and  C_9
REMARK    5  A    between atoms: C_9  and  C_11
REMARK    6  A    between atoms: C_9  and  C_12
REMARK    7  A    between atoms: N_14  and  C_15
REMARK    8  A    between atoms: O_23  and  C_24
REMARK    9  A    between atoms: C_24  and  C_25
REMARK                            x       y       z     vdW  Elec       q    Type
REMARK                         _______ _______ _______ _____ _____    ______ ____
ROOT
ATOM      1  N   UNL     1       0.041  -0.020   2.412  0.00  0.00    -0.333 N 
ATOM      2  H   UNL     1       0.022   0.950   2.417  0.00  0.00    +0.147 HD
ENDROOT
BRANCH   1   9
ATOM      3  C   UNL     1       0.001   1.494   0.005  0.00  0.00    +0.046 C 
ATOM      4  C   UNL     1       0.030  -0.013  -0.002  0.00  0.00    -0.026 A 
ATOM      5  C   UNL     1       0.044  -0.698  -1.201  0.00  0.00    +0.050 A 
ATOM      6  C   UNL     1       0.072  -2.085  -1.208  0.00  0.00    +0.122 A 
ATOM      7  C   UNL     1       0.085  -2.785  -0.011  0.00  0.00    +0.047 A 
ATOM      8  C   UNL     1       0.071  -2.102   1.189  0.00  0.00    +0.027 A 
ATOM      9  C   UNL     1       0.050  -0.713   1.197  0.00  0.00    +0.031 A 
BRANCH   6  10
ATOM     10  O   UNL     1       0.085  -2.759  -2.389  0.00  0.00    -0.483 OA
BRANCH  10  11
ATOM     11  C   UNL     1       0.114  -4.186  -2.322  0.00  0.00    +0.324 C 
BRANCH  11  12
ATOM     12  C   UNL     1       0.125  -4.754  -3.718  0.00  0.00    +0.248 C 
ATOM     13  O   UNL     1       0.110  -4.011  -4.676  0.00  0.00    -0.272 OA
ATOM     14  N   UNL     1       0.151  -6.089  -3.901  0.00  0.00    -0.327 N 
ATOM     15  H   UNL     1       0.163  -6.684  -3.135  0.00  0.00    +0.145 HD
ATOM     16  H   UNL     1       0.159  -6.455  -4.799  0.00  0.00    +0.145 HD
ENDBRANCH  11  12
ENDBRANCH  10  11
ENDBRANCH   6  10
ENDBRANCH   1   9
BRANCH   1  17
ATOM     17  C   UNL     1       0.061  -0.758   3.677  0.00  0.00    +0.154 C 
ATOM     18  C   UNL     1      -1.366  -1.153   4.061  0.00  0.00    +0.038 C 
BRANCH  17  19
ATOM     19  C   UNL     1       0.649   0.112   4.758  0.00  0.00    +0.237 C 
ATOM     20  O   UNL     1       1.016   1.238   4.497  0.00  0.00    -0.273 OA
ATOM     21  N   UNL     1       0.769  -0.362   6.014  0.00  0.00    -0.282 N 
ATOM     22  H   UNL     1       0.404  -1.231   6.242  0.00  0.00    +0.155 HD
BRANCH  21  23
ATOM     23  C   UNL     1       1.419   0.402   6.992  0.00  0.00    +0.072 A 
ATOM     24  C   UNL     1       2.362   1.350   6.619  0.00  0.00    +0.064 A 
ATOM     25  C   UNL     1       3.003   2.103   7.587  0.00  0.00    +0.125 A 
ATOM     26  C   UNL     1       2.705   1.911   8.926  0.00  0.00    +0.041 A 
ATOM     27  C   UNL     1       1.766   0.967   9.299  0.00  0.00    +0.043 A 
ATOM     28  C   UNL     1       1.118   0.215   8.336  0.00  0.00    +0.145 A 
ATOM     29  F   UNL     1       0.197  -0.703   8.701  0.00  0.00    -0.204 F 
ATOM     30  F   UNL     1       3.921   3.025   7.226  0.00  0.00    -0.205 F 
ENDBRANCH  21  23
ENDBRANCH  17  19
ENDBRANCH   1  17
TORSDOF 7
