REMARK  Name = ZINC01729028
REMARK  3 active torsions:
REMARK  status: ('A' for Active; 'I' for Inactive)
REMARK    1  A    between atoms: C_4  and  C_7
REMARK    2  A    between atoms: C_7  and  C_9
REMARK    3  A    between atoms: C_9  and  C_10
REMARK                            x       y       z     vdW  Elec       q    Type
REMARK                         _______ _______ _______ _____ _____    ______ ____
ROOT
ATOM      1  C   UNL     1      -0.013   1.086   0.008  0.00  0.00    +0.095 C 
ATOM      2 BR   UNL     1       1.832   1.766  -0.006  0.00  0.00    -0.083 Br
ENDROOT
BRANCH   1   6
ATOM      3  C   UNL     1      -2.012   2.463   3.523  0.00  0.00    +0.000 A 
ATOM      4  C   UNL     1      -1.960   1.111   3.243  0.00  0.00    +0.000 A 
ATOM      5  C   UNL     1      -1.313   0.665   2.105  0.00  0.00    +0.005 A 
ATOM      6  C   UNL     1      -0.718   1.572   1.248  0.00  0.00    -0.033 A 
ATOM      7  C   UNL     1      -0.766   2.924   1.531  0.00  0.00    +0.005 A 
ATOM      8  C   UNL     1      -1.417   3.370   2.666  0.00  0.00    +0.000 A 
ENDBRANCH   1   6
BRANCH   1   9
ATOM      9  C   UNL     1      -0.753   1.593  -1.232  0.00  0.00    +0.117 C 
BRANCH   9  10
ATOM     10  C   UNL     1      -0.121   1.007  -2.468  0.00  0.00    +0.220 A 
ATOM     11  N   UNL     1       0.892   0.206  -2.482  0.00  0.00    -0.135 NA
ATOM     12  N   UNL     1       1.171  -0.112  -3.819  0.00  0.00    -0.208 N 
ATOM     13  H   UNL     1       1.877  -0.696  -4.141  0.00  0.00    +0.195 HD
ATOM     14  C   UNL     1       0.271   0.554  -4.573  0.00  0.00    +0.436 A 
ATOM     15  O   UNL     1       0.192   0.536  -5.788  0.00  0.00    -0.221 OA
ATOM     16  O   UNL     1      -0.521   1.241  -3.734  0.00  0.00    -0.392 OA
ENDBRANCH   9  10
ENDBRANCH   1   9
TORSDOF 3
