REMARK  Name = ZINC54475478
REMARK  5 active torsions:
REMARK  status: ('A' for Active; 'I' for Inactive)
REMARK    1  A    between atoms: C_1  and  C_2
REMARK    2  A    between atoms: C_2  and  C_3
REMARK    3  A    between atoms: C_3  and  N_4
REMARK    4  A    between atoms: C_5  and  C_7
REMARK    5  A    between atoms: C_10  and  N_14
REMARK                            x       y       z     vdW  Elec       q    Type
REMARK                         _______ _______ _______ _____ _____    ______ ____
ROOT
ATOM      1  C   UNL     1       1.557  -4.132   2.065  0.00  0.00    +0.055 A 
ATOM      2  C   UNL     1       1.232  -4.868   0.922  0.00  0.00    +0.016 A 
ATOM      3  C   UNL     1       1.180  -6.242   0.980  0.00  0.00    +0.024 A 
ATOM      4  C   UNL     1       1.451  -6.900   2.176  0.00  0.00    +0.036 A 
ATOM      5  C   UNL     1       1.775  -6.173   3.317  0.00  0.00    +0.044 A 
ATOM      6  C   UNL     1       1.835  -4.797   3.264  0.00  0.00    +0.055 A 
ATOM      7 CL   UNL     1       2.247  -3.890   4.686  0.00  0.00    -0.083 Cl
ENDROOT
BRANCH   4   8
ATOM      8  N   UNL     1       1.398  -8.292   2.231  0.00  0.00    -0.269 N 
ATOM      9  C   UNL     1       2.122  -8.959   3.152  0.00  0.00    +0.306 C 
ATOM     10  O   UNL     1       2.683  -8.349   4.042  0.00  0.00    -0.252 OA
ATOM     11  N   UNL     1       2.223 -10.301   3.087  0.00  0.00    -0.285 N 
ATOM     12  C   UNL     1       1.696 -11.037   1.930  0.00  0.00    +0.114 C 
ATOM     13  C   UNL     1       0.740 -12.125   2.430  0.00  0.00    +0.084 C 
ATOM     14  C   UNL     1       1.461 -12.998   3.459  0.00  0.00    +0.173 C 
ATOM     15  C   UNL     1       1.897 -12.145   4.652  0.00  0.00    +0.084 C 
ATOM     16  C   UNL     1       2.869 -11.057   4.170  0.00  0.00    +0.114 C 
ATOM     17  O   UNL     1       0.583 -14.038   3.907  0.00  0.00    -0.346 OA
ATOM     18  C   UNL     1       1.210 -15.296   3.585  0.00  0.00    +0.191 C 
ATOM     19  C   UNL     1       2.704 -14.916   3.442  0.00  0.00    +0.191 C 
ATOM     20  O   UNL     1       2.618 -13.596   2.852  0.00  0.00    -0.346 OA
ATOM     21  H   UNL     1       0.840  -8.781   1.606  0.00  0.00    +0.156 HD
ENDBRANCH   4   8
BRANCH   1  23
ATOM     22  N   UNL     1       1.345  -2.021   0.850  0.00  0.00    -0.311 N 
ATOM     23  C   UNL     1       1.613  -2.659   2.006  0.00  0.00    +0.245 C 
ATOM     24  O   UNL     1       1.901  -2.022   3.001  0.00  0.00    -0.270 OA
ATOM     25  H   UNL     1       1.115  -2.530   0.057  0.00  0.00    +0.149 HD
BRANCH  22  26
ATOM     26  C   UNL     1       1.400  -0.558   0.791  0.00  0.00    +0.104 C 
BRANCH  26  28
ATOM     27  C   UNL     1       1.114   1.437  -0.686  0.00  0.00    +0.005 C 
ATOM     28  C   UNL     1       1.056  -0.091  -0.624  0.00  0.00    +0.015 C 
ENDBRANCH  26  28
ENDBRANCH  22  26
ENDBRANCH   1  23
TORSDOF 4
