REMARK  Name = ZINC39583039
REMARK  4 active torsions:
REMARK  status: ('A' for Active; 'I' for Inactive)
REMARK    1  A    between atoms: C_6  and  N_7
REMARK    2  A    between atoms: C_8  and  C_13
REMARK    3  A    between atoms: C_13  and  S_14
REMARK    4  A    between atoms: S_14  and  C_15
REMARK                            x       y       z     vdW  Elec       q    Type
REMARK                         _______ _______ _______ _____ _____    ______ ____
ROOT
ATOM      1  N   UNL     1      -1.198  -0.720   0.010  0.00  0.00    -0.263 N 
ATOM      2  C   UNL     1      -1.332  -2.187   0.009  0.00  0.00    +0.153 C 
ATOM      3  N   UNL     1      -2.790  -2.458  -0.025  0.00  0.00    -0.328 NA
ATOM      4  N   UNL     1      -3.339  -1.203  -0.568  0.00  0.00    +0.410 N 
ATOM      5  N   UNL     1      -2.462  -0.182   0.026  0.00  0.00    -0.266 NA
ATOM      6  H   UNL     1      -2.999  -3.237  -0.631  0.00  0.00    +0.106 HD
ATOM      7  H   UNL     1      -3.275  -1.192  -1.575  0.00  0.00    -0.031 HD
ATOM      8  H   UNL     1      -2.748   0.041   0.968  0.00  0.00    +0.125 HD
ATOM      9  H   UNL     1      -4.293  -1.071  -0.268  0.00  0.00    -0.031 HD
ENDROOT
BRANCH   1  15
ATOM     10  C   UNL     1      -0.017   1.385   0.010  0.00  0.00    +0.025 A 
ATOM     11  C   UNL     1       1.171   2.090   0.002  0.00  0.00    +0.017 A 
ATOM     12  C   UNL     1       2.378   1.415  -0.013  0.00  0.00    +0.018 A 
ATOM     13  C   UNL     1       2.400   0.031  -0.021  0.00  0.00    +0.017 A 
ATOM     14  C   UNL     1       1.216  -0.679  -0.014  0.00  0.00    +0.025 A 
ATOM     15  C   UNL     1       0.002  -0.004   0.002  0.00  0.00    +0.045 A 
ATOM     16 BR   UNL     1       4.002   2.384  -0.025  0.00  0.00    -0.050 Br
ENDBRANCH   1  15
BRANCH   2  17
ATOM     17  C   UNL     1      -0.713  -2.775   1.280  0.00  0.00    +0.115 C 
BRANCH  17  18
ATOM     18  S   UNL     1      -1.564  -2.101   2.733  0.00  0.00    -0.081 S 
BRANCH  18  19
ATOM     19  C   UNL     1      -0.747  -2.864   4.096  0.00  0.00    +0.209 A 
ATOM     20  H   UNL     1       1.288  -4.687   5.599  0.00  0.00    +0.190 HD
ATOM     21  N   UNL     1      -1.037  -2.667   5.386  0.00  0.00    -0.210 NA
ATOM     22  C   UNL     1      -0.240  -3.388   6.133  0.00  0.00    +0.217 A 
ATOM     23  N   UNL     1       0.589  -4.071   5.327  0.00  0.00    -0.264 N 
ATOM     24  N   UNL     1       0.242  -3.722   4.011  0.00  0.00    -0.146 NA
ENDBRANCH  18  19
ENDBRANCH  17  18
ENDBRANCH   2  17
TORSDOF 4
