REMARK  Name = ZINC17963054
REMARK  4 active torsions:
REMARK  status: ('A' for Active; 'I' for Inactive)
REMARK    1  A    between atoms: C_1  and  C_2
REMARK    2  A    between atoms: C_2  and  C_4
REMARK    3  A    between atoms: C_2  and  N_12
REMARK    4  A    between atoms: C_13  and  C_15
REMARK                            x       y       z     vdW  Elec       q    Type
REMARK                         _______ _______ _______ _____ _____    ______ ____
ROOT
ATOM      1  N   UNL     1       0.711  -0.489   1.189  0.00  0.00    -0.305 N 
ATOM      2  C   UNL     1       0.051  -0.633   2.355  0.00  0.00    +0.246 C 
ATOM      3  O   UNL     1      -1.132  -0.361   2.423  0.00  0.00    -0.270 OA
ATOM      4  H   UNL     1       1.654  -0.707   1.135  0.00  0.00    +0.150 HD
ENDROOT
BRANCH   2   5
ATOM      5  C   UNL     1       0.764  -1.122   3.550  0.00  0.00    +0.053 A 
ATOM      6  C   UNL     1       2.143  -1.436   3.479  0.00  0.00    +0.020 A 
ATOM      7  C   UNL     1       2.776  -1.884   4.596  0.00  0.00    +0.071 A 
ATOM      8  C   UNL     1       2.050  -2.026   5.794  0.00  0.00    +0.249 A 
ATOM      9  O   UNL     1       2.613  -2.428   6.798  0.00  0.00    -0.268 OA
ATOM     10  N   UNL     1       0.740  -1.722   5.839  0.00  0.00    -0.328 N 
ATOM     11  H   UNL     1       0.255  -1.825   6.672  0.00  0.00    +0.168 HD
ATOM     12  C   UNL     1       0.094  -1.272   4.747  0.00  0.00    +0.099 A 
ENDBRANCH   2   5
BRANCH   1  14
ATOM     13  C   UNL     1      -0.019   1.526   0.010  0.00  0.00    +0.033 C 
ATOM     14  C   UNL     1       0.002  -0.004   0.002  0.00  0.00    +0.100 C 
BRANCH  14  15
ATOM     15  C   UNL     1       0.707  -0.490  -1.238  0.00  0.00    -0.026 A 
ATOM     16  C   UNL     1       2.089  -0.511  -1.284  0.00  0.00    +0.007 A 
ATOM     17  C   UNL     1       2.737  -0.956  -2.420  0.00  0.00    +0.022 A 
ATOM     18  C   UNL     1       2.003  -1.381  -3.513  0.00  0.00    +0.059 A 
ATOM     19  C   UNL     1       0.620  -1.361  -3.467  0.00  0.00    +0.060 A 
ATOM     20  C   UNL     1      -0.027  -0.920  -2.327  0.00  0.00    +0.027 A 
ATOM     21 CL   UNL     1      -0.302  -1.895  -4.838  0.00  0.00    -0.082 Cl
ATOM     22 CL   UNL     1       2.817  -1.940  -4.941  0.00  0.00    -0.082 Cl
ENDBRANCH  14  15
ENDBRANCH   1  14
TORSDOF 3
