REMARK  Name = ZINC66186959
REMARK  7 active torsions:
REMARK  status: ('A' for Active; 'I' for Inactive)
REMARK    1  A    between atoms: C_1  and  C_2
REMARK    2  A    between atoms: C_10  and  C_11
REMARK    3  A    between atoms: C_11  and  C_13
REMARK    4  A    between atoms: C_11  and  N_14
REMARK    5  A    between atoms: N_17  and  C_18
REMARK    6  A    between atoms: N_17  and  C_19
REMARK    7  A    between atoms: N_22  and  C_25
REMARK                            x       y       z     vdW  Elec       q    Type
REMARK                         _______ _______ _______ _____ _____    ______ ____
ROOT
ATOM      1  N   UNL     1       1.025  -1.119   3.258  0.00  0.00    -0.290 N 
ATOM      2  C   UNL     1       1.577  -0.595   4.370  0.00  0.00    +0.303 C 
ATOM      3  O   UNL     1       1.250   0.514   4.747  0.00  0.00    -0.253 OA
ATOM      4  N   UNL     1       2.492  -1.300   5.065  0.00  0.00    -0.286 N 
ATOM      5  C   UNL     1       2.886  -2.636   4.611  0.00  0.00    +0.134 C 
ATOM      6  H   UNL     1       1.286  -2.003   2.958  0.00  0.00    +0.151 HD
ENDROOT
BRANCH   4   7
ATOM      7  C   UNL     1       3.092  -0.730   6.274  0.00  0.00    +0.074 C 
ATOM      8  C   UNL     1       4.610  -0.634   6.096  0.00  0.00    +0.004 C 
ATOM      9  C   UNL     1       5.238  -0.114   7.390  0.00  0.00    -0.077 C 
ATOM     10  N   UNL     1       4.930  -1.033   8.492  0.00  0.00    +0.382 N 
ATOM     11  C   UNL     1       3.480  -1.075   8.716  0.00  0.00    -0.077 C 
ATOM     12  C   UNL     1       2.784  -1.633   7.473  0.00  0.00    +0.004 C 
ATOM     13  H   UNL     1       5.261  -1.958   8.260  0.00  0.00    -0.081 HD
BRANCH  10  14
ATOM     14  C   UNL     1       5.600  -0.571   9.716  0.00  0.00    -0.064 C 
ATOM     15  C   UNL     1       7.115  -0.546   9.492  0.00  0.00    +0.013 C 
ATOM     16  C   UNL     1       7.809  -0.139  10.795  0.00  0.00    +0.158 C 
ATOM     17  O   UNL     1       7.445  -1.052  11.832  0.00  0.00    -0.380 OA
ATOM     18  C   UNL     1       6.045  -1.083  12.117  0.00  0.00    +0.158 C 
ATOM     19  C   UNL     1       5.281  -1.528  10.868  0.00  0.00    +0.013 C 
ENDBRANCH  10  14
ENDBRANCH   4   7
BRANCH   1  20
ATOM     20  C   UNL     1       0.030  -0.352   2.503  0.00  0.00    +0.138 C 
ATOM     21  C   UNL     1      -1.354  -0.570   3.116  0.00  0.00    +0.036 C 
BRANCH  20  31
ATOM     22  C   UNL     1      -0.018   1.503   0.010  0.00  0.00    +0.048 C 
ATOM     23  C   UNL     1       0.002  -0.004   0.002  0.00  0.00    +0.000 A 
ATOM     24  C   UNL     1       0.009  -0.879  -1.177  0.00  0.00    +0.023 A 
ATOM     25  C   UNL     1       0.000  -0.660  -2.553  0.00  0.00    +0.012 A 
ATOM     26  C   UNL     1       0.011  -1.726  -3.409  0.00  0.00    +0.001 A 
ATOM     27  C   UNL     1       0.031  -3.023  -2.916  0.00  0.00    +0.004 A 
ATOM     28  C   UNL     1       0.040  -3.259  -1.558  0.00  0.00    +0.047 A 
ATOM     29  C   UNL     1       0.029  -2.190  -0.671  0.00  0.00    +0.136 A 
ATOM     30  O   UNL     1       0.033  -2.100   0.674  0.00  0.00    -0.458 OA
ATOM     31  C   UNL     1       0.023  -0.814   1.069  0.00  0.00    +0.129 A 
ENDBRANCH  20  31
ENDBRANCH   1  20
TORSDOF 4
