REMARK  Name = ZINC08747290
REMARK  6 active torsions:
REMARK  status: ('A' for Active; 'I' for Inactive)
REMARK    1  A    between atoms: C_1  and  C_2
REMARK    2  A    between atoms: C_6  and  C_8
REMARK    3  A    between atoms: C_8  and  N_9
REMARK    4  A    between atoms: C_13  and  S_20
REMARK    5  A    between atoms: C_17  and  C_19
REMARK    6  A    between atoms: S_20  and  N_23
REMARK                            x       y       z     vdW  Elec       q    Type
REMARK                         _______ _______ _______ _____ _____    ______ ____
ROOT
ATOM      1  N   UNL     1      -2.710   1.314   0.101  0.00  0.00    -0.322 N 
ATOM      2  C   UNL     1      -1.430   1.842  -0.103  0.00  0.00    +0.034 A 
ATOM      3  C   UNL     1      -0.228   1.194  -0.384  0.00  0.00    +0.025 A 
ATOM      4  C   UNL     1       0.930   1.924  -0.556  0.00  0.00    +0.030 A 
ATOM      5  C   UNL     1       0.908   3.302  -0.447  0.00  0.00    +0.105 A 
ATOM      6  C   UNL     1      -0.279   3.952  -0.159  0.00  0.00    +0.034 A 
ATOM      7  C   UNL     1      -1.439   3.227   0.017  0.00  0.00    -0.023 A 
ATOM      8  C   UNL     1      -2.855   3.659   0.341  0.00  0.00    +0.059 C 
ATOM      9  C   UNL     1      -3.522   2.339   0.793  0.00  0.00    +0.075 C 
ATOM     10  C   UNL     1      -4.979   2.281   0.331  0.00  0.00    +0.028 C 
ENDROOT
BRANCH   5  11
ATOM     11  S   UNL     1       2.389   4.229  -0.672  0.00  0.00    +0.056 S 
ATOM     12  O   UNL     1       2.210   5.456   0.021  0.00  0.00    -0.153 OA
ATOM     13  O   UNL     1       3.467   3.346  -0.391  0.00  0.00    -0.153 OA
BRANCH  11  14
ATOM     14  N   UNL     1       2.492   4.605  -2.281  0.00  0.00    -0.204 NA
ATOM     15  H   UNL     1       2.936   5.420  -2.561  0.00  0.00    +0.144 HD
ATOM     16  H   UNL     1       2.108   4.010  -2.944  0.00  0.00    +0.144 HD
ENDBRANCH  11  14
ENDBRANCH   5  11
BRANCH   1  17
ATOM     17  C   UNL     1      -2.653   0.071   0.883  0.00  0.00    +0.140 C 
BRANCH  17  23
ATOM     18  C   UNL     1      -2.780   1.530   5.668  0.00  0.00    +0.044 C 
ATOM     19  C   UNL     1      -2.005   1.029   4.477  0.00  0.00    -0.050 A 
ATOM     20  C   UNL     1      -0.644   0.809   4.580  0.00  0.00    +0.003 A 
ATOM     21  C   UNL     1       0.067   0.349   3.487  0.00  0.00    +0.001 A 
ATOM     22  C   UNL     1      -0.584   0.106   2.292  0.00  0.00    +0.005 A 
ATOM     23  C   UNL     1      -1.944   0.332   2.187  0.00  0.00    -0.030 A 
ATOM     24  C   UNL     1      -2.655   0.791   3.281  0.00  0.00    +0.008 A 
ENDBRANCH  17  23
ENDBRANCH   1  17
TORSDOF 4
