REMARK  Name = ZINC02639694
REMARK  13 active torsions:
REMARK  status: ('A' for Active; 'I' for Inactive)
REMARK    1  A    between atoms: C_1  and  C_2
REMARK    2  A    between atoms: C_2  and  C_3
REMARK    3  A    between atoms: C_2  and  C_4
REMARK    4  A    between atoms: C_4  and  N_5
REMARK    5  A    between atoms: C_6  and  N_38
REMARK    6  A    between atoms: C_7  and  C_14
REMARK    7  A    between atoms: N_10  and  C_13
REMARK    8  A    between atoms: C_14  and  C_16
REMARK    9  A    between atoms: C_16  and  S_17
REMARK   10  A    between atoms: S_17  and  C_18
REMARK   11  A    between atoms: N_28  and  C_29
REMARK   12  A    between atoms: C_32  and  O_36
REMARK   13  A    between atoms: O_36  and  C_37
REMARK                            x       y       z     vdW  Elec       q    Type
REMARK                         _______ _______ _______ _____ _____    ______ ____
ROOT
ATOM      1  S   UNL     1      -1.703  -5.958  -4.425  0.00  0.00    -0.079 S 
ENDROOT
BRANCH   1   2
ATOM      2  C   UNL     1      -1.785  -7.718  -4.447  0.00  0.00    +0.177 A 
ATOM      3  N   UNL     1      -1.828  -8.356  -3.303  0.00  0.00    -0.223 NA
ATOM      4  C   UNL     1      -1.892  -9.701  -3.246  0.00  0.00    +0.079 A 
ATOM      5  C   UNL     1      -1.939 -10.381  -2.025  0.00  0.00    +0.028 A 
ATOM      6  C   UNL     1      -2.004 -11.746  -2.014  0.00  0.00    +0.002 A 
ATOM      7  C   UNL     1      -2.023 -12.471  -3.198  0.00  0.00    +0.001 A 
ATOM      8  C   UNL     1      -1.977 -11.835  -4.408  0.00  0.00    +0.015 A 
ATOM      9  C   UNL     1      -1.912 -10.442  -4.450  0.00  0.00    +0.065 A 
ATOM     10  C   UNL     1      -1.862  -9.706  -5.719  0.00  0.00    +0.267 A 
ATOM     11  O   UNL     1      -1.876 -10.288  -6.788  0.00  0.00    -0.267 OA
ATOM     12  N   UNL     1      -1.805  -8.355  -5.657  0.00  0.00    -0.255 N 
BRANCH  12  13
ATOM     13  C   UNL     1      -1.761  -7.604  -6.840  0.00  0.00    +0.054 A 
ATOM     14  C   UNL     1      -0.618  -6.886  -7.165  0.00  0.00    +0.030 A 
ATOM     15  C   UNL     1      -0.575  -6.146  -8.330  0.00  0.00    +0.049 A 
ATOM     16  C   UNL     1      -1.673  -6.121  -9.177  0.00  0.00    +0.138 A 
ATOM     17  C   UNL     1      -2.817  -6.838  -8.853  0.00  0.00    +0.084 A 
ATOM     18  C   UNL     1      -2.859  -7.583  -7.690  0.00  0.00    +0.050 A 
ATOM     19 CL   UNL     1      -4.191  -6.805  -9.913  0.00  0.00    -0.080 Cl
BRANCH  16  20
ATOM     20  O   UNL     1      -1.630  -5.392 -10.324  0.00  0.00    -0.494 OA
ATOM     21  C   UNL     1      -0.422  -4.677 -10.594  0.00  0.00    +0.277 C 
ENDBRANCH  16  20
ENDBRANCH  12  13
ENDBRANCH   1   2
BRANCH   1  22
ATOM     22  C   UNL     1      -1.697  -5.541  -2.659  0.00  0.00    +0.157 C 
BRANCH  22  23
ATOM     23  C   UNL     1      -1.629  -4.044  -2.497  0.00  0.00    +0.182 C 
ATOM     24  O   UNL     1      -1.588  -3.328  -3.478  0.00  0.00    -0.291 OA
BRANCH  23  27
ATOM     25  N   UNL     1      -1.661  -1.577   0.242  0.00  0.00    -0.281 N 
ATOM     26  C   UNL     1      -1.679  -2.082  -1.027  0.00  0.00    +0.116 A 
ATOM     27  C   UNL     1      -1.612  -3.474  -1.206  0.00  0.00    +0.120 A 
ATOM     28  C   UNL     1      -1.525  -4.317  -0.007  0.00  0.00    +0.269 A 
ATOM     29  O   UNL     1      -1.464  -5.529  -0.102  0.00  0.00    -0.267 OA
ATOM     30  N   UNL     1      -1.513  -3.720   1.203  0.00  0.00    -0.263 N 
ATOM     31  C   UNL     1      -1.575  -2.383   1.312  0.00  0.00    +0.333 A 
ATOM     32  O   UNL     1      -1.557  -1.885   2.420  0.00  0.00    -0.246 OA
ATOM     33  C   UNL     1      -1.426  -4.541   2.413  0.00  0.00    +0.157 C 
BRANCH  26  34
ATOM     34  N   UNL     1      -1.762  -1.250  -2.100  0.00  0.00    -0.344 N 
ATOM     35  H   UNL     1      -1.890  -0.297  -1.967  0.00  0.00    +0.144 HD
ATOM     36  H   UNL     1      -1.693  -1.609  -2.999  0.00  0.00    +0.144 HD
ENDBRANCH  26  34
BRANCH  25  37
ATOM     37  C   UNL     1      -1.730  -0.127   0.439  0.00  0.00    +0.131 C 
BRANCH  37  39
ATOM     38  C   UNL     1      -0.390   1.980   0.531  0.00  0.00    +0.009 C 
ATOM     39  C   UNL     1      -0.314   0.454   0.450  0.00  0.00    +0.003 C 
ATOM     40  C   UNL     1       0.449  -0.084   1.662  0.00  0.00    +0.009 C 
ENDBRANCH  37  39
ENDBRANCH  25  37
ENDBRANCH  23  27
ENDBRANCH  22  23
ENDBRANCH   1  22
TORSDOF 9
