REMARK  Name = ZINC37428859
REMARK  8 active torsions:
REMARK  status: ('A' for Active; 'I' for Inactive)
REMARK    1  A    between atoms: C_1  and  C_2
REMARK    2  A    between atoms: C_2  and  C_3
REMARK    3  A    between atoms: C_2  and  C_4
REMARK    4  A    between atoms: C_2  and  C_5
REMARK    5  A    between atoms: C_9  and  O_11
REMARK    6  A    between atoms: O_11  and  C_12
REMARK    7  A    between atoms: C_15  and  C_18
REMARK    8  A    between atoms: N_19  and  O_20
REMARK                            x       y       z     vdW  Elec       q    Type
REMARK                         _______ _______ _______ _____ _____    ______ ____
ROOT
ATOM      1  C   UNL     1       4.909  -0.713  -1.969  0.00  0.00    +0.220 A 
ATOM      2  C   UNL     1       6.228  -0.295  -2.103  0.00  0.00    +0.068 A 
ATOM      3  C   UNL     1       7.179  -0.771  -1.222  0.00  0.00    +0.018 A 
ATOM      4  C   UNL     1       6.772  -1.664  -0.222  0.00  0.00    +0.036 A 
ATOM      5  C   UNL     1       5.431  -2.035  -0.152  0.00  0.00    +0.126 A 
ATOM      6  N   UNL     1       4.555  -1.553  -1.009  0.00  0.00    -0.220 NA
ENDROOT
BRANCH   4   7
ATOM      7  C   UNL     1       7.752  -2.203   0.747  0.00  0.00    +0.164 C 
ATOM      8  N   UNL     1       9.002  -1.850   0.672  0.00  0.00    -0.071 NA
ATOM      9  N   UNL     1       7.339  -3.085   1.731  0.00  0.00    -0.340 N 
ATOM     10  H   UNL     1       6.407  -3.348   1.787  0.00  0.00    +0.144 HD
ATOM     11  H   UNL     1       7.981  -3.439   2.366  0.00  0.00    +0.144 HD
BRANCH   8  12
ATOM     12  O   UNL     1       9.940  -2.367   1.599  0.00  0.00    -0.408 OA
ATOM     13  H   UNL     1      10.843  -2.047   1.465  0.00  0.00    +0.328 HD
ENDBRANCH   8  12
ENDBRANCH   4   7
BRANCH   1  14
ATOM     14  O   UNL     1       3.970  -0.248  -2.830  0.00  0.00    -0.438 OA
BRANCH  14  19
ATOM     15  C   UNL     1       0.633  -0.310  -1.381  0.00  0.00    -0.039 A 
ATOM     16  C   UNL     1       0.036  -1.290  -2.152  0.00  0.00    +0.004 A 
ATOM     17  C   UNL     1       0.755  -1.922  -3.150  0.00  0.00    +0.004 A 
ATOM     18  C   UNL     1       2.073  -1.575  -3.379  0.00  0.00    +0.046 A 
ATOM     19  C   UNL     1       2.674  -0.591  -2.607  0.00  0.00    +0.131 A 
ATOM     20  C   UNL     1       1.948   0.045  -1.610  0.00  0.00    +0.050 A 
BRANCH  15  22
ATOM     21  C   UNL     1      -0.220   1.877  -0.583  0.00  0.00    +0.015 C 
ATOM     22  C   UNL     1      -0.154   0.376  -0.294  0.00  0.00    -0.013 C 
ATOM     23  C   UNL     1       0.531   0.146   1.054  0.00  0.00    +0.015 C 
ATOM     24  C   UNL     1      -1.571  -0.198  -0.251  0.00  0.00    +0.015 C 
ENDBRANCH  15  22
ENDBRANCH  14  19
ENDBRANCH   1  14
TORSDOF 5
