REMARK  Name = ZINC63865039
REMARK  8 active torsions:
REMARK  status: ('A' for Active; 'I' for Inactive)
REMARK    1  A    between atoms: C_1  and  C_2
REMARK    2  A    between atoms: C_2  and  C_3
REMARK    3  A    between atoms: C_2  and  C_4
REMARK    4  A    between atoms: C_6  and  C_21
REMARK    5  A    between atoms: C_7  and  N_9
REMARK    6  A    between atoms: N_9  and  N_10
REMARK    7  A    between atoms: C_11  and  C_13
REMARK    8  A    between atoms: C_18  and  O_19
REMARK                            x       y       z     vdW  Elec       q    Type
REMARK                         _______ _______ _______ _____ _____    ______ ____
ROOT
ATOM      1  N   UNL     1      -3.752  -2.938  -2.499  0.00  0.00    -0.230 N 
ATOM      2  C   UNL     1      -4.636  -3.689  -3.186  0.00  0.00    +0.264 C 
ATOM      3  O   UNL     1      -5.762  -3.847  -2.757  0.00  0.00    -0.269 OA
ATOM      4  H   UNL     1      -2.853  -2.812  -2.842  0.00  0.00    +0.173 HD
ENDROOT
BRANCH   2   5
ATOM      5  C   UNL     1      -4.237  -4.319  -4.459  0.00  0.00    +0.081 A 
ATOM      6  C   UNL     1      -2.942  -4.144  -4.954  0.00  0.00    +0.036 A 
ATOM      7  C   UNL     1      -2.575  -4.735  -6.144  0.00  0.00    +0.042 A 
ATOM      8  C   UNL     1      -3.486  -5.502  -6.853  0.00  0.00    +0.023 A 
ATOM      9  C   UNL     1      -4.768  -5.683  -6.375  0.00  0.00    +0.047 A 
ATOM     10  C   UNL     1      -5.152  -5.100  -5.176  0.00  0.00    +0.129 A 
ATOM     11 CL   UNL     1      -0.965  -4.517  -6.758  0.00  0.00    -0.084 Cl
BRANCH  10  12
ATOM     12  O   UNL     1      -6.411  -5.281  -4.703  0.00  0.00    -0.506 OA
ATOM     13  H   UNL     1      -7.044  -4.616  -5.005  0.00  0.00    +0.292 HD
ENDBRANCH  10  12
ENDBRANCH   2   5
BRANCH   1  14
ATOM     14  N   UNL     1      -4.131  -2.340  -1.291  0.00  0.00    -0.232 N 
ATOM     15  H   UNL     1      -5.030  -2.466  -0.948  0.00  0.00    +0.173 HD
BRANCH  14  19
ATOM     16  C   UNL     1      -1.412  -0.526   0.013  0.00  0.00    +0.202 A 
ATOM     17  N   UNL     1      -2.289  -0.286   0.939  0.00  0.00    -0.200 NA
ATOM     18  C   UNL     1      -3.451  -0.920   0.613  0.00  0.00    +0.202 A 
ATOM     19  C   UNL     1      -3.227  -1.571  -0.588  0.00  0.00    +0.241 A 
ATOM     20  O   UNL     1      -1.956  -1.303  -0.938  0.00  0.00    -0.423 OA
BRANCH  16  22
ATOM     21  C   UNL     1      -0.019   1.526   0.010  0.00  0.00    +0.017 C 
ATOM     22  C   UNL     1       0.002  -0.004   0.002  0.00  0.00    +0.069 C 
ATOM     23  C   UNL     1       0.742  -0.511   1.242  0.00  0.00    +0.017 C 
ENDBRANCH  16  22
BRANCH  18  24
ATOM     24  C   UNL     1      -4.668  -0.913   1.367  0.00  0.00    +0.124 C 
ATOM     25  N   UNL     1      -5.634  -0.908   1.966  0.00  0.00    -0.189 NA
ENDBRANCH  18  24
ENDBRANCH  14  19
ENDBRANCH   1  14
TORSDOF 6
