REMARK  Name = ZINC34779785
REMARK  11 active torsions:
REMARK  status: ('A' for Active; 'I' for Inactive)
REMARK    1  A    between atoms: C_1  and  C_2
REMARK    2  A    between atoms: C_5  and  C_34
REMARK    3  A    between atoms: C_6  and  C_8
REMARK    4  A    between atoms: C_8  and  N_9
REMARK    5  A    between atoms: C_13  and  C_33
REMARK    6  A    between atoms: C_14  and  C_29
REMARK    7  A    between atoms: N_17  and  C_20
REMARK    8  A    between atoms: C_20  and  C_21
REMARK    9  A    between atoms: C_21  and  C_22
REMARK   10  A    between atoms: C_22  and  C_23
REMARK   11  A    between atoms: N_31  and  N_32
REMARK                            x       y       z     vdW  Elec       q    Type
REMARK                         _______ _______ _______ _____ _____    ______ ____
ROOT
ATOM      1  N   UNL     1       1.265  -3.757   2.495  0.00  0.00    -0.256 N 
ATOM      2  C   UNL     1       1.697  -4.820   1.795  0.00  0.00    +0.265 A 
ATOM      3  O   UNL     1       0.983  -5.337   0.956  0.00  0.00    -0.267 OA
ATOM      4  C   UNL     1       3.055  -5.356   2.057  0.00  0.00    +0.074 A 
ATOM      5  C   UNL     1       3.700  -6.442   1.451  0.00  0.00    -0.017 A 
ATOM      6  C   UNL     1       4.963  -6.733   1.877  0.00  0.00    +0.081 A 
ATOM      7  S   UNL     1       5.253  -5.492   3.122  0.00  0.00    -0.065 S 
ATOM      8  C   UNL     1       3.792  -4.684   3.044  0.00  0.00    +0.097 A 
ATOM      9  N   UNL     1       3.269  -3.610   3.706  0.00  0.00    -0.287 N 
ATOM     10  C   UNL     1       2.032  -3.162   3.423  0.00  0.00    +0.333 A 
ATOM     11  O   UNL     1       1.596  -2.200   4.026  0.00  0.00    -0.246 OA
ATOM     12  C   UNL     1       3.026  -7.254   0.375  0.00  0.00    +0.046 C 
ENDROOT
BRANCH   6  13
ATOM     13  C   UNL     1       5.858  -7.800   1.423  0.00  0.00    +0.264 C 
ATOM     14  O   UNL     1       5.496  -8.569   0.552  0.00  0.00    -0.268 OA
ATOM     15  N   UNL     1       7.084  -7.929   1.969  0.00  0.00    -0.249 N 
ATOM     16  H   UNL     1       7.372  -7.316   2.663  0.00  0.00    +0.169 HD
BRANCH  15  17
ATOM     17  N   UNL     1       7.918  -8.924   1.546  0.00  0.00    -0.254 NA
ATOM     18  H   UNL     1       8.796  -8.896   2.043  0.00  0.00    +0.140 HD
ATOM     19  H   UNL     1       7.479  -9.828   1.638  0.00  0.00    +0.140 HD
ENDBRANCH  15  17
ENDBRANCH   6  13
BRANCH   1  20
ATOM     20  C   UNL     1      -0.076  -3.229   2.234  0.00  0.00    +0.165 C 
BRANCH  20  26
ATOM     21  C   UNL     1       2.610  -0.500  -0.988  0.00  0.00    +0.044 C 
ATOM     22  C   UNL     1       1.276  -0.913  -0.423  0.00  0.00    -0.050 A 
ATOM     23  C   UNL     1       0.112  -0.364  -0.929  0.00  0.00    +0.003 A 
ATOM     24  C   UNL     1      -1.113  -0.742  -0.410  0.00  0.00    +0.004 A 
ATOM     25  C   UNL     1      -1.173  -1.669   0.613  0.00  0.00    -0.046 A 
ATOM     26  C   UNL     1      -0.010  -2.219   1.118  0.00  0.00    -0.024 A 
ATOM     27  C   UNL     1       1.214  -1.844   0.597  0.00  0.00    +0.009 A 
ATOM     28  C   UNL     1      -2.508  -2.080   1.179  0.00  0.00    +0.044 C 
ENDBRANCH  20  26
ENDBRANCH   1  20
BRANCH   9  29
ATOM     29  C   UNL     1       4.067  -2.933   4.731  0.00  0.00    +0.128 C 
BRANCH  29  30
ATOM     30  C   UNL     1       4.887  -1.815   4.083  0.00  0.00    +0.026 C 
BRANCH  30  31
ATOM     31  C   UNL     1       5.721  -1.108   5.154  0.00  0.00    +0.037 C 
BRANCH  31  32
ATOM     32  C   UNL     1       6.528  -0.006   4.516  0.00  0.00    -0.047 A 
ATOM     33  C   UNL     1       7.793  -0.272   4.027  0.00  0.00    +0.003 A 
ATOM     34  C   UNL     1       8.534   0.739   3.442  0.00  0.00    +0.000 A 
ATOM     35  C   UNL     1       8.008   2.014   3.345  0.00  0.00    +0.000 A 
ATOM     36  C   UNL     1       6.742   2.278   3.833  0.00  0.00    +0.000 A 
ATOM     37  C   UNL     1       6.000   1.267   4.414  0.00  0.00    +0.003 A 
ENDBRANCH  31  32
ENDBRANCH  30  31
ENDBRANCH  29  30
ENDBRANCH   9  29
TORSDOF 8
