REMARK  Name = ZINC11851877
REMARK  5 active torsions:
REMARK  status: ('A' for Active; 'I' for Inactive)
REMARK    1  A    between atoms: C_4  and  C_7
REMARK    2  A    between atoms: C_10  and  S_12
REMARK    3  A    between atoms: S_12  and  C_13
REMARK    4  A    between atoms: C_13  and  C_14
REMARK    5  A    between atoms: C_16  and  N_24
REMARK                            x       y       z     vdW  Elec       q    Type
REMARK                         _______ _______ _______ _____ _____    ______ ____
ROOT
ATOM      1  C   UNL     1      -1.951   1.774   3.684  0.00  0.00    +0.117 C 
ENDROOT
BRANCH   1   2
ATOM      2  C   UNL     1      -2.718   1.493   2.417  0.00  0.00    +0.007 A 
ATOM      3  C   UNL     1      -4.089   1.340   2.460  0.00  0.00    +0.030 A 
ATOM      4  C   UNL     1      -4.795   1.080   1.293  0.00  0.00    +0.025 A 
ATOM      5  C   UNL     1      -4.120   0.975   0.085  0.00  0.00    +0.032 A 
ATOM      6  C   UNL     1      -2.748   1.129   0.043  0.00  0.00    +0.022 A 
ATOM      7  C   UNL     1      -2.044   1.390   1.208  0.00  0.00    +0.133 A 
ATOM      8  O   UNL     1      -0.689   1.550   1.180  0.00  0.00    -0.466 OA
ATOM      9  C   UNL     1      -0.013   1.086   0.008  0.00  0.00    +0.394 C 
ATOM     10  O   UNL     1      -0.712   1.564  -1.147  0.00  0.00    -0.339 OA
ATOM     11  C   UNL     1      -2.025   1.010  -1.276  0.00  0.00    +0.202 C 
BRANCH   4  12
ATOM     12  N   UNL     1      -6.185   0.925   1.335  0.00  0.00    -0.358 N 
ATOM     13  H   UNL     1      -6.678   0.744   0.520  0.00  0.00    +0.142 HD
ATOM     14  H   UNL     1      -6.656   0.999   2.180  0.00  0.00    +0.142 HD
ENDBRANCH   4  12
ENDBRANCH   1   2
BRANCH   1  15
ATOM     15  S   UNL     1      -1.449   0.211   4.444  0.00  0.00    -0.061 S 
BRANCH  15  19
ATOM     16  C   UNL     1       0.523   0.949   7.703  0.00  0.00    +0.249 A 
ATOM     17  N   UNL     1       0.236   2.157   7.283  0.00  0.00    -0.106 NA
ATOM     18  N   UNL     1      -0.432   2.082   6.186  0.00  0.00    -0.101 NA
ATOM     19  C   UNL     1      -0.598   0.820   5.862  0.00  0.00    +0.278 A 
ATOM     20  O   UNL     1      -0.004   0.077   6.816  0.00  0.00    -0.411 OA
BRANCH  16  24
ATOM     21  C   UNL     1       2.690  -0.042  11.218  0.00  0.00    +0.000 A 
ATOM     22  C   UNL     1       2.464   1.285  10.900  0.00  0.00    +0.001 A 
ATOM     23  C   UNL     1       1.760   1.614   9.760  0.00  0.00    +0.013 A 
ATOM     24  C   UNL     1       1.277   0.604   8.926  0.00  0.00    +0.039 A 
ATOM     25  C   UNL     1       1.504  -0.733   9.256  0.00  0.00    +0.013 A 
ATOM     26  C   UNL     1       2.213  -1.048  10.396  0.00  0.00    +0.001 A 
ENDBRANCH  16  24
ENDBRANCH  15  19
ENDBRANCH   1  15
TORSDOF 5
