REMARK  Name = ZINC16382365
REMARK  9 active torsions:
REMARK  status: ('A' for Active; 'I' for Inactive)
REMARK    1  A    between atoms: C_1  and  C_2
REMARK    2  A    between atoms: C_2  and  O_3
REMARK    3  A    between atoms: O_3  and  C_4
REMARK    4  A    between atoms: C_6  and  C_18
REMARK    5  A    between atoms: C_9  and  O_10
REMARK    6  A    between atoms: O_10  and  C_11
REMARK    7  A    between atoms: C_11  and  C_12
REMARK    8  A    between atoms: C_20  and  C_32
REMARK    9  A    between atoms: C_21  and  C_26
REMARK                            x       y       z     vdW  Elec       q    Type
REMARK                         _______ _______ _______ _____ _____    ______ ____
ROOT
ATOM      1  C   UNL     1       8.810  -3.447  -1.912  0.00  0.00    +0.140 C 
ATOM      2  C   UNL     1       9.946  -2.464  -2.111  0.00  0.00    +0.060 C 
ATOM      3  C   UNL     1      11.137  -2.743  -1.506  0.00  0.00    +0.050 C 
ATOM      4  N   UNL     1      11.291  -3.878  -0.746  0.00  0.00    -0.296 N 
ATOM      5  C   UNL     1      10.314  -4.771  -0.545  0.00  0.00    +0.135 C 
ATOM      6  S   UNL     1      10.638  -6.144   0.425  0.00  0.00    -0.019 S 
ATOM      7  N   UNL     1       9.085  -4.629  -1.078  0.00  0.00    -0.315 N 
ATOM      8  H   UNL     1      12.153  -4.040  -0.332  0.00  0.00    +0.154 HD
ATOM      9  H   UNL     1       8.396  -5.291  -0.916  0.00  0.00    +0.149 HD
ENDROOT
BRANCH   1  12
ATOM     10  C   UNL     1       5.615  -1.466  -1.535  0.00  0.00    +0.162 A 
ATOM     11  C   UNL     1       6.678  -2.151  -2.102  0.00  0.00    +0.055 A 
ATOM     12  C   UNL     1       7.655  -2.702  -1.294  0.00  0.00    -0.019 A 
ATOM     13  C   UNL     1       7.575  -2.571   0.080  0.00  0.00    +0.009 A 
ATOM     14  C   UNL     1       6.520  -1.885   0.652  0.00  0.00    +0.050 A 
ATOM     15  C   UNL     1       5.535  -1.334  -0.152  0.00  0.00    +0.162 A 
BRANCH  10  16
ATOM     16  O   UNL     1       4.654  -0.922  -2.328  0.00  0.00    -0.489 OA
BRANCH  16  18
ATOM     17  C   UNL     1       3.634  -0.422  -4.462  0.00  0.00    +0.048 C 
ATOM     18  C   UNL     1       4.802  -1.097  -3.739  0.00  0.00    +0.226 C 
ENDBRANCH  16  18
ENDBRANCH  10  16
BRANCH  15  19
ATOM     19  O   UNL     1       4.494  -0.663   0.409  0.00  0.00    -0.484 OA
BRANCH  19  20
ATOM     20  C   UNL     1       4.476  -0.568   1.835  0.00  0.00    +0.264 C 
BRANCH  20  21
ATOM     21  C   UNL     1       3.258   0.205   2.272  0.00  0.00    -0.010 A 
ATOM     22  C   UNL     1       2.074  -0.460   2.532  0.00  0.00    +0.007 A 
ATOM     23  C   UNL     1       0.957   0.249   2.933  0.00  0.00    +0.000 A 
ATOM     24  C   UNL     1       1.023   1.623   3.072  0.00  0.00    +0.000 A 
ATOM     25  C   UNL     1       2.207   2.287   2.812  0.00  0.00    +0.000 A 
ATOM     26  C   UNL     1       3.324   1.579   2.411  0.00  0.00    +0.007 A 
ENDBRANCH  20  21
ENDBRANCH  19  20
ENDBRANCH  15  19
ENDBRANCH   1  12
BRANCH   3  27
ATOM     27  C   UNL     1      12.274  -1.815  -1.670  0.00  0.00    -0.003 A 
ATOM     28  C   UNL     1      12.992  -1.381  -0.554  0.00  0.00    +0.010 A 
ATOM     29  C   UNL     1      14.057  -0.519  -0.715  0.00  0.00    +0.001 A 
ATOM     30  C   UNL     1      14.406  -0.075  -1.978  0.00  0.00    +0.000 A 
ATOM     31  C   UNL     1      13.695  -0.496  -3.088  0.00  0.00    +0.001 A 
ATOM     32  C   UNL     1      12.632  -1.362  -2.942  0.00  0.00    +0.010 A 
ENDBRANCH   3  27
BRANCH   2  33
ATOM     33  C   UNL     1       9.778  -1.302  -2.894  0.00  0.00    +0.241 C 
ATOM     34  O   UNL     1       9.751  -1.385  -4.109  0.00  0.00    -0.271 OA
ATOM     35  N   UNL     1       9.648  -0.101  -2.297  0.00  0.00    -0.325 N 
ATOM     36  H   UNL     1       9.603  -0.042  -1.329  0.00  0.00    +0.145 HD
ATOM     37  H   UNL     1       9.599   0.705  -2.834  0.00  0.00    +0.145 HD
ENDBRANCH   2  33
TORSDOF 8
