REMARK  Name = ZINC58880658
REMARK  8 active torsions:
REMARK  status: ('A' for Active; 'I' for Inactive)
REMARK    1  A    between atoms: C_3  and  C_6
REMARK    2  A    between atoms: C_6  and  N_7
REMARK    3  A    between atoms: C_8  and  C_10
REMARK    4  A    between atoms: C_10  and  O_11
REMARK    5  A    between atoms: O_11  and  C_12
REMARK    6  A    between atoms: C_15  and  C_18
REMARK    7  A    between atoms: N_19  and  N_20
REMARK    8  A    between atoms: C_21  and  C_23
REMARK                            x       y       z     vdW  Elec       q    Type
REMARK                         _______ _______ _______ _____ _____    ______ ____
ROOT
ATOM      1  C   UNL     1       8.029   0.736   4.169  0.00  0.00    +0.121 A 
ATOM      2  C   UNL     1       7.312   1.024   5.324  0.00  0.00    +0.046 A 
ATOM      3  C   UNL     1       7.949   1.047   6.545  0.00  0.00    +0.013 A 
ATOM      4  C   UNL     1       9.319   0.779   6.622  0.00  0.00    -0.005 A 
ATOM      5  C   UNL     1      10.037   0.490   5.457  0.00  0.00    +0.013 A 
ATOM      6  C   UNL     1       9.390   0.465   4.241  0.00  0.00    +0.046 A 
ENDROOT
BRANCH   4   7
ATOM      7  C   UNL     1      10.005   0.803   7.925  0.00  0.00    +0.138 C 
ATOM      8  N   UNL     1      11.279   0.555   7.994  0.00  0.00    -0.187 NA
BRANCH   8   9
ATOM      9  N   UNL     1      11.931   0.577   9.233  0.00  0.00    -0.199 N 
ATOM     10  C   UNL     1      13.252   0.319   9.305  0.00  0.00    +0.318 C 
ATOM     11  O   UNL     1      13.877   0.067   8.294  0.00  0.00    -0.263 OA
ATOM     12  H   UNL     1      11.432   0.778  10.040  0.00  0.00    +0.178 HD
BRANCH  10  13
ATOM     13  C   UNL     1      13.947   0.343  10.624  0.00  0.00    +0.303 C 
ATOM     14  O   UNL     1      13.305   0.478  11.646  0.00  0.00    -0.265 OA
ATOM     15  N   UNL     1      15.287   0.215  10.683  0.00  0.00    -0.294 N 
ATOM     16  C   UNL     1      15.970   0.076  11.976  0.00  0.00    +0.108 C 
ATOM     17  C   UNL     1      16.849  -1.178  11.937  0.00  0.00    +0.019 C 
ATOM     18  C   UNL     1      17.792  -1.098  10.734  0.00  0.00    +0.003 C 
ATOM     19  C   UNL     1      16.971  -1.043   9.444  0.00  0.00    +0.019 C 
ATOM     20  C   UNL     1      16.093   0.206   9.454  0.00  0.00    +0.108 C 
ENDBRANCH  10  13
ENDBRANCH   8   9
ENDBRANCH   4   7
BRANCH   1  21
ATOM     21  O   UNL     1       7.397   0.715   2.967  0.00  0.00    -0.483 OA
BRANCH  21  22
ATOM     22  C   UNL     1       5.997   1.003   2.966  0.00  0.00    +0.324 C 
BRANCH  22  24
ATOM     23  N   UNL     1       4.168   1.171   1.309  0.00  0.00    -0.305 N 
ATOM     24  C   UNL     1       5.472   0.933   1.555  0.00  0.00    +0.251 C 
ATOM     25  O   UNL     1       6.222   0.663   0.641  0.00  0.00    -0.272 OA
ATOM     26  H   UNL     1       3.568   1.387   2.039  0.00  0.00    +0.149 HD
BRANCH  23  27
ATOM     27  C   UNL     1       3.658   1.103  -0.063  0.00  0.00    +0.178 C 
BRANCH  27  30
ATOM     28  C   UNL     1       0.228   2.450  -0.146  0.00  0.00    +0.041 A 
ATOM     29  C   UNL     1       1.630   2.626  -0.200  0.00  0.00    +0.046 A 
ATOM     30  C   UNL     1       2.182   1.407  -0.065  0.00  0.00    +0.122 A 
ATOM     31  O   UNL     1       1.194   0.506   0.067  0.00  0.00    -0.466 OA
ATOM     32  C   UNL     1       0.007   1.133   0.019  0.00  0.00    +0.195 A 
ENDBRANCH  27  30
ENDBRANCH  23  27
ENDBRANCH  22  24
ENDBRANCH  21  22
ENDBRANCH   1  21
TORSDOF 8
