REMARK  Name = ZINC37358315
REMARK  9 active torsions:
REMARK  status: ('A' for Active; 'I' for Inactive)
REMARK    1  A    between atoms: C_1  and  C_2
REMARK    2  A    between atoms: C_2  and  O_3
REMARK    3  A    between atoms: O_3  and  C_4
REMARK    4  A    between atoms: C_9  and  C_10
REMARK    5  A    between atoms: C_10  and  C_12
REMARK    6  A    between atoms: C_10  and  N_15
REMARK    7  A    between atoms: N_15  and  C_16
REMARK    8  A    between atoms: N_15  and  C_17
REMARK    9  A    between atoms: C_19  and  C_22
REMARK                            x       y       z     vdW  Elec       q    Type
REMARK                         _______ _______ _______ _____ _____    ______ ____
ROOT
ATOM      1  C   UNL     1       0.802  -1.825   1.306  0.00  0.00    +0.123 A 
ATOM      2  C   UNL     1       0.260  -2.676   0.352  0.00  0.00    +0.053 A 
ATOM      3  C   UNL     1       0.375  -4.040   0.504  0.00  0.00    +0.001 A 
ATOM      4  C   UNL     1       1.034  -4.581   1.601  0.00  0.00    +0.125 A 
ATOM      5  C   UNL     1       1.571  -3.723   2.556  0.00  0.00    +0.052 A 
ATOM      6  C   UNL     1       1.460  -2.356   2.405  0.00  0.00    -0.005 A 
ATOM      7  O   UNL     1       1.051  -5.942   1.542  0.00  0.00    -0.488 OA
ATOM      8  C   UNL     1       0.025  -6.390   0.640  0.00  0.00    +0.175 C 
ATOM      9  C   UNL     1      -0.110  -5.202  -0.341  0.00  0.00    +0.083 C 
ATOM     10  C   UNL     1       0.466  -7.657  -0.096  0.00  0.00    +0.052 C 
ENDROOT
BRANCH   1  11
ATOM     11  O   UNL     1       0.693  -0.477   1.160  0.00  0.00    -0.492 OA
BRANCH  11  13
ATOM     12  C   UNL     1      -0.019   1.526   0.010  0.00  0.00    +0.048 C 
ATOM     13  C   UNL     1       0.002  -0.004   0.002  0.00  0.00    +0.225 C 
ENDBRANCH  11  13
ENDBRANCH   1  11
BRANCH   6  14
ATOM     14  C   UNL     1       2.051  -1.436   3.442  0.00  0.00    +0.080 C 
BRANCH  14  15
ATOM     15  N   UNL     1       3.151  -2.121   4.134  0.00  0.00    +0.388 N 
ATOM     16  C   UNL     1       4.187  -2.491   3.160  0.00  0.00    -0.095 C 
ATOM     17  C   UNL     1       3.728  -1.225   5.145  0.00  0.00    -0.095 C 
ATOM     18  H   UNL     1       2.800  -2.953   4.583  0.00  0.00    -0.081 HD
ENDBRANCH  14  15
BRANCH  14  19
ATOM     19  C   UNL     1       0.988  -1.057   4.441  0.00  0.00    +0.347 C 
ATOM     20  O   UNL     1       1.042  -1.486   5.581  0.00  0.00    -0.248 OA
ATOM     21  O   UNL     1       0.075  -0.321   4.109  0.00  0.00    -0.248 OA
ENDBRANCH  14  19
ENDBRANCH   6  14
TORSDOF 5
