REMARK  Name = ZINC05728233
REMARK  8 active torsions:
REMARK  status: ('A' for Active; 'I' for Inactive)
REMARK    1  A    between atoms: C_1  and  N_2
REMARK    2  A    between atoms: N_2  and  C_3
REMARK    3  A    between atoms: C_6  and  O_11
REMARK    4  A    between atoms: C_8  and  N_9
REMARK    5  A    between atoms: N_9  and  C_10
REMARK    6  A    between atoms: O_11  and  C_12
REMARK    7  A    between atoms: C_12  and  N_13
REMARK    8  A    between atoms: C_15  and  C_27
REMARK                            x       y       z     vdW  Elec       q    Type
REMARK                         _______ _______ _______ _____ _____    ______ ____
ROOT
ATOM      1  N   UNL     1       0.837   7.914   1.144  0.00  0.00    -0.296 N 
ATOM      2  C   UNL     1       2.006   8.501   0.714  0.00  0.00    +0.144 A 
ATOM      3  C   UNL     1       3.021   8.931   1.684  0.00  0.00    +0.108 A 
ATOM      4  C   UNL     1       4.168   9.509   1.210  0.00  0.00    +0.117 A 
ATOM      5  N   UNL     1       4.329   9.666  -0.133  0.00  0.00    -0.282 N 
ATOM      6  C   UNL     1       5.365  10.206  -0.878  0.00  0.00    +0.075 A 
ATOM      7  C   UNL     1       6.587  10.774  -0.551  0.00  0.00    +0.028 A 
ATOM      8  C   UNL     1       7.421  11.232  -1.549  0.00  0.00    +0.002 A 
ATOM      9  C   UNL     1       7.046  11.129  -2.881  0.00  0.00    +0.002 A 
ATOM     10  C   UNL     1       5.838  10.569  -3.226  0.00  0.00    +0.030 A 
ATOM     11  C   UNL     1       4.979  10.100  -2.225  0.00  0.00    +0.092 A 
ATOM     12  N   UNL     1       3.758   9.515  -2.251  0.00  0.00    -0.210 NA
ATOM     13  C   UNL     1       3.360   9.252  -1.014  0.00  0.00    +0.238 A 
ATOM     14  N   UNL     1       2.229   8.677  -0.574  0.00  0.00    -0.196 NA
ATOM     15  H   UNL     1       0.681   7.783   2.092  0.00  0.00    +0.151 HD
ENDROOT
BRANCH   3  16
ATOM     16  C   UNL     1       2.815   8.750   3.089  0.00  0.00    +0.104 C 
ATOM     17  N   UNL     1       2.652   8.607   4.204  0.00  0.00    -0.191 NA
ENDBRANCH   3  16
BRANCH   1  18
ATOM     18  C   UNL     1      -0.170   7.487   0.169  0.00  0.00    +0.337 C 
BRANCH  18  19
ATOM     19  O   UNL     1       0.014   6.103  -0.131  0.00  0.00    -0.473 OA
BRANCH  19  23
ATOM     20  C   UNL     1      -1.495   3.383   2.590  0.00  0.00    +0.048 A 
ATOM     21  C   UNL     1      -1.637   4.743   2.815  0.00  0.00    +0.028 A 
ATOM     22  C   UNL     1      -1.131   5.652   1.904  0.00  0.00    +0.047 A 
ATOM     23  C   UNL     1      -0.482   5.206   0.763  0.00  0.00    +0.125 A 
ATOM     24  C   UNL     1      -0.333   3.846   0.535  0.00  0.00    +0.070 A 
ATOM     25  C   UNL     1      -0.843   2.932   1.444  0.00  0.00    +0.051 A 
BRANCH  20  27
ATOM     26  C   UNL     1      -2.694   2.936   4.720  0.00  0.00    +0.125 C 
ATOM     27  N   UNL     1      -2.008   2.461   3.515  0.00  0.00    -0.345 N 
ATOM     28  H   UNL     1      -1.909   1.509   3.357  0.00  0.00    +0.146 HD
ENDBRANCH  20  27
BRANCH  25  29
ATOM     29  N   UNL     1      -0.698   1.558   1.213  0.00  0.00    -0.345 N 
ATOM     30  C   UNL     1      -0.013   1.086   0.008  0.00  0.00    +0.125 C 
ATOM     31  H   UNL     1      -1.052   0.920   1.852  0.00  0.00    +0.146 HD
ENDBRANCH  25  29
ENDBRANCH  19  23
ENDBRANCH  18  19
ENDBRANCH   1  18
TORSDOF 6
