REMARK  Name = ZINC45631253
REMARK  10 active torsions:
REMARK  status: ('A' for Active; 'I' for Inactive)
REMARK    1  A    between atoms: C_1  and  C_2
REMARK    2  A    between atoms: C_3  and  C_19
REMARK    3  A    between atoms: C_4  and  C_18
REMARK    4  A    between atoms: C_7  and  C_8
REMARK    5  A    between atoms: N_10  and  N_11
REMARK    6  A    between atoms: C_12  and  C_14
REMARK    7  A    between atoms: C_14  and  C_15
REMARK    8  A    between atoms: C_15  and  C_16
REMARK    9  A    between atoms: C_15  and  C_17
REMARK   10  A    between atoms: C_19  and  C_21
REMARK                            x       y       z     vdW  Elec       q    Type
REMARK                         _______ _______ _______ _____ _____    ______ ____
ROOT
ATOM      1  C   UNL     1      -0.375  -0.768   2.561  0.00  0.00    +0.277 C 
ATOM      2  O   UNL     1      -0.528   0.362   2.984  0.00  0.00    -0.267 OA
ATOM      3  N   UNL     1      -0.399  -1.815   3.410  0.00  0.00    -0.229 N 
ATOM      4  H   UNL     1      -0.277  -2.716   3.072  0.00  0.00    +0.173 HD
ENDROOT
BRANCH   1  11
ATOM      5  C   UNL     1      -0.273   1.457   0.379  0.00  0.00    +0.047 C 
ATOM      6  C   UNL     1      -0.118  -0.026   0.166  0.00  0.00    -0.010 A 
ATOM      7  C   UNL     1       0.109  -0.680  -1.069  0.00  0.00    +0.041 A 
ATOM      8  C   UNL     1       0.186  -2.038  -0.800  0.00  0.00    +0.024 A 
ATOM      9  N   UNL     1       0.018  -2.217   0.518  0.00  0.00    -0.354 N 
ATOM     10  H   UNL     1       0.028  -3.073   0.974  0.00  0.00    +0.166 HD
ATOM     11  C   UNL     1      -0.164  -0.993   1.125  0.00  0.00    +0.107 A 
ATOM     12  C   UNL     1       0.420  -3.126  -1.816  0.00  0.00    +0.064 C 
BRANCH   7  13
ATOM     13  C   UNL     1       0.238  -0.043  -2.384  0.00  0.00    +0.162 C 
ATOM     14  O   UNL     1      -0.751   0.176  -3.051  0.00  0.00    -0.292 OA
ATOM     15  C   UNL     1       1.599   0.341  -2.905  0.00  0.00    +0.091 C 
ENDBRANCH   7  13
ENDBRANCH   1  11
BRANCH   3  16
ATOM     16  N   UNL     1      -0.600  -1.601   4.779  0.00  0.00    -0.234 N 
ATOM     17  C   UNL     1      -0.624  -2.647   5.629  0.00  0.00    +0.229 C 
ATOM     18  O   UNL     1      -0.472  -3.774   5.207  0.00  0.00    -0.274 OA
ATOM     19  H   UNL     1      -0.722  -0.700   5.117  0.00  0.00    +0.173 HD
BRANCH  17  20
ATOM     20  C   UNL     1      -0.841  -2.417   7.102  0.00  0.00    +0.100 C 
BRANCH  20  21
ATOM     21  C   UNL     1      -0.824  -3.760   7.836  0.00  0.00    -0.008 C 
ATOM     22  C   UNL     1      -0.919  -3.518   9.344  0.00  0.00    +0.008 C 
ATOM     23  C   UNL     1      -2.015  -4.605   7.379  0.00  0.00    +0.008 C 
ENDBRANCH  20  21
ENDBRANCH  17  20
ENDBRANCH   3  16
TORSDOF 5
