REMARK  Name = ZINC16254789
REMARK  7 active torsions:
REMARK  status: ('A' for Active; 'I' for Inactive)
REMARK    1  A    between atoms: C_4  and  C_7
REMARK    2  A    between atoms: C_7  and  C_30
REMARK    3  A    between atoms: N_10  and  C_14
REMARK    4  A    between atoms: C_14  and  C_15
REMARK    5  A    between atoms: C_15  and  C_17
REMARK    6  A    between atoms: C_18  and  N_29
REMARK    7  A    between atoms: N_19  and  C_26
REMARK                            x       y       z     vdW  Elec       q    Type
REMARK                         _______ _______ _______ _____ _____    ______ ____
ROOT
ATOM      1  C   UNL     1       4.768   0.185   0.633  0.00  0.00    +0.164 C 
ATOM      2  C   UNL     1       4.828  -0.210  -0.829  0.00  0.00    +0.256 C 
ATOM      3  O   UNL     1       3.960  -0.754  -1.477  0.00  0.00    -0.272 OA
ATOM      4  N   UNL     1       6.048   0.170  -1.259  0.00  0.00    -0.216 N 
ATOM      5  C   UNL     1       6.759   0.744  -0.282  0.00  0.00    +0.310 C 
ATOM      6  O   UNL     1       7.888   1.167  -0.429  0.00  0.00    -0.252 OA
ATOM      7  N   UNL     1       6.084   0.799   0.880  0.00  0.00    -0.278 N 
ATOM      8  H   UNL     1       6.402   1.171   1.718  0.00  0.00    +0.152 HD
ENDROOT
BRANCH   1  12
ATOM      9  C   UNL     1       1.639   3.015   1.300  0.00  0.00    +0.000 A 
ATOM     10  C   UNL     1       1.360   1.808   0.686  0.00  0.00    +0.000 A 
ATOM     11  C   UNL     1       2.373   0.892   0.470  0.00  0.00    +0.006 A 
ATOM     12  C   UNL     1       3.664   1.183   0.868  0.00  0.00    -0.011 A 
ATOM     13  C   UNL     1       3.943   2.391   1.480  0.00  0.00    +0.006 A 
ATOM     14  C   UNL     1       2.931   3.306   1.698  0.00  0.00    +0.000 A 
ENDBRANCH   1  12
BRANCH   1  15
ATOM     15  C   UNL     1       4.577  -1.029   1.506  0.00  0.00    -0.011 A 
ATOM     16  C   UNL     1       3.491  -1.860   1.306  0.00  0.00    +0.006 A 
ATOM     17  C   UNL     1       3.315  -2.973   2.107  0.00  0.00    +0.000 A 
ATOM     18  C   UNL     1       4.227  -3.256   3.107  0.00  0.00    +0.000 A 
ATOM     19  C   UNL     1       5.314  -2.425   3.306  0.00  0.00    +0.000 A 
ATOM     20  C   UNL     1       5.492  -1.314   2.503  0.00  0.00    +0.006 A 
ENDBRANCH   1  15
BRANCH   4  21
ATOM     21  C   UNL     1       6.535  -0.023  -2.627  0.00  0.00    +0.197 C 
BRANCH  21  22
ATOM     22  C   UNL     1       6.177   1.180  -3.462  0.00  0.00    +0.189 C 
ATOM     23  O   UNL     1       5.574   2.108  -2.962  0.00  0.00    -0.290 OA
BRANCH  22  24
ATOM     24  C   UNL     1       6.543   1.228  -4.824  0.00  0.00    +0.121 A 
ATOM     25  C   UNL     1       6.118   2.281  -5.653  0.00  0.00    +0.116 A 
ATOM     26  N   UNL     1       6.498   2.284  -6.965  0.00  0.00    -0.278 N 
ATOM     27  C   UNL     1       7.265   1.305  -7.471  0.00  0.00    +0.331 A 
ATOM     28  O   UNL     1       7.576   1.354  -8.645  0.00  0.00    -0.246 OA
ATOM     29  N   UNL     1       7.701   0.275  -6.728  0.00  0.00    -0.274 N 
ATOM     30  H   UNL     1       8.253  -0.410  -7.137  0.00  0.00    +0.173 HD
ATOM     31  C   UNL     1       7.386   0.183  -5.420  0.00  0.00    +0.266 A 
ATOM     32  O   UNL     1       7.787  -0.750  -4.748  0.00  0.00    -0.267 OA
BRANCH  26  33
ATOM     33  C   UNL     1       6.060   3.376  -7.836  0.00  0.00    +0.094 C 
ATOM     34  C   UNL     1       7.122   4.059  -8.701  0.00  0.00    +0.027 C 
ATOM     35  C   UNL     1       6.535   4.789  -7.491  0.00  0.00    +0.027 C 
ENDBRANCH  26  33
BRANCH  25  36
ATOM     36  N   UNL     1       5.340   3.280  -5.156  0.00  0.00    -0.344 N 
ATOM     37  H   UNL     1       4.921   3.183  -4.287  0.00  0.00    +0.144 HD
ATOM     38  H   UNL     1       5.204   4.090  -5.672  0.00  0.00    +0.144 HD
ENDBRANCH  25  36
ENDBRANCH  22  24
ENDBRANCH  21  22
ENDBRANCH   4  21
TORSDOF 7
