REMARK  Name = ZINC45868422
REMARK  9 active torsions:
REMARK  status: ('A' for Active; 'I' for Inactive)
REMARK    1  A    between atoms: C_1  and  N_2
REMARK    2  A    between atoms: N_9  and  C_30
REMARK    3  A    between atoms: C_11  and  C_12
REMARK    4  A    between atoms: C_11  and  C_14
REMARK    5  A    between atoms: C_14  and  C_16
REMARK    6  A    between atoms: C_16  and  O_17
REMARK    7  A    between atoms: O_17  and  C_18
REMARK    8  A    between atoms: C_18  and  C_20
REMARK    9  A    between atoms: C_24  and  N_26
REMARK                            x       y       z     vdW  Elec       q    Type
REMARK                         _______ _______ _______ _____ _____    ______ ____
ROOT
ATOM      1  C   UNL     1       0.064  -1.051   5.350  0.00  0.00    +0.312 C 
ENDROOT
BRANCH   1   2
ATOM      2  C   UNL     1       0.189  -1.273   3.865  0.00  0.00    +0.214 C 
ATOM      3  O   UNL     1       0.189  -2.403   3.417  0.00  0.00    -0.288 OA
BRANCH   2  14
ATOM      4  C   UNL     1       0.440   1.965   0.854  0.00  0.00    +0.137 C 
ATOM      5  N   UNL     1      -0.701   1.095   1.150  0.00  0.00    -0.289 N 
ATOM      6  C   UNL     1      -1.923   1.101   0.488  0.00  0.00    +0.056 A 
ATOM      7  C   UNL     1      -2.427   1.851  -0.566  0.00  0.00    +0.025 A 
ATOM      8  C   UNL     1      -3.711   1.625  -1.019  0.00  0.00    +0.002 A 
ATOM      9  C   UNL     1      -4.500   0.652  -0.427  0.00  0.00    +0.002 A 
ATOM     10  C   UNL     1      -4.009  -0.099   0.622  0.00  0.00    +0.025 A 
ATOM     11  C   UNL     1      -2.719   0.120   1.085  0.00  0.00    +0.056 A 
ATOM     12  N   UNL     1      -1.962  -0.460   2.097  0.00  0.00    -0.289 N 
ATOM     13  C   UNL     1      -0.744   0.141   2.116  0.00  0.00    +0.118 C 
ATOM     14  C   UNL     1       0.305  -0.173   2.998  0.00  0.00    +0.134 C 
ATOM     15  C   UNL     1      -2.402  -1.537   2.987  0.00  0.00    +0.137 C 
BRANCH  14  16
ATOM     16  C   UNL     1       1.492   0.627   3.012  0.00  0.00    +0.106 C 
ATOM     17  N   UNL     1       2.434   1.262   3.023  0.00  0.00    -0.191 NA
ENDBRANCH  14  16
ENDBRANCH   2  14
ENDBRANCH   1   2
BRANCH   1  18
ATOM     18  O   UNL     1      -0.040  -2.313   6.013  0.00  0.00    -0.453 OA
BRANCH  18  19
ATOM     19  C   UNL     1      -0.160  -2.291   7.355  0.00  0.00    +0.340 C 
ATOM     20  O   UNL     1      -0.175  -1.229   7.946  0.00  0.00    -0.245 OA
BRANCH  19  21
ATOM     21  C   UNL     1      -0.272  -3.557   8.107  0.00  0.00    +0.061 A 
ATOM     22  C   UNL     1      -0.248  -4.779   7.431  0.00  0.00    +0.015 A 
ATOM     23  C   UNL     1      -0.353  -5.960   8.136  0.00  0.00    +0.003 A 
ATOM     24  C   UNL     1      -0.481  -5.939   9.513  0.00  0.00    +0.023 A 
ATOM     25  C   UNL     1      -0.505  -4.729  10.195  0.00  0.00    +0.036 A 
ATOM     26  C   UNL     1      -0.395  -3.537   9.497  0.00  0.00    +0.038 A 
BRANCH  25  27
ATOM     27  N   UNL     1      -0.635  -4.714  11.589  0.00  0.00    -0.270 N 
ATOM     28  C   UNL     1      -1.277  -3.696  12.195  0.00  0.00    +0.301 C 
ATOM     29  O   UNL     1      -1.832  -2.844  11.528  0.00  0.00    -0.253 OA
ATOM     30  N   UNL     1      -1.305  -3.623  13.540  0.00  0.00    -0.313 N 
ATOM     31  H   UNL     1      -0.263  -5.437  12.119  0.00  0.00    +0.156 HD
ATOM     32  H   UNL     1      -0.863  -4.303  14.073  0.00  0.00    +0.146 HD
ATOM     33  H   UNL     1      -1.768  -2.890  13.977  0.00  0.00    +0.146 HD
ENDBRANCH  25  27
ENDBRANCH  19  21
ENDBRANCH  18  19
ENDBRANCH   1  18
TORSDOF 7
