REMARK  Name = ZINC13520842
REMARK  9 active torsions:
REMARK  status: ('A' for Active; 'I' for Inactive)
REMARK    1  A    between atoms: C_10  and  C_11
REMARK    2  A    between atoms: C_10  and  C_18
REMARK    3  A    between atoms: C_14  and  O_17
REMARK    4  A    between atoms: C_21  and  O_24
REMARK    5  A    between atoms: O_24  and  C_25
REMARK    6  A    between atoms: C_27  and  O_40
REMARK    7  A    between atoms: C_29  and  O_39
REMARK    8  A    between atoms: C_31  and  O_38
REMARK    9  A    between atoms: C_33  and  C_36
REMARK                            x       y       z     vdW  Elec       q    Type
REMARK                         _______ _______ _______ _____ _____    ______ ____
ROOT
ATOM      1  C   UNL     1       0.052  -5.396  -3.842  0.00  0.00    +0.005 A 
ATOM      2  C   UNL     1      -0.166  -6.357  -2.872  0.00  0.00    +0.012 A 
ATOM      3  C   UNL     1      -0.785  -6.013  -1.685  0.00  0.00    +0.046 A 
ATOM      4  C   UNL     1      -1.187  -4.704  -1.468  0.00  0.00    +0.124 A 
ATOM      5  C   UNL     1      -0.972  -3.743  -2.445  0.00  0.00    +0.046 A 
ATOM      6  C   UNL     1      -0.348  -4.090  -3.628  0.00  0.00    +0.012 A 
ENDROOT
BRANCH   1  16
ATOM      7  C   UNL     1       3.498  -2.882  -6.556  0.00  0.00    +0.001 A 
ATOM      8  C   UNL     1       2.179  -2.467  -6.498  0.00  0.00    +0.000 A 
ATOM      9  C   UNL     1       1.195  -3.332  -6.049  0.00  0.00    +0.009 A 
ATOM     10  C   UNL     1       1.529  -4.608  -5.660  0.00  0.00    +0.019 A 
ATOM     11  C   UNL     1       2.857  -5.038  -5.715  0.00  0.00    +0.067 A 
ATOM     12  C   UNL     1       3.844  -4.160  -6.168  0.00  0.00    +0.015 A 
ATOM     13  C   UNL     1       2.906  -6.433  -5.241  0.00  0.00    +0.341 C 
ATOM     14  O   UNL     1       3.914  -7.106  -5.164  0.00  0.00    -0.245 OA
ATOM     15  O   UNL     1       1.674  -6.853  -4.908  0.00  0.00    -0.440 OA
ATOM     16  C   UNL     1       0.728  -5.773  -5.136  0.00  0.00    +0.190 C 
BRANCH  16  17
ATOM     17  C   UNL     1      -0.302  -6.194  -6.152  0.00  0.00    +0.005 A 
ATOM     18  C   UNL     1      -0.857  -5.255  -7.002  0.00  0.00    +0.012 A 
ATOM     19  C   UNL     1      -1.797  -5.639  -7.938  0.00  0.00    +0.046 A 
ATOM     20  C   UNL     1      -2.192  -6.966  -8.019  0.00  0.00    +0.117 A 
ATOM     21  C   UNL     1      -1.638  -7.906  -7.162  0.00  0.00    +0.046 A 
ATOM     22  C   UNL     1      -0.694  -7.518  -6.231  0.00  0.00    +0.012 A 
BRANCH  20  23
ATOM     23  O   UNL     1      -3.120  -7.346  -8.936  0.00  0.00    -0.507 OA
ATOM     24  H   UNL     1      -4.032  -7.300  -8.616  0.00  0.00    +0.292 HD
ENDBRANCH  20  23
ENDBRANCH  16  17
ENDBRANCH   1  16
BRANCH   4  25
ATOM     25  O   UNL     1      -1.796  -4.364  -0.301  0.00  0.00    -0.461 OA
BRANCH  25  26
ATOM     26  C   UNL     1      -2.183  -2.997  -0.146  0.00  0.00    +0.340 C 
ATOM     27  C   UNL     1      -2.956  -2.831   1.165  0.00  0.00    +0.214 C 
ATOM     28  C   UNL     1      -3.315  -1.354   1.353  0.00  0.00    +0.180 C 
ATOM     29  C   UNL     1      -2.031  -0.520   1.327  0.00  0.00    +0.186 C 
ATOM     30  C   UNL     1      -1.293  -0.775   0.010  0.00  0.00    +0.266 C 
ATOM     31  O   UNL     1      -1.016  -2.172  -0.117  0.00  0.00    -0.322 OA
BRANCH  30  32
ATOM     32  C   UNL     1       0.002  -0.004   0.002  0.00  0.00    +0.387 C 
ATOM     33  O   UNL     1       1.056  -0.594  -0.011  0.00  0.00    -0.243 OA
ATOM     34  O   UNL     1      -0.016   1.338   0.009  0.00  0.00    -0.243 OA
ENDBRANCH  30  32
BRANCH  29  35
ATOM     35  O   UNL     1      -2.359   0.867   1.429  0.00  0.00    -0.386 OA
ATOM     36  H   UNL     1      -1.592   1.455   1.414  0.00  0.00    +0.210 HD
ENDBRANCH  29  35
BRANCH  28  37
ATOM     37  O   UNL     1      -4.180  -0.933   0.296  0.00  0.00    -0.386 OA
ATOM     38  H   UNL     1      -5.011  -1.424   0.249  0.00  0.00    +0.210 HD
ENDBRANCH  28  37
BRANCH  27  39
ATOM     39  O   UNL     1      -4.152  -3.612   1.115  0.00  0.00    -0.383 OA
ATOM     40  H   UNL     1      -3.999  -4.559   0.993  0.00  0.00    +0.210 HD
ENDBRANCH  27  39
ENDBRANCH  25  26
ENDBRANCH   4  25
TORSDOF 9
