REMARK  Name = ZINC06300265
REMARK  6 active torsions:
REMARK  status: ('A' for Active; 'I' for Inactive)
REMARK    1  A    between atoms: C_1  and  C_2
REMARK    2  A    between atoms: C_4  and  C_8
REMARK    3  A    between atoms: C_5  and  C_7
REMARK    4  A    between atoms: C_15  and  N_29
REMARK    5  A    between atoms: C_16  and  C_27
REMARK    6  A    between atoms: C_17  and  C_19
REMARK                            x       y       z     vdW  Elec       q    Type
REMARK                         _______ _______ _______ _____ _____    ______ ____
ROOT
ATOM      1  C   UNL     1      -2.145  -3.459  -0.158  0.00  0.00    +0.101 A 
ATOM      2  C   UNL     1      -3.446  -2.988   0.042  0.00  0.00    +0.054 A 
ATOM      3  C   UNL     1      -4.288  -4.063   0.051  0.00  0.00    +0.223 A 
ATOM      4  N   UNL     1      -3.541  -5.171  -0.137  0.00  0.00    -0.246 N 
ATOM      5  H   UNL     1      -3.872  -6.082  -0.177  0.00  0.00    +0.192 HD
ATOM      6  N   UNL     1      -2.202  -4.773  -0.271  0.00  0.00    -0.171 NA
ATOM      7  O   UNL     1      -5.627  -3.942   0.229  0.00  0.00    -0.423 OA
ATOM      8  C   UNL     1      -6.094  -2.757   0.671  0.00  0.00    +0.200 C 
ATOM      9  C   UNL     1      -5.361  -1.622   0.697  0.00  0.00    +0.098 C 
ATOM     10  C   UNL     1      -3.930  -1.573   0.222  0.00  0.00    +0.102 C 
ENDROOT
BRANCH  10  11
ATOM     11  C   UNL     1      -3.855  -0.838  -1.091  0.00  0.00    -0.033 A 
ATOM     12  C   UNL     1      -4.519  -1.333  -2.199  0.00  0.00    +0.006 A 
ATOM     13  C   UNL     1      -4.451  -0.660  -3.404  0.00  0.00    +0.022 A 
ATOM     14  C   UNL     1      -3.717   0.509  -3.503  0.00  0.00    +0.059 A 
ATOM     15  C   UNL     1      -3.053   1.004  -2.394  0.00  0.00    +0.060 A 
ATOM     16  C   UNL     1      -3.127   0.332  -1.187  0.00  0.00    +0.026 A 
ATOM     17 CL   UNL     1      -2.132   2.471  -2.517  0.00  0.00    -0.082 Cl
ATOM     18 CL   UNL     1      -3.631   1.354  -5.017  0.00  0.00    -0.082 Cl
ENDBRANCH  10  11
BRANCH   1  22
ATOM     19  C   UNL     1       0.957   0.202   1.504  0.00  0.00    +0.051 C 
ATOM     20  C   UNL     1       0.466  -0.908   0.611  0.00  0.00    -0.012 A 
ATOM     21  C   UNL     1      -0.664  -1.644   0.715  0.00  0.00    +0.021 A 
ATOM     22  C   UNL     1      -0.917  -2.628  -0.235  0.00  0.00    +0.013 A 
ATOM     23  C   UNL     1      -0.011  -2.813  -1.241  0.00  0.00    -0.004 A 
ATOM     24  S   UNL     1       1.222  -1.581  -0.859  0.00  0.00    -0.098 S 
ATOM     25  C   UNL     1      -0.047  -3.798  -2.381  0.00  0.00    +0.052 C 
ENDBRANCH   1  22
BRANCH   8  26
ATOM     26  N   UNL     1      -7.390  -2.700   1.120  0.00  0.00    -0.328 N 
ATOM     27  H   UNL     1      -7.941  -3.498   1.114  0.00  0.00    +0.145 HD
ATOM     28  H   UNL     1      -7.755  -1.862   1.445  0.00  0.00    +0.145 HD
ENDBRANCH   8  26
BRANCH   9  29
ATOM     29  C   UNL     1      -5.965  -0.422   1.192  0.00  0.00    +0.101 C 
ATOM     30  N   UNL     1      -6.444   0.530   1.585  0.00  0.00    -0.191 NA
ENDBRANCH   9  29
TORSDOF 4
