REMARK  Name = ZINC41069908
REMARK  5 active torsions:
REMARK  status: ('A' for Active; 'I' for Inactive)
REMARK    1  A    between atoms: C_1  and  C_2
REMARK    2  A    between atoms: N_8  and  S_9
REMARK    3  A    between atoms: S_9  and  C_12
REMARK    4  A    between atoms: C_17  and  N_18
REMARK    5  A    between atoms: N_18  and  N_19
REMARK                            x       y       z     vdW  Elec       q    Type
REMARK                         _______ _______ _______ _____ _____    ______ ____
ROOT
ATOM      1  C   UNL     1       2.693   1.505   1.002  0.00  0.00    +0.147 A 
ATOM      2  C   UNL     1       2.572   2.882   0.941  0.00  0.00    +0.048 A 
ATOM      3  C   UNL     1       3.414   3.583   0.087  0.00  0.00    +0.038 A 
ATOM      4  C   UNL     1       4.340   2.891  -0.669  0.00  0.00    +0.128 A 
ATOM      5  N   UNL     1       4.431   1.577  -0.590  0.00  0.00    -0.236 NA
ATOM      6  C   UNL     1       3.651   0.874   0.216  0.00  0.00    +0.159 A 
ATOM      7 BR   UNL     1       3.294   5.466  -0.038  0.00  0.00    -0.049 Br
ENDROOT
BRANCH   1   8
ATOM      8  S   UNL     1       1.652   0.564   2.068  0.00  0.00    +0.064 S 
ATOM      9  O   UNL     1       0.768   1.487   2.691  0.00  0.00    -0.153 OA
ATOM     10  O   UNL     1       2.503  -0.296   2.812  0.00  0.00    -0.153 OA
BRANCH   8  17
ATOM     11  C   UNL     1      -0.632   1.606   0.761  0.00  0.00    +0.026 C 
ATOM     12  C   UNL     1      -0.418   0.146   0.358  0.00  0.00    +0.077 C 
ATOM     13  C   UNL     1      -1.673  -0.668   0.688  0.00  0.00    +0.020 C 
ATOM     14  C   UNL     1      -1.403  -2.149   0.414  0.00  0.00    +0.003 C 
ATOM     15  C   UNL     1      -0.263  -2.636   1.311  0.00  0.00    +0.017 C 
ATOM     16  C   UNL     1       1.008  -1.845   0.988  0.00  0.00    +0.110 C 
ATOM     17  N   UNL     1       0.719  -0.409   1.106  0.00  0.00    -0.174 NA
ENDBRANCH   8  17
ENDBRANCH   1   8
BRANCH   6  18
ATOM     18  N   UNL     1       3.787  -0.509   0.273  0.00  0.00    -0.266 N 
ATOM     19  H   UNL     1       3.269  -1.021   0.914  0.00  0.00    +0.167 HD
BRANCH  18  20
ATOM     20  N   UNL     1       4.650  -1.146  -0.573  0.00  0.00    -0.255 NA
ATOM     21  H   UNL     1       5.584  -0.774  -0.485  0.00  0.00    +0.140 HD
ATOM     22  H   UNL     1       4.641  -2.142  -0.416  0.00  0.00    +0.140 HD
ENDBRANCH  18  20
ENDBRANCH   6  18
TORSDOF 4
