REMARK  Name = ZINC48840143
REMARK  5 active torsions:
REMARK  status: ('A' for Active; 'I' for Inactive)
REMARK    1  A    between atoms: C_3  and  N_13
REMARK    2  A    between atoms: C_4  and  C_10
REMARK    3  A    between atoms: C_6  and  N_7
REMARK    4  A    between atoms: N_13  and  C_14
REMARK    5  A    between atoms: C_20  and  N_22
REMARK                            x       y       z     vdW  Elec       q    Type
REMARK                         _______ _______ _______ _____ _____    ______ ____
ROOT
ATOM      1  C   UNL     1      -0.091   1.226   0.029  0.00  0.00    +0.034 A 
ATOM      2  C   UNL     1       0.989   2.084  -0.009  0.00  0.00    +0.026 A 
ATOM      3  C   UNL     1       2.281   1.575  -0.044  0.00  0.00    +0.042 A 
ATOM      4  C   UNL     1       2.480   0.184  -0.040  0.00  0.00    +0.086 A 
ATOM      5  C   UNL     1       1.374  -0.672  -0.002  0.00  0.00    +0.049 A 
ATOM      6  C   UNL     1       0.101  -0.147   0.033  0.00  0.00    +0.127 A 
ENDROOT
BRANCH   6   7
ATOM      7  N   UNL     1      -1.068  -1.054   0.074  0.00  0.00    +0.056 N 
ATOM      8  O   UNL     1      -2.187  -0.597   0.105  0.00  0.00    -0.126 OA
ATOM      9  O   UNL     1      -0.903  -2.252   0.077  0.00  0.00    -0.126 OA
ENDBRANCH   6   7
BRANCH   4  10
ATOM     10  C   UNL     1       3.842  -0.369  -0.078  0.00  0.00    +0.388 C 
ATOM     11  O   UNL     1       4.010  -1.576  -0.188  0.00  0.00    -0.241 OA
ATOM     12  O   UNL     1       4.808   0.378   0.002  0.00  0.00    -0.241 OA
ENDBRANCH   4  10
BRANCH   3  13
ATOM     13  N   UNL     1       3.369   2.435  -0.083  0.00  0.00    -0.342 N 
ATOM     14  H   UNL     1       4.269   2.081  -0.021  0.00  0.00    +0.146 HD
BRANCH  13  15
ATOM     15  C   UNL     1       3.156   3.879  -0.216  0.00  0.00    +0.056 C 
ATOM     16  C   UNL     1       2.910   4.488   1.165  0.00  0.00    +0.020 C 
ATOM     17  C   UNL     1       2.688   5.995   1.026  0.00  0.00    +0.002 C 
ATOM     18  C   UNL     1       3.927   6.637   0.399  0.00  0.00    -0.001 C 
ATOM     19  C   UNL     1       4.174   6.028  -0.982  0.00  0.00    -0.014 C 
ATOM     20  C   UNL     1       4.396   4.521  -0.843  0.00  0.00    -0.055 C 
BRANCH  20  21
ATOM     21  N   UNL     1       4.633   3.936  -2.169  0.00  0.00    +0.381 N 
ATOM     22  H   UNL     1       3.832   4.105  -2.759  0.00  0.00    -0.090 HD
ATOM     23  H   UNL     1       5.450   4.359  -2.583  0.00  0.00    -0.090 HD
ATOM     24  H   UNL     1       4.779   2.942  -2.077  0.00  0.00    -0.090 HD
ENDBRANCH  20  21
ENDBRANCH  13  15
ENDBRANCH   3  13
TORSDOF 5
