REMARK  Name = ZINC44449517
REMARK  5 active torsions:
REMARK  status: ('A' for Active; 'I' for Inactive)
REMARK    1  A    between atoms: C_1  and  C_2
REMARK    2  A    between atoms: C_3  and  C_11
REMARK    3  A    between atoms: C_7  and  N_8
REMARK    4  A    between atoms: N_13  and  C_14
REMARK    5  A    between atoms: C_20  and  N_22
REMARK                            x       y       z     vdW  Elec       q    Type
REMARK                         _______ _______ _______ _____ _____    ______ ____
ROOT
ATOM      1  C   UNL     1      -0.768  -0.163  -2.475  0.00  0.00    +0.245 C 
ATOM      2  O   UNL     1      -0.931   1.040  -2.530  0.00  0.00    -0.270 OA
ATOM      3  N   UNL     1      -0.959  -0.919  -3.574  0.00  0.00    -0.307 N 
ATOM      4  H   UNL     1      -0.829  -1.880  -3.531  0.00  0.00    +0.149 HD
ENDROOT
BRANCH   1   7
ATOM      5  C   UNL     1      -0.618   1.432  -0.065  0.00  0.00    +0.047 C 
ATOM      6  C   UNL     1      -0.285  -0.038  -0.034  0.00  0.00    -0.008 A 
ATOM      7  C   UNL     1      -0.361  -0.797  -1.203  0.00  0.00    +0.042 A 
ATOM      8  C   UNL     1      -0.050  -2.157  -1.166  0.00  0.00    +0.013 A 
ATOM      9  C   UNL     1       0.329  -2.743   0.025  0.00  0.00    +0.003 A 
ATOM     10  C   UNL     1       0.402  -1.985   1.179  0.00  0.00    +0.033 A 
ATOM     11  C   UNL     1       0.102  -0.634   1.148  0.00  0.00    +0.130 A 
BRANCH  11  12
ATOM     12  N   UNL     1       0.189   0.171   2.387  0.00  0.00    +0.057 N 
ATOM     13  O   UNL     1       0.396  -0.372   3.447  0.00  0.00    -0.126 OA
ATOM     14  O   UNL     1       0.054   1.371   2.339  0.00  0.00    -0.126 OA
ENDBRANCH  11  12
ENDBRANCH   1   7
BRANCH   3  15
ATOM     15  C   UNL     1      -1.363  -0.291  -4.835  0.00  0.00    +0.094 C 
ATOM     16  C   UNL     1      -2.885  -0.131  -4.860  0.00  0.00    +0.024 C 
ATOM     17  C   UNL     1      -3.307   0.525  -6.176  0.00  0.00    +0.002 C 
ATOM     18  C   UNL     1      -2.867  -0.355  -7.348  0.00  0.00    +0.002 C 
ATOM     19  C   UNL     1      -1.345  -0.515  -7.323  0.00  0.00    +0.025 C 
ATOM     20  C   UNL     1      -0.924  -1.171  -6.007  0.00  0.00    +0.105 C 
BRANCH  20  21
ATOM     21  N   UNL     1       0.533  -1.325  -5.982  0.00  0.00    -0.228 N 
ATOM     22  C   UNL     1       1.033  -2.544  -5.874  0.00  0.00    +0.233 C 
ATOM     23  O   UNL     1       0.329  -3.528  -5.795  0.00  0.00    -0.274 OA
ATOM     24  C   UNL     1       2.553  -2.627  -5.856  0.00  0.00    +0.175 C 
ATOM     25  S   UNL     1       2.966  -0.839  -6.007  0.00  0.00    -0.058 S 
ATOM     26  C   UNL     1       1.292  -0.217  -6.077  0.00  0.00    +0.281 C 
ATOM     27  O   UNL     1       0.925   0.937  -6.184  0.00  0.00    -0.262 OA
ENDBRANCH  20  21
ENDBRANCH   3  15
TORSDOF 4
