REMARK  Name = ZINC09711053
REMARK  8 active torsions:
REMARK  status: ('A' for Active; 'I' for Inactive)
REMARK    1  A    between atoms: C_1  and  C_2
REMARK    2  A    between atoms: C_5  and  C_8
REMARK    3  A    between atoms: C_8  and  N_9
REMARK    4  A    between atoms: N_12  and  C_13
REMARK    5  A    between atoms: C_13  and  C_15
REMARK    6  A    between atoms: C_13  and  C_25
REMARK    7  A    between atoms: C_25  and  C_26
REMARK    8  A    between atoms: C_25  and  C_27
REMARK                            x       y       z     vdW  Elec       q    Type
REMARK                         _______ _______ _______ _____ _____    ______ ____
ROOT
ATOM      1  N   UNL     1      -6.548  -0.231  -2.227  0.00  0.00    -0.295 N 
ATOM      2  C   UNL     1      -5.660  -0.844  -1.419  0.00  0.00    +0.300 C 
ATOM      3  O   UNL     1      -5.763  -2.034  -1.195  0.00  0.00    -0.253 OA
ATOM      4  N   UNL     1      -4.657  -0.137  -0.860  0.00  0.00    -0.292 N 
ATOM      5  H   UNL     1      -6.465   0.719  -2.405  0.00  0.00    +0.151 HD
ATOM      6  H   UNL     1      -4.575   0.813  -1.039  0.00  0.00    +0.151 HD
ENDROOT
BRANCH   1   7
ATOM      7  C   UNL     1      -7.637  -0.999  -2.834  0.00  0.00    +0.141 C 
BRANCH   7  12
ATOM      8  C   UNL     1     -10.876   2.501  -6.098  0.00  0.00    +0.044 C 
ATOM      9  C   UNL     1     -10.032   1.588  -5.247  0.00  0.00    -0.050 A 
ATOM     10  C   UNL     1      -8.949   0.932  -5.801  0.00  0.00    +0.003 A 
ATOM     11  C   UNL     1      -8.174   0.095  -5.021  0.00  0.00    +0.005 A 
ATOM     12  C   UNL     1      -8.482  -0.086  -3.685  0.00  0.00    -0.030 A 
ATOM     13  C   UNL     1      -9.568   0.567  -3.132  0.00  0.00    +0.005 A 
ATOM     14  C   UNL     1     -10.340   1.407  -3.911  0.00  0.00    +0.003 A 
ENDBRANCH   7  12
ENDBRANCH   1   7
BRANCH   4  15
ATOM     15  C   UNL     1      -3.692  -0.803   0.018  0.00  0.00    +0.107 C 
BRANCH  15  16
ATOM     16  C   UNL     1      -2.397  -0.033   0.016  0.00  0.00    -0.023 A 
ATOM     17  C   UNL     1      -2.415   1.349   0.025  0.00  0.00    +0.009 A 
ATOM     18  C   UNL     1      -1.229   2.059   0.019  0.00  0.00    +0.050 A 
ATOM     19  C   UNL     1      -0.017   1.385   0.010  0.00  0.00    +0.162 A 
ATOM     20  C   UNL     1       0.002  -0.004   0.002  0.00  0.00    +0.162 A 
ATOM     21  C   UNL     1      -1.192  -0.710   0.004  0.00  0.00    +0.055 A 
ATOM     22  O   UNL     1       1.181  -0.685  -0.007  0.00  0.00    -0.485 OA
ATOM     23  C   UNL     1       2.347   0.053  -0.387  0.00  0.00    +0.270 C 
ATOM     24  C   UNL     1       2.334   1.392   0.364  0.00  0.00    +0.270 C 
ATOM     25  O   UNL     1       1.143   2.098   0.002  0.00  0.00    -0.485 OA
ENDBRANCH  15  16
BRANCH  15  26
ATOM     26  C   UNL     1      -4.250  -0.858   1.441  0.00  0.00    +0.008 C 
ATOM     27  C   UNL     1      -3.242  -1.554   2.358  0.00  0.00    +0.009 C 
ATOM     28  C   UNL     1      -4.502   0.564   1.946  0.00  0.00    +0.009 C 
ENDBRANCH  15  26
ENDBRANCH   4  15
TORSDOF 5
