REMARK  Name = ZINC02851127
REMARK  10 active torsions:
REMARK  status: ('A' for Active; 'I' for Inactive)
REMARK    1  A    between atoms: C_1  and  C_2
REMARK    2  A    between atoms: C_4  and  O_11
REMARK    3  A    between atoms: C_7  and  N_8
REMARK    4  A    between atoms: O_11  and  C_12
REMARK    5  A    between atoms: C_12  and  C_14
REMARK    6  A    between atoms: C_12  and  C_15
REMARK    7  A    between atoms: N_17  and  N_18
REMARK    8  A    between atoms: N_18  and  C_19
REMARK    9  A    between atoms: C_19  and  N_21
REMARK   10  A    between atoms: N_21  and  C_22
REMARK                            x       y       z     vdW  Elec       q    Type
REMARK                         _______ _______ _______ _____ _____    ______ ____
ROOT
ATOM      1  C   UNL     1      -5.362   4.219  -1.195  0.00  0.00    +0.270 C 
ATOM      2  O   UNL     1      -6.416   3.637  -1.050  0.00  0.00    -0.270 OA
ATOM      3  N   UNL     1      -4.252   3.530  -1.526  0.00  0.00    -0.232 N 
ATOM      4  H   UNL     1      -3.408   3.995  -1.643  0.00  0.00    +0.173 HD
ENDROOT
BRANCH   1   5
ATOM      5  C   UNL     1      -5.292   5.712  -1.006  0.00  0.00    +0.257 C 
ATOM      6  C   UNL     1      -4.944   6.380  -2.337  0.00  0.00    +0.062 C 
BRANCH   5   7
ATOM      7  O   UNL     1      -6.558   6.193  -0.549  0.00  0.00    -0.480 OA
BRANCH   7  11
ATOM      8  C   UNL     1      -4.084   9.970   1.306  0.00  0.00    +0.046 C 
ATOM      9  C   UNL     1      -5.379   9.243   1.047  0.00  0.00    -0.017 A 
ATOM     10  C   UNL     1      -5.371   8.040   0.366  0.00  0.00    +0.051 A 
ATOM     11  C   UNL     1      -6.563   7.374   0.124  0.00  0.00    +0.122 A 
ATOM     12  C   UNL     1      -7.760   7.913   0.574  0.00  0.00    +0.048 A 
ATOM     13  C   UNL     1      -7.762   9.113   1.258  0.00  0.00    +0.036 A 
ATOM     14  C   UNL     1      -6.572   9.777   1.495  0.00  0.00    +0.129 A 
BRANCH  14  15
ATOM     15  N   UNL     1      -6.577  11.062   2.228  0.00  0.00    +0.057 N 
ATOM     16  O   UNL     1      -5.689  11.314   3.023  0.00  0.00    -0.126 OA
ATOM     17  O   UNL     1      -7.470  11.869   2.038  0.00  0.00    -0.126 OA
ENDBRANCH  14  15
ENDBRANCH   7  11
ENDBRANCH   5   7
ENDBRANCH   1   5
BRANCH   3  18
ATOM     18  N   UNL     1      -4.316   2.141  -1.703  0.00  0.00    -0.246 N 
ATOM     19  H   UNL     1      -5.159   1.676  -1.587  0.00  0.00    +0.172 HD
BRANCH  18  20
ATOM     20  C   UNL     1      -3.206   1.452  -2.034  0.00  0.00    +0.151 C 
ATOM     21  S   UNL     1      -3.284  -0.245  -2.249  0.00  0.00    -0.017 S 
BRANCH  20  22
ATOM     22  N   UNL     1      -2.034   2.098  -2.196  0.00  0.00    -0.294 N 
ATOM     23  H   UNL     1      -1.981   3.053  -2.035  0.00  0.00    +0.154 HD
BRANCH  22  24
ATOM     24  C   UNL     1      -0.893   1.391  -2.596  0.00  0.00    +0.068 A 
ATOM     25  C   UNL     1      -0.996   0.387  -3.549  0.00  0.00    +0.029 A 
ATOM     26  C   UNL     1       0.131  -0.306  -3.947  0.00  0.00    +0.040 A 
ATOM     27  C   UNL     1       1.364  -0.001  -3.395  0.00  0.00    +0.126 A 
ATOM     28  C   UNL     1       1.471   0.999  -2.443  0.00  0.00    +0.078 A 
ATOM     29  C   UNL     1       0.345   1.696  -2.042  0.00  0.00    +0.147 A 
ATOM     30  F   UNL     1       0.449   2.672  -1.114  0.00  0.00    -0.203 F 
ATOM     31  F   UNL     1       2.464  -0.680  -3.786  0.00  0.00    -0.205 F 
ENDBRANCH  22  24
ENDBRANCH  20  22
ENDBRANCH  18  20
ENDBRANCH   3  18
TORSDOF 8
