REMARK  Name = ZINC46906373
REMARK  5 active torsions:
REMARK  status: ('A' for Active; 'I' for Inactive)
REMARK    1  A    between atoms: C_1  and  C_2
REMARK    2  A    between atoms: C_2  and  N_3
REMARK    3  A    between atoms: N_6  and  C_7
REMARK    4  A    between atoms: C_7  and  C_8
REMARK    5  A    between atoms: C_8  and  C_9
REMARK                            x       y       z     vdW  Elec       q    Type
REMARK                         _______ _______ _______ _____ _____    ______ ____
ROOT
ATOM      1  C   UNL     1       2.511  -5.369  -4.340  0.00  0.00    -0.001 A 
ATOM      2  C   UNL     1       3.667  -6.016  -3.952  0.00  0.00    +0.045 A 
ATOM      3  C   UNL     1       3.811  -7.374  -4.180  0.00  0.00    +0.124 A 
ATOM      4  C   UNL     1       2.796  -8.084  -4.798  0.00  0.00    +0.047 A 
ATOM      5  C   UNL     1       1.638  -7.439  -5.189  0.00  0.00    +0.023 A 
ATOM      6  C   UNL     1       1.489  -6.081  -4.954  0.00  0.00    +0.132 A 
ATOM      7  O   UNL     1       0.348  -5.437  -5.320  0.00  0.00    -0.466 OA
ATOM      8  C   UNL     1      -0.503  -6.110  -6.252  0.00  0.00    +0.394 C 
ATOM      9  O   UNL     1      -0.677  -7.464  -5.817  0.00  0.00    -0.339 OA
ATOM     10  C   UNL     1       0.540  -8.221  -5.865  0.00  0.00    +0.202 C 
ATOM     11  F   UNL     1       4.942  -8.007  -3.799  0.00  0.00    -0.205 F 
ENDROOT
BRANCH   1  12
ATOM     12  C   UNL     1       2.355  -3.891  -4.092  0.00  0.00    +0.057 C 
BRANCH  12  13
ATOM     13  C   UNL     1       1.609  -3.670  -2.775  0.00  0.00    +0.110 C 
BRANCH  13  17
ATOM     14  N   UNL     1       0.688  -0.476  -1.203  0.00  0.00    -0.300 N 
ATOM     15  C   UNL     1       0.827  -1.799  -1.425  0.00  0.00    +0.300 C 
ATOM     16  O   UNL     1       0.383  -2.599  -0.625  0.00  0.00    -0.253 OA
ATOM     17  N   UNL     1       1.458  -2.233  -2.534  0.00  0.00    -0.299 N 
ATOM     18  H   UNL     1       1.042   0.162  -1.842  0.00  0.00    +0.150 HD
ATOM     19  H   UNL     1       1.812  -1.595  -3.172  0.00  0.00    +0.150 HD
BRANCH  14  21
ATOM     20  C   UNL     1      -0.019   1.526   0.010  0.00  0.00    +0.024 C 
ATOM     21  C   UNL     1       0.002  -0.004   0.002  0.00  0.00    +0.102 C 
ENDBRANCH  14  21
ENDBRANCH  13  17
ENDBRANCH  12  13
ENDBRANCH   1  12
TORSDOF 4
