REMARK  Name = ZINC40232401
REMARK  6 active torsions:
REMARK  status: ('A' for Active; 'I' for Inactive)
REMARK    1  A    between atoms: C_1  and  N_2
REMARK    2  A    between atoms: C_3  and  C_5
REMARK    3  A    between atoms: C_8  and  C_10
REMARK    4  A    between atoms: C_11  and  C_12
REMARK    5  A    between atoms: C_12  and  C_13
REMARK    6  A    between atoms: C_13  and  O_14
REMARK                            x       y       z     vdW  Elec       q    Type
REMARK                         _______ _______ _______ _____ _____    ______ ____
ROOT
ATOM      1  C   UNL     1       0.605  -2.129  -1.026  0.00  0.00    +0.075 A 
ATOM      2  C   UNL     1       1.153  -2.989  -1.968  0.00  0.00    +0.022 A 
ATOM      3  C   UNL     1       1.051  -4.335  -1.766  0.00  0.00    +0.025 A 
ATOM      4  C   UNL     1       0.404  -4.791  -0.626  0.00  0.00    +0.063 A 
ATOM      5  S   UNL     1      -0.062  -3.266   0.177  0.00  0.00    -0.075 S 
ENDROOT
BRANCH   1   8
ATOM      6  C   UNL     1      -0.018   1.461   0.010  0.00  0.00    +0.128 C 
ATOM      7  N   UNL     1       0.002  -0.004   0.002  0.00  0.00    -0.314 N 
ATOM      8  C   UNL     1       0.585  -0.664  -1.018  0.00  0.00    +0.250 C 
ATOM      9  O   UNL     1       1.095  -0.044  -1.933  0.00  0.00    -0.270 OA
ATOM     10  H   UNL     1      -0.404  -0.499   0.731  0.00  0.00    +0.149 HD
ENDBRANCH   1   8
BRANCH   4  11
ATOM     11  C   UNL     1       0.174  -6.139  -0.200  0.00  0.00    -0.059 C 
ATOM     12  C   UNL     1      -0.014  -7.244   0.149  0.00  0.00    -0.094 C 
BRANCH  12  13
ATOM     13  C   UNL     1      -0.250  -8.629   0.587  0.00  0.00    +0.117 C 
BRANCH  13  14
ATOM     14  C   UNL     1      -1.009  -8.622   1.915  0.00  0.00    +0.168 C 
BRANCH  14  15
ATOM     15  O   UNL     1      -1.238  -9.967   2.340  0.00  0.00    -0.394 OA
ATOM     16  H   UNL     1      -1.716 -10.039   3.178  0.00  0.00    +0.209 HD
ENDBRANCH  14  15
ENDBRANCH  13  14
ENDBRANCH  12  13
ENDBRANCH   4  11
TORSDOF 5
