REMARK  Name = ZINC19221823
REMARK  4 active torsions:
REMARK  status: ('A' for Active; 'I' for Inactive)
REMARK    1  A    between atoms: C_6  and  C_7
REMARK    2  A    between atoms: C_7  and  S_8
REMARK    3  A    between atoms: S_8  and  C_9
REMARK    4  A    between atoms: C_9  and  C_10
REMARK                            x       y       z     vdW  Elec       q    Type
REMARK                         _______ _______ _______ _____ _____    ______ ____
ROOT
ATOM      1  C   UNL     1      -1.412  -0.526   0.013  0.00  0.00    +0.146 A 
ATOM      2  N   UNL     1      -2.017  -0.765   1.163  0.00  0.00    -0.199 NA
ATOM      3  C   UNL     1      -3.268  -1.222   1.176  0.00  0.00    +0.217 A 
ATOM      4  N   UNL     1      -3.903  -1.446   0.032  0.00  0.00    -0.181 NA
ATOM      5  C   UNL     1      -3.290  -1.209  -1.123  0.00  0.00    +0.217 A 
ATOM      6  N   UNL     1      -2.041  -0.748  -1.128  0.00  0.00    -0.199 NA
ATOM      7  N   UNL     1      -3.946  -1.441  -2.314  0.00  0.00    -0.327 N 
ATOM      8  N   UNL     1      -3.901  -1.466   2.378  0.00  0.00    -0.327 N 
ATOM      9  H   UNL     1      -3.437  -1.244  -3.269  0.00  0.00    +0.145 HD
ATOM     10  H   UNL     1      -4.977  -1.822  -2.309  0.00  0.00    +0.145 HD
ATOM     11  H   UNL     1      -4.934  -1.843   2.388  0.00  0.00    +0.145 HD
ATOM     12  H   UNL     1      -3.372  -1.284   3.325  0.00  0.00    +0.145 HD
ENDROOT
BRANCH   1  13
ATOM     13  C   UNL     1       0.002  -0.004   0.002  0.00  0.00    +0.145 C 
BRANCH  13  14
ATOM     14  S   UNL     1      -0.022   1.810   0.012  0.00  0.00    -0.148 S 
BRANCH  14  15
ATOM     15  C   UNL     1       1.731   2.272  -0.002  0.00  0.00    +0.104 C 
BRANCH  15  21
ATOM     16  C   UNL     1       1.906   4.469  -1.190  0.00  0.00    +0.007 A 
ATOM     17  C   UNL     1       2.014   5.846  -1.185  0.00  0.00    +0.038 A 
ATOM     18  C   UNL     1       2.082   6.530   0.017  0.00  0.00    +0.123 A 
ATOM     19  C   UNL     1       2.036   5.834   1.213  0.00  0.00    +0.038 A 
ATOM     20  C   UNL     1       1.923   4.456   1.205  0.00  0.00    +0.007 A 
ATOM     21  C   UNL     1       1.855   3.774   0.005  0.00  0.00    -0.037 A 
ATOM     22  F   UNL     1       2.192   7.877   0.023  0.00  0.00    -0.205 F 
ENDBRANCH  15  21
ENDBRANCH  14  15
ENDBRANCH  13  14
ENDBRANCH   1  13
TORSDOF 4
