REMARK  Name = ZINC63162068
REMARK  12 active torsions:
REMARK  status: ('A' for Active; 'I' for Inactive)
REMARK    1  A    between atoms: C_1  and  C_2
REMARK    2  A    between atoms: C_2  and  C_3
REMARK    3  A    between atoms: C_2  and  C_4
REMARK    4  A    between atoms: C_4  and  C_5
REMARK    5  A    between atoms: C_4  and  N_22
REMARK    6  A    between atoms: C_5  and  N_6
REMARK    7  A    between atoms: N_9  and  C_10
REMARK    8  A    between atoms: C_12  and  C_18
REMARK    9  A    between atoms: N_22  and  C_23
REMARK   10  A    between atoms: N_22  and  C_26
REMARK   11  A    between atoms: C_23  and  C_24
REMARK   12  A    between atoms: C_26  and  C_27
REMARK                            x       y       z     vdW  Elec       q    Type
REMARK                         _______ _______ _______ _____ _____    ______ ____
ROOT
ATOM      1  N   UNL     1       2.591  -0.832   3.178  0.00  0.00    -0.301 N 
ATOM      2  C   UNL     1       3.818  -0.541   3.655  0.00  0.00    +0.304 C 
ATOM      3  O   UNL     1       4.498   0.305   3.108  0.00  0.00    -0.253 OA
ATOM      4  N   UNL     1       4.290  -1.188   4.739  0.00  0.00    -0.265 N 
ATOM      5  H   UNL     1       2.049  -1.507   3.615  0.00  0.00    +0.150 HD
ATOM      6  H   UNL     1       3.725  -1.819   5.212  0.00  0.00    +0.157 HD
ENDROOT
BRANCH   4   7
ATOM      7  C   UNL     1       5.599  -0.950   5.182  0.00  0.00    +0.100 A 
ATOM      8  C   UNL     1       5.832  -0.553   6.470  0.00  0.00    +0.042 A 
ATOM      9  C   UNL     1       7.151  -0.323   6.888  0.00  0.00    +0.073 A 
ATOM     10  C   UNL     1       8.175  -0.493   6.021  0.00  0.00    +0.098 A 
ATOM     11  N   UNL     1       7.946  -0.887   4.740  0.00  0.00    -0.327 N 
ATOM     12  H   UNL     1       8.693  -1.004   4.134  0.00  0.00    +0.168 HD
ATOM     13  C   UNL     1       6.693  -1.123   4.306  0.00  0.00    +0.270 A 
ATOM     14  O   UNL     1       6.503  -1.482   3.155  0.00  0.00    -0.266 OA
BRANCH   9  15
ATOM     15  C   UNL     1       7.427   0.115   8.303  0.00  0.00    +0.419 C 
ATOM     16  F   UNL     1       8.805   0.280   8.480  0.00  0.00    -0.166 F 
ATOM     17  F   UNL     1       6.776   1.329   8.551  0.00  0.00    -0.166 F 
ATOM     18  F   UNL     1       6.955  -0.856   9.193  0.00  0.00    -0.166 F 
ENDBRANCH   9  15
ENDBRANCH   4   7
BRANCH   1  19
ATOM     19  C   UNL     1       2.078  -0.128   2.000  0.00  0.00    +0.091 C 
BRANCH  19  20
ATOM     20  C   UNL     1       0.705  -0.692   1.627  0.00  0.00    -0.048 C 
BRANCH  20  22
ATOM     21  C   UNL     1      -0.138   1.625   1.227  0.00  0.00    +0.005 C 
ATOM     22  C   UNL     1       0.032   0.234   0.613  0.00  0.00    -0.029 C 
ATOM     23  C   UNL     1       0.901   0.334  -0.642  0.00  0.00    +0.005 C 
ENDBRANCH  20  22
BRANCH  20  24
ATOM     24  N   UNL     1       0.869  -2.027   1.038  0.00  0.00    +0.387 N 
ATOM     25  H   UNL     1       1.525  -1.980   0.273  0.00  0.00    -0.080 HD
BRANCH  24  26
ATOM     26  C   UNL     1       1.374  -2.955   2.059  0.00  0.00    -0.051 C 
BRANCH  26  27
ATOM     27  C   UNL     1       0.407  -3.008   3.213  0.00  0.00    -0.053 C 
ATOM     28  C   UNL     1      -0.108  -4.154   3.584  0.00  0.00    +0.002 C 
ENDBRANCH  26  27
ENDBRANCH  24  26
BRANCH  24  29
ATOM     29  C   UNL     1      -0.429  -2.506   0.541  0.00  0.00    -0.051 C 
BRANCH  29  30
ATOM     30  C   UNL     1      -0.242  -3.827  -0.159  0.00  0.00    -0.053 C 
ATOM     31  C   UNL     1      -0.919  -4.878   0.234  0.00  0.00    +0.002 C 
ENDBRANCH  29  30
ENDBRANCH  24  29
ENDBRANCH  20  24
ENDBRANCH  19  20
ENDBRANCH   1  19
TORSDOF 10
