REMARK  Name = ZINC08314675
REMARK  3 active torsions:
REMARK  status: ('A' for Active; 'I' for Inactive)
REMARK    1  A    between atoms: C_12  and  C_14
REMARK    2  A    between atoms: C_14  and  N_52
REMARK    3  A    between atoms: C_18  and  C_20
REMARK                            x       y       z     vdW  Elec       q    Type
REMARK                         _______ _______ _______ _____ _____    ______ ____
ROOT
ATOM      1  C   UNL     1       4.462   6.055   0.377  0.00  0.00    -0.077 C 
ATOM      2  C   UNL     1       5.099   7.435   0.114  0.00  0.00    -0.020 C 
ATOM      3  C   UNL     1       4.534   8.306   1.267  0.00  0.00    -0.013 C 
ATOM      4  C   UNL     1       3.103   7.732   1.420  0.00  0.00    -0.037 C 
ATOM      5  N   UNL     1       3.266   6.280   1.205  0.00  0.00    +0.390 N 
ATOM      6  H   UNL     1       3.387   5.814   2.112  0.00  0.00    -0.080 HD
ENDROOT
BRANCH   4   7
ATOM      7  C   UNL     1       2.580   7.993   2.809  0.00  0.00    -0.057 A 
ATOM      8  C   UNL     1       3.038   7.238   3.872  0.00  0.00    +0.006 A 
ATOM      9  C   UNL     1       2.563   7.476   5.148  0.00  0.00    +0.049 A 
ATOM     10  C   UNL     1       1.616   8.467   5.363  0.00  0.00    +0.162 A 
ATOM     11  C   UNL     1       1.154   9.225   4.293  0.00  0.00    +0.162 A 
ATOM     12  C   UNL     1       1.638   8.982   3.016  0.00  0.00    +0.051 A 
ATOM     13  O   UNL     1       0.232  10.208   4.483  0.00  0.00    -0.485 OA
ATOM     14  C   UNL     1      -0.504  10.171   5.711  0.00  0.00    +0.270 C 
ATOM     15  C   UNL     1       0.486   9.930   6.858  0.00  0.00    +0.270 C 
ATOM     16  O   UNL     1       1.149   8.683   6.623  0.00  0.00    -0.485 OA
ENDBRANCH   4   7
BRANCH   5  17
ATOM     17  C   UNL     1       2.064   5.725   0.530  0.00  0.00    +0.020 C 
BRANCH  17  29
ATOM     18  C   UNL     1       1.210  -0.676  -0.009  0.00  0.00    +0.002 A 
ATOM     19  C   UNL     1       2.401   0.027  -0.012  0.00  0.00    +0.002 A 
ATOM     20  C   UNL     1       2.392   1.411  -0.007  0.00  0.00    +0.025 A 
ATOM     21  C   UNL     1       1.187   2.089   0.002  0.00  0.00    +0.058 A 
ATOM     22  C   UNL     1      -0.017   1.382   0.010  0.00  0.00    +0.055 A 
ATOM     23  C   UNL     1       0.002  -0.004   0.002  0.00  0.00    +0.025 A 
ATOM     24  N   UNL     1      -1.228   2.081   0.031  0.00  0.00    -0.283 N 
ATOM     25  C   UNL     1      -1.267   3.398  -0.243  0.00  0.00    +0.235 C 
ATOM     26  O   UNL     1      -2.322   3.994  -0.175  0.00  0.00    -0.274 OA
ATOM     27  C   UNL     1      -0.015   4.142  -0.632  0.00  0.00    +0.209 C 
ATOM     28  N   UNL     1       1.144   3.492  -0.004  0.00  0.00    -0.262 N 
ATOM     29  C   UNL     1       2.134   4.220   0.550  0.00  0.00    +0.204 C 
ATOM     30  O   UNL     1       3.082   3.663   1.063  0.00  0.00    -0.277 OA
ATOM     31  H   UNL     1      -2.050   1.611   0.246  0.00  0.00    +0.155 HD
ENDBRANCH  17  29
ENDBRANCH   5  17
TORSDOF 3
