REMARK  Name = ZINC54599729
REMARK  4 active torsions:
REMARK  status: ('A' for Active; 'I' for Inactive)
REMARK    1  A    between atoms: C_3  and  C_9
REMARK    2  A    between atoms: C_11  and  N_22
REMARK    3  A    between atoms: N_12  and  C_14
REMARK    4  A    between atoms: C_19  and  O_21
REMARK                            x       y       z     vdW  Elec       q    Type
REMARK                         _______ _______ _______ _____ _____    ______ ____
ROOT
ATOM      1  C   UNL     1       3.659   2.168  -0.022  0.00  0.00    +0.096 A 
ATOM      2  C   UNL     1       4.950   1.612   0.057  0.00  0.00    +0.073 A 
ATOM      3  C   UNL     1       5.845   2.635   0.018  0.00  0.00    +0.115 A 
ATOM      4  N   UNL     1       5.144   3.794  -0.081  0.00  0.00    -0.245 N 
ATOM      5  N   UNL     1       3.780   3.475  -0.110  0.00  0.00    -0.169 NA
ENDROOT
BRANCH   1   8
ATOM      6  C   UNL     1       1.208  -0.683  -0.020  0.00  0.00    +0.021 A 
ATOM      7  C   UNL     1       2.398   0.017  -0.028  0.00  0.00    +0.013 A 
ATOM      8  C   UNL     1       2.384   1.410  -0.013  0.00  0.00    +0.021 A 
ATOM      9  C   UNL     1       1.166   2.090   0.011  0.00  0.00    +0.052 A 
ATOM     10  C   UNL     1      -0.018   1.380   0.019  0.00  0.00    +0.040 A 
ATOM     11  C   UNL     1       0.002  -0.005   0.004  0.00  0.00    +0.042 A 
ATOM     12 CL   UNL     1      -1.490  -0.892   0.014  0.00  0.00    -0.083 Cl
ATOM     13 CL   UNL     1       1.139   3.825   0.030  0.00  0.00    -0.083 Cl
ENDBRANCH   1   8
BRANCH   4  14
ATOM     14  C   UNL     1       5.714   5.142  -0.151  0.00  0.00    +0.138 C 
ATOM     15  C   UNL     1       5.171   6.006   1.006  0.00  0.00    +0.029 C 
ATOM     16  C   UNL     1       4.997   7.412   0.380  0.00  0.00    +0.005 C 
ATOM     17  C   UNL     1       4.487   7.090  -1.047  0.00  0.00    +0.033 C 
ATOM     18  C   UNL     1       5.280   5.830  -1.457  0.00  0.00    +0.139 C 
BRANCH  18  19
ATOM     19  O   UNL     1       4.448   4.954  -2.219  0.00  0.00    -0.390 OA
ATOM     20  H   UNL     1       4.141   5.331  -3.055  0.00  0.00    +0.210 HD
ENDBRANCH  18  19
ENDBRANCH   4  14
BRANCH   3  21
ATOM     21  N   UNL     1       7.231   2.516   0.072  0.00  0.00    -0.343 N 
ATOM     22  H   UNL     1       7.640   1.639   0.143  0.00  0.00    +0.144 HD
ATOM     23  H   UNL     1       7.788   3.309   0.038  0.00  0.00    +0.144 HD
ENDBRANCH   3  21
TORSDOF 4
