REMARK  Name = ZINC09061134
REMARK  13 active torsions:
REMARK  status: ('A' for Active; 'I' for Inactive)
REMARK    1  A    between atoms: C_1  and  C_2
REMARK    2  A    between atoms: C_2  and  O_3
REMARK    3  A    between atoms: O_3  and  C_4
REMARK    4  A    between atoms: C_4  and  C_6
REMARK    5  A    between atoms: C_7  and  N_21
REMARK    6  A    between atoms: C_16  and  C_19
REMARK    7  A    between atoms: C_16  and  C_20
REMARK    8  A    between atoms: N_24  and  C_25
REMARK    9  A    between atoms: N_24  and  C_28
REMARK   10  A    between atoms: C_25  and  C_26
REMARK   11  A    between atoms: C_26  and  O_27
REMARK   12  A    between atoms: C_28  and  C_29
REMARK   13  A    between atoms: C_29  and  O_30
REMARK                            x       y       z     vdW  Elec       q    Type
REMARK                         _______ _______ _______ _____ _____    ______ ____
ROOT
ATOM      1  C   UNL     1      -2.401  -0.090   0.127  0.00  0.00    +0.120 A 
ATOM      2  C   UNL     1      -1.191  -0.716  -0.078  0.00  0.00    +0.065 A 
ATOM      3  C   UNL     1      -1.194  -2.130  -0.416  0.00  0.00    +0.030 A 
ATOM      4  C   UNL     1      -0.093  -2.984  -0.668  0.00  0.00    +0.020 A 
ATOM      5  C   UNL     1      -0.320  -4.309  -0.973  0.00  0.00    +0.000 A 
ATOM      6  C   UNL     1      -1.615  -4.797  -1.030  0.00  0.00    +0.051 A 
ATOM      7  N   UNL     1      -2.640  -3.993  -0.797  0.00  0.00    -0.244 NA
ATOM      8  C   UNL     1      -2.474  -2.724  -0.503  0.00  0.00    +0.111 A 
ATOM      9  S   UNL     1      -3.589  -1.391  -0.139  0.00  0.00    -0.060 S 
ATOM     10  C   UNL     1      -1.894  -6.243  -1.354  0.00  0.00    +0.090 C 
ATOM     11  C   UNL     1      -0.656  -6.878  -1.990  0.00  0.00    +0.070 C 
ATOM     12  O   UNL     1       0.480  -6.571  -1.175  0.00  0.00    -0.369 OA
ATOM     13  C   UNL     1       0.866  -5.199  -1.243  0.00  0.00    +0.197 C 
ATOM     14  C   UNL     1      -0.450  -6.308  -3.395  0.00  0.00    +0.041 C 
ATOM     15  C   UNL     1      -0.839  -8.395  -2.068  0.00  0.00    +0.041 C 
ENDROOT
BRANCH   2  16
ATOM     16  N   UNL     1       0.004  -0.013   0.040  0.00  0.00    -0.267 N 
ATOM     17  C   UNL     1       1.095  -0.620   0.547  0.00  0.00    +0.307 C 
ATOM     18  O   UNL     1       1.013  -1.752   0.984  0.00  0.00    -0.252 OA
ATOM     19  N   UNL     1       2.276   0.029   0.574  0.00  0.00    -0.281 N 
ATOM     20  H   UNL     1       0.052   0.913  -0.243  0.00  0.00    +0.156 HD
BRANCH  19  21
ATOM     21  C   UNL     1       3.462  -0.631   1.125  0.00  0.00    +0.137 C 
BRANCH  21  22
ATOM     22  C   UNL     1       4.192  -1.383   0.010  0.00  0.00    +0.175 C 
BRANCH  22  23
ATOM     23  O   UNL     1       4.691  -0.447  -0.947  0.00  0.00    -0.393 OA
ATOM     24  H   UNL     1       5.166  -0.854  -1.685  0.00  0.00    +0.209 HD
ENDBRANCH  22  23
ENDBRANCH  21  22
ENDBRANCH  19  21
BRANCH  19  25
ATOM     25  C   UNL     1       2.373   1.395   0.052  0.00  0.00    +0.137 C 
BRANCH  25  26
ATOM     26  C   UNL     1       2.090   2.392   1.178  0.00  0.00    +0.175 C 
BRANCH  26  27
ATOM     27  O   UNL     1       3.113   2.292   2.171  0.00  0.00    -0.393 OA
ATOM     28  H   UNL     1       2.998   2.898   2.916  0.00  0.00    +0.209 HD
ENDBRANCH  26  27
ENDBRANCH  25  26
ENDBRANCH  19  25
ENDBRANCH   2  16
BRANCH   1  29
ATOM     29  C   UNL     1      -2.643   1.265   0.467  0.00  0.00    +0.348 C 
ATOM     30  O   UNL     1      -1.719   2.056   0.506  0.00  0.00    -0.244 OA
BRANCH  29  31
ATOM     31  O   UNL     1      -3.897   1.677   0.747  0.00  0.00    -0.461 OA
BRANCH  31  33
ATOM     32  C   UNL     1      -5.546   3.332   1.364  0.00  0.00    +0.048 C 
ATOM     33  C   UNL     1      -4.068   3.055   1.081  0.00  0.00    +0.229 C 
ENDBRANCH  31  33
ENDBRANCH  29  31
ENDBRANCH   1  29
TORSDOF 10
