REMARK  Name = ZINC61537636
REMARK  3 active torsions:
REMARK  status: ('A' for Active; 'I' for Inactive)
REMARK    1  A    between atoms: C_1  and  C_2
REMARK    2  A    between atoms: C_2  and  C_4
REMARK    3  A    between atoms: C_2  and  N_9
REMARK                            x       y       z     vdW  Elec       q    Type
REMARK                         _______ _______ _______ _____ _____    ______ ____
ROOT
ATOM      1  N   UNL     1       0.711  -0.489   1.189  0.00  0.00    -0.306 N 
ATOM      2  C   UNL     1       2.086  -0.602   1.173  0.00  0.00    +0.221 A 
ATOM      3  N   UNL     1       2.729  -1.048   2.248  0.00  0.00    -0.181 NA
ATOM      4  C   UNL     1       4.053  -1.156   2.229  0.00  0.00    +0.223 A 
ATOM      5  N   UNL     1       4.731  -0.818   1.134  0.00  0.00    -0.184 NA
ATOM      6  C   UNL     1       4.088  -0.375   0.067  0.00  0.00    +0.229 A 
ATOM      7  N   UNL     1       2.769  -0.271   0.081  0.00  0.00    -0.184 NA
ATOM      8 CL   UNL     1       4.976   0.066  -1.359  0.00  0.00    -0.041 Cl
ATOM      9  N   UNL     1       4.724  -1.617   3.342  0.00  0.00    -0.299 N 
ATOM     10  C   UNL     1       4.101  -2.029   4.609  0.00  0.00    +0.108 C 
ATOM     11  C   UNL     1       5.239  -2.443   5.566  0.00  0.00    +0.020 C 
ATOM     12  C   UNL     1       6.472  -1.706   4.979  0.00  0.00    +0.020 C 
ATOM     13  C   UNL     1       6.184  -1.785   3.457  0.00  0.00    +0.108 C 
ATOM     14  H   UNL     1       0.213  -0.731   1.986  0.00  0.00    +0.150 HD
ENDROOT
BRANCH   1  16
ATOM     15  C   UNL     1      -0.019   1.526   0.010  0.00  0.00    +0.033 C 
ATOM     16  C   UNL     1       0.002  -0.004   0.002  0.00  0.00    +0.107 C 
BRANCH  16  17
ATOM     17  C   UNL     1      -1.412  -0.526   0.013  0.00  0.00    +0.010 A 
ATOM     18  C   UNL     1      -2.157  -0.992  -1.019  0.00  0.00    +0.013 A 
ATOM     19  C   UNL     1      -3.447  -1.425  -0.772  0.00  0.00    +0.008 A 
ATOM     20  C   UNL     1      -3.927  -1.370   0.494  0.00  0.00    +0.045 A 
ATOM     21  S   UNL     1      -2.537  -0.697   1.389  0.00  0.00    -0.100 S 
ENDBRANCH  16  17
ENDBRANCH   1  16
TORSDOF 2
