REMARK  Name = ZINC59805882
REMARK  6 active torsions:
REMARK  status: ('A' for Active; 'I' for Inactive)
REMARK    1  A    between atoms: C_1  and  C_2
REMARK    2  A    between atoms: C_7  and  C_13
REMARK    3  A    between atoms: C_13  and  N_14
REMARK    4  A    between atoms: N_14  and  C_15
REMARK    5  A    between atoms: C_18  and  C_22
REMARK    6  A    between atoms: C_29  and  C_31
REMARK                            x       y       z     vdW  Elec       q    Type
REMARK                         _______ _______ _______ _____ _____    ______ ____
ROOT
ATOM      1  N   UNL     1      -1.150  -6.764   0.495  0.00  0.00    -0.338 N 
ATOM      2  H   UNL     1      -1.868  -6.189   0.803  0.00  0.00    +0.146 HD
ENDROOT
BRANCH   1   3
ATOM      3  C   UNL     1      -1.362  -8.132   0.364  0.00  0.00    +0.029 A 
ATOM      4  C   UNL     1      -0.328  -8.956  -0.073  0.00  0.00    +0.024 A 
ATOM      5  C   UNL     1      -0.529 -10.301  -0.204  0.00  0.00    +0.016 A 
ATOM      6  C   UNL     1      -1.775 -10.856   0.102  0.00  0.00    +0.055 A 
ATOM      7  C   UNL     1      -2.816 -10.031   0.542  0.00  0.00    +0.055 A 
ATOM      8  C   UNL     1      -2.604  -8.675   0.676  0.00  0.00    +0.043 A 
ATOM      9 CL   UNL     1      -4.366 -10.712   0.924  0.00  0.00    -0.083 Cl
BRANCH   6  10
ATOM     10  C   UNL     1      -1.992 -12.307  -0.040  0.00  0.00    +0.248 C 
ATOM     11  O   UNL     1      -3.056 -12.725  -0.454  0.00  0.00    -0.270 OA
ATOM     12  N   UNL     1      -1.011 -13.171   0.291  0.00  0.00    -0.295 N 
ATOM     13  C   UNL     1       0.241 -12.688   0.889  0.00  0.00    +0.108 C 
ATOM     14  C   UNL     1       0.491 -13.454   2.192  0.00  0.00    +0.019 C 
ATOM     15  C   UNL     1       0.469 -14.957   1.909  0.00  0.00    +0.003 C 
ATOM     16  C   UNL     1      -0.908 -15.356   1.371  0.00  0.00    +0.022 C 
ATOM     17  C   UNL     1      -1.176 -14.613   0.064  0.00  0.00    +0.073 C 
ATOM     18  C   UNL     1      -2.606 -14.899  -0.401  0.00  0.00    +0.028 C 
ENDBRANCH   6  10
ENDBRANCH   1   3
BRANCH   1  19
ATOM     19  C   UNL     1       0.157  -6.190   0.167  0.00  0.00    +0.155 C 
BRANCH  19  26
ATOM     20  C   UNL     1      -0.873   1.594   0.394  0.00  0.00    +0.045 C 
ATOM     21  C   UNL     1      -0.823   0.102   0.187  0.00  0.00    -0.034 A 
ATOM     22  C   UNL     1      -1.616  -0.494  -0.804  0.00  0.00    +0.008 A 
ATOM     23  C   UNL     1      -1.564  -1.843  -0.986  0.00  0.00    +0.045 A 
ATOM     24  C   UNL     1      -0.715  -2.618  -0.175  0.00  0.00    +0.118 A 
ATOM     25  N   UNL     1      -0.663  -3.937  -0.351  0.00  0.00    -0.343 N 
ATOM     26  C   UNL     1       0.123  -4.701   0.392  0.00  0.00    +0.040 A 
ATOM     27  C   UNL     1       0.912  -4.133   1.374  0.00  0.00    +0.093 A 
ATOM     28  C   UNL     1       0.863  -2.747   1.564  0.00  0.00    +0.258 A 
ATOM     29  O   UNL     1       1.548  -2.215   2.423  0.00  0.00    -0.267 OA
ATOM     30  N   UNL     1       0.046  -2.008   0.783  0.00  0.00    -0.269 N 
ATOM     31  C   UNL     1      -0.009  -0.658   0.953  0.00  0.00    +0.099 A 
ATOM     32  H   UNL     1      -1.213  -4.347  -1.037  0.00  0.00    +0.167 HD
ENDBRANCH  19  26
ENDBRANCH   1  19
TORSDOF 4
