REMARK  Name = ZINC04672928
REMARK  4 active torsions:
REMARK  status: ('A' for Active; 'I' for Inactive)
REMARK    1  A    between atoms: C_1  and  C_2
REMARK    2  A    between atoms: C_2  and  C_3
REMARK    3  A    between atoms: C_3  and  C_20
REMARK    4  A    between atoms: C_11  and  C_14
REMARK                            x       y       z     vdW  Elec       q    Type
REMARK                         _______ _______ _______ _____ _____    ______ ____
ROOT
ATOM      1  C   UNL     1       1.386   1.787  -0.002  0.00  0.00    +0.098 C 
ATOM      2  N   UNL     1      -0.016   1.341   0.009  0.00  0.00    -0.306 N 
ATOM      3  C   UNL     1       0.002  -0.004   0.002  0.00  0.00    +0.154 C 
ATOM      4  S   UNL     1      -1.401  -0.985   0.011  0.00  0.00    -0.017 S 
ATOM      5  N   UNL     1       1.253  -0.482  -0.013  0.00  0.00    -0.191 N 
ATOM      6  N   UNL     1       2.166   0.534  -0.016  0.00  0.00    -0.210 NA
ATOM      7  C   UNL     1       1.579  -1.832  -0.023  0.00  0.00    +0.181 A 
ATOM      8  N   UNL     1       0.782  -2.884  -0.016  0.00  0.00    -0.223 NA
ATOM      9  C   UNL     1       1.268  -4.116  -0.033  0.00  0.00    +0.080 A 
ATOM     10  C   UNL     1       2.622  -4.302  -0.047  0.00  0.00    +0.077 A 
ATOM     11  S   UNL     1       3.190  -2.606  -0.043  0.00  0.00    -0.058 S 
ATOM     12  C   UNL     1       1.700   2.598   1.257  0.00  0.00    +0.050 C 
ATOM     13  H   UNL     1      -0.803   1.909   0.016  0.00  0.00    +0.150 HD
ATOM     14  H   UNL     1       2.774   0.477   0.788  0.00  0.00    +0.147 HD
ENDROOT
BRANCH   9  15
ATOM     15  C   UNL     1       0.352  -5.282  -0.032  0.00  0.00    +0.001 A 
ATOM     16  C   UNL     1       0.869  -6.577  -0.050  0.00  0.00    +0.010 A 
ATOM     17  C   UNL     1       0.012  -7.659  -0.041  0.00  0.00    +0.001 A 
ATOM     18  C   UNL     1      -1.357  -7.460  -0.027  0.00  0.00    +0.000 A 
ATOM     19  C   UNL     1      -1.875  -6.178  -0.015  0.00  0.00    +0.001 A 
ATOM     20  C   UNL     1      -1.028  -5.088  -0.017  0.00  0.00    +0.010 A 
ENDBRANCH   9  15
BRANCH   1  22
ATOM     21  C   UNL     1       0.881   3.918  -1.204  0.00  0.00    +0.007 C 
ATOM     22  C   UNL     1       1.676   2.612  -1.257  0.00  0.00    +0.039 C 
ENDBRANCH   1  22
TORSDOF 2
