REMARK  Name = ZINC67569479
REMARK  7 active torsions:
REMARK  status: ('A' for Active; 'I' for Inactive)
REMARK    1  A    between atoms: C_1  and  C_2
REMARK    2  A    between atoms: C_2  and  C_4
REMARK    3  A    between atoms: C_2  and  N_11
REMARK    4  A    between atoms: N_11  and  C_12
REMARK    5  A    between atoms: N_15  and  C_16
REMARK    6  A    between atoms: C_16  and  C_17
REMARK    7  A    between atoms: C_22  and  N_23
REMARK                            x       y       z     vdW  Elec       q    Type
REMARK                         _______ _______ _______ _____ _____    ______ ____
ROOT
ATOM      1  N   UNL     1      -1.431  -0.437   0.127  0.00  0.00    -0.282 N 
ATOM      2  C   UNL     1      -2.416  -0.115  -0.909  0.00  0.00    +0.134 C 
ATOM      3  C   UNL     1      -1.827  -1.025   1.273  0.00  0.00    +0.303 C 
ATOM      4  O   UNL     1      -1.010  -1.293   2.132  0.00  0.00    -0.253 OA
ATOM      5  N   UNL     1      -3.128  -1.318   1.466  0.00  0.00    -0.295 N 
ATOM      6  H   UNL     1      -3.780  -1.104   0.780  0.00  0.00    +0.151 HD
ENDROOT
BRANCH   1   8
ATOM      7  C   UNL     1       0.126   1.362  -0.440  0.00  0.00    +0.033 C 
ATOM      8  C   UNL     1      -0.017  -0.119  -0.083  0.00  0.00    +0.104 C 
BRANCH   8   9
ATOM      9  C   UNL     1       0.526  -0.961  -1.209  0.00  0.00    -0.027 A 
ATOM     10  C   UNL     1      -0.085  -0.934  -2.449  0.00  0.00    +0.008 A 
ATOM     11  C   UNL     1       0.411  -1.706  -3.482  0.00  0.00    +0.038 A 
ATOM     12  C   UNL     1       1.522  -2.507  -3.275  0.00  0.00    +0.123 A 
ATOM     13  C   UNL     1       2.133  -2.533  -2.033  0.00  0.00    +0.038 A 
ATOM     14  C   UNL     1       1.638  -1.757  -1.003  0.00  0.00    +0.008 A 
ATOM     15  F   UNL     1       2.008  -3.262  -4.284  0.00  0.00    -0.205 F 
ENDBRANCH   8   9
ENDBRANCH   1   8
BRANCH   5  16
ATOM     16  C   UNL     1      -3.558  -1.957   2.712  0.00  0.00    +0.143 C 
BRANCH  16  17
ATOM     17  C   UNL     1      -5.049  -2.174   2.676  0.00  0.00    -0.005 A 
ATOM     18  C   UNL     1      -5.892  -1.297   3.331  0.00  0.00    +0.007 A 
ATOM     19  C   UNL     1      -7.260  -1.495   3.299  0.00  0.00    +0.000 A 
ATOM     20  C   UNL     1      -7.789  -2.572   2.612  0.00  0.00    +0.002 A 
ATOM     21  C   UNL     1      -6.952  -3.453   1.955  0.00  0.00    +0.028 A 
ATOM     22  C   UNL     1      -5.578  -3.253   1.980  0.00  0.00    +0.070 A 
BRANCH  22  23
ATOM     23  N   UNL     1      -4.727  -4.142   1.310  0.00  0.00    -0.240 N 
ATOM     24  C   UNL     1      -5.109  -5.224   0.595  0.00  0.00    +0.114 A 
ATOM     25  C   UNL     1      -3.992  -5.813   0.110  0.00  0.00    +0.041 A 
ATOM     26  C   UNL     1      -2.889  -5.068   0.543  0.00  0.00    +0.135 A 
ATOM     27  N   UNL     1      -3.329  -4.063   1.257  0.00  0.00    -0.175 NA
ENDBRANCH  22  23
ENDBRANCH  16  17
ENDBRANCH   5  16
TORSDOF 5
