REMARK  Name = ZINC05875133
REMARK  3 active torsions:
REMARK  status: ('A' for Active; 'I' for Inactive)
REMARK    1  A    between atoms: C_4  and  N_7
REMARK    2  A    between atoms: C_14  and  N_18
REMARK    3  A    between atoms: N_18  and  N_19
REMARK                            x       y       z     vdW  Elec       q    Type
REMARK                         _______ _______ _______ _____ _____    ______ ____
ROOT
ATOM      1  N   UNL     1      -2.457   3.824   0.045  0.00  0.00    -0.277 N 
ATOM      2  C   UNL     1      -3.636   3.111  -0.053  0.00  0.00    +0.059 A 
ATOM      3  C   UNL     1      -3.628   1.725  -0.167  0.00  0.00    +0.027 A 
ATOM      4  C   UNL     1      -4.821   1.040  -0.265  0.00  0.00    +0.002 A 
ATOM      5  C   UNL     1      -6.030   1.720  -0.249  0.00  0.00    +0.001 A 
ATOM      6  C   UNL     1      -6.060   3.082  -0.138  0.00  0.00    +0.012 A 
ATOM      7  C   UNL     1      -4.864   3.795  -0.039  0.00  0.00    +0.021 A 
ATOM      8  C   UNL     1      -4.858   5.261   0.082  0.00  0.00    +0.055 A 
ATOM      9  C   UNL     1      -3.650   5.900   0.175  0.00  0.00    +0.095 A 
ATOM     10  C   UNL     1      -2.460   5.162   0.160  0.00  0.00    +0.258 A 
ATOM     11  O   UNL     1      -1.396   5.753   0.248  0.00  0.00    -0.267 OA
ENDROOT
BRANCH   1  15
ATOM     12  C   UNL     1       1.176   1.783   0.000  0.00  0.00    +0.000 A 
ATOM     13  C   UNL     1       0.614   2.218  -1.186  0.00  0.00    +0.002 A 
ATOM     14  C   UNL     1      -0.587   2.899  -1.174  0.00  0.00    +0.026 A 
ATOM     15  C   UNL     1      -1.236   3.138   0.030  0.00  0.00    +0.050 A 
ATOM     16  C   UNL     1      -0.670   2.699   1.220  0.00  0.00    +0.026 A 
ATOM     17  C   UNL     1       0.534   2.023   1.201  0.00  0.00    +0.002 A 
ENDBRANCH   1  15
BRANCH   8  18
ATOM     18  N   UNL     1      -6.038   5.974   0.100  0.00  0.00    -0.282 N 
ATOM     19  H   UNL     1      -6.887   5.508   0.033  0.00  0.00    +0.166 HD
BRANCH  18  20
ATOM     20  N   UNL     1      -6.013   7.335   0.212  0.00  0.00    -0.256 NA
ATOM     21  H   UNL     1      -5.454   7.748  -0.519  0.00  0.00    +0.140 HD
ATOM     22  H   UNL     1      -6.947   7.715   0.212  0.00  0.00    +0.140 HD
ENDBRANCH  18  20
ENDBRANCH   8  18
TORSDOF 3
