REMARK  Name = ZINC09430345
REMARK  7 active torsions:
REMARK  status: ('A' for Active; 'I' for Inactive)
REMARK    1  A    between atoms: C_1  and  C_2
REMARK    2  A    between atoms: C_7  and  N_12
REMARK    3  A    between atoms: C_9  and  C_11
REMARK    4  A    between atoms: C_13  and  C_15
REMARK    5  A    between atoms: C_15  and  N_16
REMARK    6  A    between atoms: C_19  and  S_27
REMARK    7  A    between atoms: S_27  and  N_30
REMARK                            x       y       z     vdW  Elec       q    Type
REMARK                         _______ _______ _______ _____ _____    ______ ____
ROOT
ATOM      1  N   UNL     1      -0.991   0.457   4.723  0.00  0.00    -0.256 N 
ATOM      2  C   UNL     1       0.117   0.681   5.554  0.00  0.00    +0.081 A 
ATOM      3  C   UNL     1       0.766   1.904   5.552  0.00  0.00    +0.055 A 
ATOM      4  C   UNL     1       1.856   2.105   6.379  0.00  0.00    +0.107 A 
ATOM      5  C   UNL     1       2.299   1.089   7.205  0.00  0.00    +0.032 A 
ATOM      6  C   UNL     1       1.655  -0.135   7.211  0.00  0.00    +0.049 A 
ATOM      7  C   UNL     1       0.563  -0.344   6.387  0.00  0.00    +0.143 A 
ATOM      8  O   UNL     1      -0.084  -1.540   6.381  0.00  0.00    -0.481 OA
ATOM      9  C   UNL     1      -1.493  -1.508   6.140  0.00  0.00    +0.325 C 
ATOM     10  C   UNL     1      -1.789  -0.605   4.970  0.00  0.00    +0.258 C 
ATOM     11  O   UNL     1      -2.737  -0.834   4.249  0.00  0.00    -0.271 OA
ENDROOT
BRANCH   4  12
ATOM     12  S   UNL     1       2.683   3.661   6.380  0.00  0.00    +0.061 S 
ATOM     13  O   UNL     1       1.742   4.622   5.921  0.00  0.00    -0.153 OA
ATOM     14  O   UNL     1       3.335   3.774   7.638  0.00  0.00    -0.153 OA
BRANCH  12  15
ATOM     15  N   UNL     1       3.876   3.582   5.234  0.00  0.00    -0.177 NA
ATOM     16  C   UNL     1       5.226   3.121   5.589  0.00  0.00    +0.109 C 
ATOM     17  C   UNL     1       5.617   1.977   4.641  0.00  0.00    +0.017 C 
ATOM     18  C   UNL     1       5.475   2.451   3.193  0.00  0.00    +0.003 C 
ATOM     19  C   UNL     1       4.017   2.828   2.917  0.00  0.00    +0.017 C 
ATOM     20  C   UNL     1       3.607   3.976   3.845  0.00  0.00    +0.109 C 
ENDBRANCH  12  15
ENDBRANCH   4  12
BRANCH   1  21
ATOM     21  C   UNL     1      -1.281   1.363   3.609  0.00  0.00    +0.209 C 
BRANCH  21  23
ATOM     22  N   UNL     1      -0.698   1.558   1.213  0.00  0.00    -0.311 N 
ATOM     23  C   UNL     1      -0.575   0.877   2.369  0.00  0.00    +0.231 C 
ATOM     24  O   UNL     1       0.103  -0.128   2.412  0.00  0.00    -0.274 OA
ATOM     25  H   UNL     1      -1.241   2.362   1.179  0.00  0.00    +0.149 HD
BRANCH  22  31
ATOM     26  C   UNL     1      -0.777   1.606  -3.730  0.00  0.00    +0.008 C 
ATOM     27  C   UNL     1      -0.037   1.099  -2.490  0.00  0.00    -0.009 C 
ATOM     28  C   UNL     1       1.399   1.629  -2.501  0.00  0.00    +0.003 C 
ATOM     29  C   UNL     1       2.139   1.122  -1.262  0.00  0.00    +0.002 C 
ATOM     30  C   UNL     1       1.423   1.615  -0.003  0.00  0.00    +0.022 C 
ATOM     31  C   UNL     1      -0.013   1.086   0.008  0.00  0.00    +0.076 C 
ATOM     32  C   UNL     1      -0.753   1.593  -1.232  0.00  0.00    +0.009 C 
ATOM     33  C   UNL     1      -2.188   1.063  -1.221  0.00  0.00    +0.009 C 
ENDBRANCH  22  31
ENDBRANCH  21  23
ENDBRANCH   1  21
TORSDOF 5
