REMARK  Name = ZINC52852869
REMARK  8 active torsions:
REMARK  status: ('A' for Active; 'I' for Inactive)
REMARK    1  A    between atoms: C_1  and  C_2
REMARK    2  A    between atoms: C_2  and  C_3
REMARK    3  A    between atoms: C_2  and  C_4
REMARK    4  A    between atoms: C_2  and  C_5
REMARK    5  A    between atoms: C_9  and  N_19
REMARK    6  A    between atoms: N_13  and  C_14
REMARK    7  A    between atoms: C_14  and  C_15
REMARK    8  A    between atoms: C_15  and  C_16
REMARK                            x       y       z     vdW  Elec       q    Type
REMARK                         _______ _______ _______ _____ _____    ______ ____
ROOT
ATOM      1  C   UNL     1       0.422  -0.422  -1.530  0.00  0.00    +0.116 A 
ATOM      2  N   UNL     1      -0.280  -1.108  -2.385  0.00  0.00    -0.232 NA
ATOM      3  C   UNL     1       0.533  -1.596  -3.357  0.00  0.00    +0.091 A 
ATOM      4  C   UNL     1       0.311  -2.378  -4.493  0.00  0.00    +0.052 A 
ATOM      5  C   UNL     1       1.374  -2.719  -5.308  0.00  0.00    +0.027 A 
ATOM      6  C   UNL     1       2.663  -2.286  -5.003  0.00  0.00    +0.025 A 
ATOM      7  C   UNL     1       2.893  -1.514  -3.885  0.00  0.00    +0.030 A 
ATOM      8  C   UNL     1       1.835  -1.164  -3.056  0.00  0.00    +0.069 A 
ATOM      9  N   UNL     1       1.731  -0.418  -1.896  0.00  0.00    -0.327 N 
ENDROOT
BRANCH   1  11
ATOM     10  C   UNL     1      -0.003   1.786  -0.485  0.00  0.00    +0.019 C 
ATOM     11  C   UNL     1      -0.137   0.272  -0.314  0.00  0.00    +0.020 C 
ATOM     12  C   UNL     1       0.640  -0.172   0.928  0.00  0.00    +0.019 C 
ATOM     13  C   UNL     1      -1.613  -0.095  -0.151  0.00  0.00    +0.019 C 
ENDBRANCH   1  11
BRANCH   5  14
ATOM     14  N   UNL     1       1.154  -3.502  -6.447  0.00  0.00    -0.358 N 
ATOM     15  H   UNL     1       0.258  -3.805  -6.662  0.00  0.00    +0.142 HD
ATOM     16  H   UNL     1       1.898  -3.743  -7.021  0.00  0.00    +0.142 HD
ENDBRANCH   5  14
BRANCH   9  17
ATOM     17  C   UNL     1       2.829   0.249  -1.191  0.00  0.00    +0.133 C 
BRANCH  17  18
ATOM     18  C   UNL     1       3.532  -0.755  -0.277  0.00  0.00    +0.117 C 
BRANCH  18  19
ATOM     19  C   UNL     1       4.621  -0.054   0.495  0.00  0.00    +0.212 C 
ATOM     20  O   UNL     1       4.814   1.131   0.330  0.00  0.00    -0.276 OA
ATOM     21  N   UNL     1       5.379  -0.746   1.369  0.00  0.00    -0.329 N 
ATOM     22  H   UNL     1       5.224  -1.694   1.502  0.00  0.00    +0.145 HD
ATOM     23  H   UNL     1       6.079  -0.294   1.866  0.00  0.00    +0.145 HD
ENDBRANCH  18  19
ENDBRANCH  17  18
ENDBRANCH   9  17
TORSDOF 5
