REMARK  Name = ZINC08488055
REMARK  4 active torsions:
REMARK  status: ('A' for Active; 'I' for Inactive)
REMARK    1  A    between atoms: C_4  and  S_8
REMARK    2  A    between atoms: C_6  and  N_7
REMARK    3  A    between atoms: S_8  and  C_9
REMARK    4  A    between atoms: C_9  and  C_10
REMARK                            x       y       z     vdW  Elec       q    Type
REMARK                         _______ _______ _______ _____ _____    ______ ____
ROOT
ATOM      1  C   UNL     1      -5.781  -3.172  -0.120  0.00  0.00    +0.086 A 
ATOM      2  C   UNL     1      -4.863  -4.210   0.017  0.00  0.00    +0.122 A 
ATOM      3  N   UNL     1      -3.565  -3.923   0.077  0.00  0.00    -0.207 NA
ATOM      4  C   UNL     1      -3.143  -2.668   0.007  0.00  0.00    +0.192 A 
ATOM      5  N   UNL     1      -3.989  -1.656  -0.117  0.00  0.00    -0.207 NA
ATOM      6  C   UNL     1      -5.301  -1.868  -0.189  0.00  0.00    +0.122 A 
ATOM      7  N   UNL     1      -5.296  -5.525   0.090  0.00  0.00    -0.343 N 
ATOM      8  H   UNL     1      -4.564  -6.339   0.199  0.00  0.00    +0.144 HD
ATOM      9  H   UNL     1      -6.370  -5.754   0.041  0.00  0.00    +0.144 HD
ENDROOT
BRANCH   6  10
ATOM     10  N   UNL     1      -6.178  -0.803  -0.326  0.00  0.00    -0.343 N 
ATOM     11  H   UNL     1      -5.790   0.225  -0.380  0.00  0.00    +0.144 HD
ATOM     12  H   UNL     1      -7.261  -0.986  -0.380  0.00  0.00    +0.144 HD
ENDBRANCH   6  10
BRANCH   4  13
ATOM     13  S   UNL     1      -1.415  -2.338   0.091  0.00  0.00    -0.083 S 
BRANCH  13  14
ATOM     14  C   UNL     1      -1.433  -0.533  -0.048  0.00  0.00    +0.109 C 
BRANCH  14  15
ATOM     15  C   UNL     1       0.002  -0.004   0.002  0.00  0.00    +0.128 C 
ATOM     16  C   UNL     1      -0.019   1.527   0.010  0.00  0.00    +0.032 C 
ATOM     17  C   UNL     1       1.421   2.049  -0.001  0.00  0.00    +0.005 C 
ATOM     18  C   UNL     1       2.148   1.484  -1.225  0.00  0.00    +0.028 C 
ATOM     19  C   UNL     1       2.085  -0.045  -1.185  0.00  0.00    +0.160 C 
ATOM     20  O   UNL     1       0.720  -0.463  -1.145  0.00  0.00    -0.376 OA
ENDBRANCH  14  15
ENDBRANCH  13  14
ENDBRANCH   4  13
TORSDOF 4
