REMARK  Name = ZINC04569227
REMARK  10 active torsions:
REMARK  status: ('A' for Active; 'I' for Inactive)
REMARK    1  A    between atoms: C_1  and  C_2
REMARK    2  A    between atoms: C_4  and  C_32
REMARK    3  A    between atoms: C_5  and  C_9
REMARK    4  A    between atoms: C_7  and  C_8
REMARK    5  A    between atoms: N_14  and  C_17
REMARK    6  A    between atoms: C_17  and  C_18
REMARK    7  A    between atoms: C_18  and  C_19
REMARK    8  A    between atoms: C_19  and  N_67
REMARK    9  A    between atoms: C_24  and  C_26
REMARK   10  A    between atoms: N_27  and  C_31
REMARK                            x       y       z     vdW  Elec       q    Type
REMARK                         _______ _______ _______ _____ _____    ______ ____
ROOT
ATOM      1  C   UNL     1      -9.392  -1.816  -1.735  0.00  0.00    +0.142 C 
ATOM      2  C   UNL     1      -7.974  -1.998  -2.237  0.00  0.00    +0.058 C 
ATOM      3  C   UNL     1      -7.705  -3.099  -2.969  0.00  0.00    +0.042 C 
ATOM      4  C   UNL     1      -6.240  -3.019  -3.334  0.00  0.00    +0.159 C 
ATOM      5  N   UNL     1      -5.763  -1.773  -2.715  0.00  0.00    -0.292 N 
ATOM      6  C   UNL     1      -6.814  -1.212  -2.089  0.00  0.00    +0.247 C 
ATOM      7  O   UNL     1      -6.768  -0.162  -1.476  0.00  0.00    -0.270 OA
ATOM      8  N   UNL     1      -8.676  -4.018  -3.248  0.00  0.00    -0.260 N 
ATOM      9  C   UNL     1      -9.944  -3.907  -2.830  0.00  0.00    +0.307 C 
ATOM     10  O   UNL     1     -10.740  -4.776  -3.128  0.00  0.00    -0.252 OA
ATOM     11  N   UNL     1     -10.366  -2.862  -2.090  0.00  0.00    -0.288 N 
ATOM     12  C   UNL     1      -8.311  -5.189  -4.048  0.00  0.00    +0.139 C 
ATOM     13  H   UNL     1     -11.288  -2.802  -1.797  0.00  0.00    +0.151 HD
ENDROOT
BRANCH   1  18
ATOM     14  C   UNL     1      -9.206  -1.437   4.029  0.00  0.00    +0.044 C 
ATOM     15  C   UNL     1      -9.255  -1.536   2.526  0.00  0.00    -0.047 A 
ATOM     16  C   UNL     1     -10.374  -1.101   1.840  0.00  0.00    +0.007 A 
ATOM     17  C   UNL     1     -10.418  -1.192   0.462  0.00  0.00    -0.045 A 
ATOM     18  C   UNL     1      -9.344  -1.717  -0.232  0.00  0.00    -0.019 A 
ATOM     19  C   UNL     1      -8.227  -2.156   0.454  0.00  0.00    +0.009 A 
ATOM     20  C   UNL     1      -8.180  -2.060   1.832  0.00  0.00    -0.047 A 
ATOM     21  C   UNL     1      -6.960  -2.534   2.579  0.00  0.00    +0.044 C 
ATOM     22  C   UNL     1     -11.639  -0.718  -0.285  0.00  0.00    +0.044 C 
ENDBRANCH   1  18
BRANCH   5  23
ATOM     23  C   UNL     1      -4.401  -1.240  -2.775  0.00  0.00    +0.106 C 
BRANCH  23  24
ATOM     24  C   UNL     1      -3.592  -1.773  -1.591  0.00  0.00    +0.000 C 
BRANCH  24  25
ATOM     25  C   UNL     1      -2.168  -1.215  -1.653  0.00  0.00    -0.077 C 
BRANCH  25  32
ATOM     26  C   UNL     1      -1.599  -3.171  -0.345  0.00  0.00    -0.078 C 
ATOM     27  C   UNL     1      -0.894  -3.641   0.929  0.00  0.00    -0.019 C 
ATOM     28  C   UNL     1       0.602  -3.330   0.824  0.00  0.00    -0.003 C 
ATOM     29  C   UNL     1       0.788  -1.827   0.597  0.00  0.00    -0.016 C 
ATOM     30  C   UNL     1       0.034  -1.410  -0.668  0.00  0.00    -0.072 C 
ATOM     31  C   UNL     1       0.201   0.095  -0.887  0.00  0.00    -0.013 C 
ATOM     32  N   UNL     1      -1.402  -1.713  -0.492  0.00  0.00    +0.381 N 
ATOM     33  H   UNL     1      -1.740  -1.244   0.356  0.00  0.00    -0.081 HD
ENDBRANCH  25  32
ENDBRANCH  24  25
ENDBRANCH  23  24
ENDBRANCH   5  23
TORSDOF 5
