REMARK  Name = ZINC09685285
REMARK  11 active torsions:
REMARK  status: ('A' for Active; 'I' for Inactive)
REMARK    1  A    between atoms: C_1  and  C_2
REMARK    2  A    between atoms: C_3  and  C_23
REMARK    3  A    between atoms: C_4  and  S_9
REMARK    4  A    between atoms: C_5  and  C_8
REMARK    5  A    between atoms: N_6  and  C_7
REMARK    6  A    between atoms: S_9  and  N_12
REMARK    7  A    between atoms: N_12  and  C_13
REMARK    8  A    between atoms: C_15  and  O_21
REMARK    9  A    between atoms: C_17  and  O_19
REMARK   10  A    between atoms: O_19  and  C_20
REMARK   11  A    between atoms: O_21  and  C_22
REMARK                            x       y       z     vdW  Elec       q    Type
REMARK                         _______ _______ _______ _____ _____    ______ ____
ROOT
ATOM      1  C   UNL     1       3.543   4.303   1.617  0.00  0.00    +0.064 C 
ATOM      2  C   UNL     1       2.729   5.536   1.322  0.00  0.00    +0.030 A 
ATOM      3  C   UNL     1       1.904   5.712   0.245  0.00  0.00    +0.084 A 
ATOM      4  C   UNL     1       1.328   7.053   0.388  0.00  0.00    +0.141 A 
ATOM      5  C   UNL     1       1.847   7.570   1.516  0.00  0.00    +0.043 A 
ATOM      6  N   UNL     1       2.692   6.654   2.072  0.00  0.00    -0.349 N 
ATOM      7  C   UNL     1       3.446   6.855   3.312  0.00  0.00    +0.149 C 
ATOM      8  C   UNL     1       1.545   8.936   2.075  0.00  0.00    +0.065 C 
ENDROOT
BRANCH   3   9
ATOM      9  C   UNL     1       1.643   4.747  -0.836  0.00  0.00    +0.250 C 
ATOM     10  O   UNL     1       2.409   4.667  -1.778  0.00  0.00    -0.270 OA
ATOM     11  N   UNL     1       0.555   3.954  -0.783  0.00  0.00    -0.297 N 
ATOM     12  C   UNL     1       0.259   3.080  -1.935  0.00  0.00    +0.108 C 
ATOM     13  C   UNL     1      -0.188   1.674  -1.497  0.00  0.00    +0.019 C 
ATOM     14  C   UNL     1       0.645   1.205  -0.329  0.00  0.00    +0.002 C 
ATOM     15  C   UNL     1      -0.048   1.592   0.974  0.00  0.00    +0.002 C 
ATOM     16  C   UNL     1       0.242   2.959   1.431  0.00  0.00    +0.019 C 
ATOM     17  C   UNL     1      -0.274   3.993   0.401  0.00  0.00    +0.108 C 
ENDBRANCH   3   9
BRANCH   4  18
ATOM     18  S   UNL     1       0.183   7.833  -0.701  0.00  0.00    +0.075 S 
ATOM     19  O   UNL     1       0.423   9.230  -0.610  0.00  0.00    -0.150 OA
ATOM     20  O   UNL     1       0.248   7.127  -1.932  0.00  0.00    -0.150 OA
BRANCH  18  21
ATOM     21  N   UNL     1      -1.333   7.572  -0.086  0.00  0.00    -0.216 N 
ATOM     22  H   UNL     1      -1.979   7.055  -0.592  0.00  0.00    +0.174 HD
BRANCH  21  23
ATOM     23  C   UNL     1      -1.680   8.098   1.160  0.00  0.00    +0.055 A 
ATOM     24  C   UNL     1      -1.786   7.260   2.263  0.00  0.00    +0.070 A 
ATOM     25  C   UNL     1      -2.126   7.783   3.501  0.00  0.00    +0.125 A 
ATOM     26  C   UNL     1      -2.372   9.142   3.636  0.00  0.00    +0.091 A 
ATOM     27  C   UNL     1      -2.272   9.978   2.534  0.00  0.00    +0.125 A 
ATOM     28  C   UNL     1      -1.926   9.458   1.297  0.00  0.00    +0.070 A 
BRANCH  27  29
ATOM     29  O   UNL     1      -2.512  11.309   2.668  0.00  0.00    -0.495 OA
ATOM     30  C   UNL     1      -2.864  11.777   3.972  0.00  0.00    +0.277 C 
ENDBRANCH  27  29
BRANCH  25  31
ATOM     31  O   UNL     1      -2.224   6.965   4.581  0.00  0.00    -0.495 OA
ATOM     32  C   UNL     1      -2.584   7.570   5.824  0.00  0.00    +0.277 C 
ENDBRANCH  25  31
ENDBRANCH  21  23
ENDBRANCH  18  21
ENDBRANCH   4  18
TORSDOF 6
