REMARK  Name = ZINC15996673
REMARK  2 active torsions:
REMARK  status: ('A' for Active; 'I' for Inactive)
REMARK    1  A    between atoms: C_6  and  N_11
REMARK    2  A    between atoms: C_22  and  C_23
REMARK                            x       y       z     vdW  Elec       q    Type
REMARK                         _______ _______ _______ _____ _____    ______ ____
ROOT
ATOM      1  N   UNL     1       4.911  -2.667  -0.057  0.00  0.00    -0.204 N 
ATOM      2  C   UNL     1       6.102  -2.051  -0.157  0.00  0.00    +0.258 C 
ATOM      3  O   UNL     1       6.267  -0.845  -0.105  0.00  0.00    -0.269 OA
ATOM      4  C   UNL     1       7.122  -2.988  -0.328  0.00  0.00    +0.081 C 
ATOM      5  H   UNL     1       9.209  -5.300  -0.837  0.00  0.00    +0.194 HD
ATOM      6  C   UNL     1       6.490  -4.294   0.175  0.00  0.00    +0.272 C 
ATOM      7  C   UNL     1       5.025  -4.012   0.033  0.00  0.00    +0.263 C 
ATOM      8  O   UNL     1       4.125  -4.824   0.003  0.00  0.00    -0.271 OA
ATOM      9  O   UNL     1       7.045  -5.221  -0.769  0.00  0.00    -0.256 OA
ATOM     10  N   UNL     1       8.409  -4.753  -0.799  0.00  0.00    -0.264 N 
ATOM     11  C   UNL     1       8.353  -3.367  -0.764  0.00  0.00    +0.080 C 
ENDROOT
BRANCH   1  17
ATOM     12  C   UNL     1      -0.029   1.339  -0.215  0.00  0.00    +0.001 A 
ATOM     13  C   UNL     1       1.142   2.053  -0.463  0.00  0.00    +0.001 A 
ATOM     14  C   UNL     1       2.351   1.429  -0.486  0.00  0.00    +0.008 A 
ATOM     15  C   UNL     1       2.424   0.044  -0.256  0.00  0.00    -0.016 A 
ATOM     16  C   UNL     1       3.654  -0.633  -0.272  0.00  0.00    +0.032 A 
ATOM     17  C   UNL     1       3.685  -1.990  -0.043  0.00  0.00    +0.045 A 
ATOM     18  C   UNL     1       2.504  -2.700   0.205  0.00  0.00    +0.024 A 
ATOM     19  C   UNL     1       1.301  -2.068   0.225  0.00  0.00    +0.010 A 
ATOM     20  C   UNL     1       1.233  -0.683  -0.005  0.00  0.00    -0.018 A 
ATOM     21  C   UNL     1       0.003  -0.003   0.011  0.00  0.00    +0.008 A 
ENDBRANCH   1  17
BRANCH  11  22
ATOM     22  C   UNL     1       9.449  -2.454  -1.140  0.00  0.00    +0.001 A 
ATOM     23  C   UNL     1       9.270  -1.071  -1.057  0.00  0.00    +0.013 A 
ATOM     24  C   UNL     1      10.298  -0.223  -1.409  0.00  0.00    +0.039 A 
ATOM     25  C   UNL     1      11.508  -0.740  -1.846  0.00  0.00    +0.123 A 
ATOM     26  C   UNL     1      11.691  -2.111  -1.932  0.00  0.00    +0.039 A 
ATOM     27  C   UNL     1      10.673  -2.969  -1.576  0.00  0.00    +0.013 A 
ATOM     28  F   UNL     1      12.512   0.096  -2.190  0.00  0.00    -0.205 F 
ENDBRANCH  11  22
TORSDOF 2
