REMARK  Name = ZINC39945660
REMARK  13 active torsions:
REMARK  status: ('A' for Active; 'I' for Inactive)
REMARK    1  A    between atoms: C_1  and  C_2
REMARK    2  A    between atoms: C_2  and  O_3
REMARK    3  A    between atoms: O_3  and  C_4
REMARK    4  A    between atoms: C_4  and  C_6
REMARK    5  A    between atoms: C_8  and  N_17
REMARK    6  A    between atoms: C_18  and  C_20
REMARK    7  A    between atoms: C_20  and  C_22
REMARK    8  A    between atoms: C_20  and  S_23
REMARK    9  A    between atoms: S_23  and  C_24
REMARK   10  A    between atoms: C_28  and  C_30
REMARK   11  A    between atoms: C_30  and  O_31
REMARK   12  A    between atoms: O_31  and  C_32
REMARK   13  A    between atoms: C_35  and  C_38
REMARK                            x       y       z     vdW  Elec       q    Type
REMARK                         _______ _______ _______ _____ _____    ______ ____
ROOT
ATOM      1  N   UNL     1      -2.609  -1.859   2.427  0.00  0.00    -0.301 N 
ATOM      2  C   UNL     1      -2.728  -0.800   3.252  0.00  0.00    +0.227 C 
ATOM      3  O   UNL     1      -3.637  -0.012   3.101  0.00  0.00    -0.275 OA
ATOM      4  H   UNL     1      -1.881  -2.489   2.547  0.00  0.00    +0.150 HD
ENDROOT
BRANCH   1   6
ATOM      5  C   UNL     1      -2.881  -2.427   0.017  0.00  0.00    +0.155 C 
ATOM      6  C   UNL     1      -3.579  -2.058   1.347  0.00  0.00    +0.153 C 
ATOM      7  S   UNL     1      -4.553  -3.603   1.589  0.00  0.00    -0.106 S 
ATOM      8  C   UNL     1      -3.579  -4.685   0.569  0.00  0.00    -0.013 C 
ATOM      9  C   UNL     1      -2.776  -3.921  -0.159  0.00  0.00    -0.044 C 
ATOM     10  C   UNL     1      -1.784  -4.538  -1.143  0.00  0.00    +0.032 C 
ATOM     11  C   UNL     1      -1.579  -6.010  -0.791  0.00  0.00    +0.005 C 
ATOM     12  C   UNL     1      -2.941  -6.706  -0.692  0.00  0.00    +0.005 C 
ATOM     13  C   UNL     1      -3.662  -6.186   0.551  0.00  0.00    +0.042 C 
BRANCH   5  14
ATOM     14  C   UNL     1      -1.496  -1.832   0.006  0.00  0.00    +0.317 C 
ATOM     15  O   UNL     1      -0.579  -2.429   0.517  0.00  0.00    -0.250 OA
BRANCH  14  16
ATOM     16  O   UNL     1      -1.283  -0.638  -0.570  0.00  0.00    -0.464 OA
BRANCH  16  18
ATOM     17  C   UNL     1       0.102   1.225  -1.242  0.00  0.00    +0.048 C 
ATOM     18  C   UNL     1       0.054  -0.135  -0.543  0.00  0.00    +0.229 C 
ENDBRANCH  16  18
ENDBRANCH  14  16
ENDBRANCH   5  14
ENDBRANCH   1   6
BRANCH   2  19
ATOM     19  C   UNL     1      -1.729  -0.595   4.362  0.00  0.00    +0.137 C 
ATOM     20  C   UNL     1      -0.509   0.151   3.819  0.00  0.00    +0.029 C 
BRANCH  19  21
ATOM     21  S   UNL     1      -2.492   0.380   5.689  0.00  0.00    -0.074 S 
BRANCH  21  22
ATOM     22  C   UNL     1      -1.269   0.406   6.956  0.00  0.00    +0.185 A 
ATOM     23  N   UNL     1      -1.380   1.013   8.158  0.00  0.00    -0.253 N 
ATOM     24  H   UNL     1      -2.142   1.515   8.487  0.00  0.00    +0.191 HD
ATOM     25  N   UNL     1      -0.174   0.774   8.835  0.00  0.00    -0.153 NA
ATOM     26  C   UNL     1       0.577   0.061   8.038  0.00  0.00    +0.189 A 
ATOM     27  N   UNL     1      -0.085  -0.168   6.903  0.00  0.00    -0.202 NA
BRANCH  26  28
ATOM     28  C   UNL     1       1.966  -0.429   8.354  0.00  0.00    +0.306 C 
BRANCH  28  29
ATOM     29  O   UNL     1       1.888  -1.714   8.976  0.00  0.00    -0.484 OA
BRANCH  29  30
ATOM     30  C   UNL     1       3.062  -2.302   9.327  0.00  0.00    +0.121 A 
ATOM     31  C   UNL     1       4.264  -1.653   9.083  0.00  0.00    +0.046 A 
ATOM     32  C   UNL     1       5.456  -2.253   9.441  0.00  0.00    +0.007 A 
ATOM     33  C   UNL     1       5.452  -3.498  10.042  0.00  0.00    -0.050 A 
ATOM     34  C   UNL     1       4.255  -4.146  10.286  0.00  0.00    +0.007 A 
ATOM     35  C   UNL     1       3.060  -3.549   9.935  0.00  0.00    +0.046 A 
ATOM     36  C   UNL     1       6.753  -4.150  10.431  0.00  0.00    +0.044 C 
ENDBRANCH  29  30
ENDBRANCH  28  29
ENDBRANCH  26  28
ENDBRANCH  21  22
ENDBRANCH  19  21
ENDBRANCH   2  19
TORSDOF 10
