REMARK  Name = ZINC00876819
REMARK  6 active torsions:
REMARK  status: ('A' for Active; 'I' for Inactive)
REMARK    1  A    between atoms: C_1  and  C_2
REMARK    2  A    between atoms: C_5  and  N_8
REMARK    3  A    between atoms: C_10  and  C_20
REMARK    4  A    between atoms: C_15  and  O_19
REMARK    5  A    between atoms: N_22  and  C_23
REMARK    6  A    between atoms: C_23  and  C_24
REMARK                            x       y       z     vdW  Elec       q    Type
REMARK                         _______ _______ _______ _____ _____    ______ ____
ROOT
ATOM      1  N   UNL     1      -2.425   3.817   0.045  0.00  0.00    -0.213 NA
ATOM      2  C   UNL     1      -3.557   3.153  -0.047  0.00  0.00    +0.233 A 
ATOM      3  C   UNL     1      -4.850   3.857  -0.143  0.00  0.00    +0.099 A 
ATOM      4  C   UNL     1      -5.898   3.187  -0.758  0.00  0.00    +0.030 A 
ATOM      5  C   UNL     1      -5.668   1.866  -1.220  0.00  0.00    +0.018 A 
ATOM      6  C   UNL     1      -6.621   1.219  -2.021  0.00  0.00    +0.015 A 
ATOM      7  C   UNL     1      -6.372  -0.035  -2.495  0.00  0.00    +0.046 A 
ATOM      8  C   UNL     1      -5.178  -0.685  -2.184  0.00  0.00    +0.120 A 
ATOM      9  C   UNL     1      -4.233  -0.069  -1.377  0.00  0.00    +0.092 A 
ATOM     10  C   UNL     1      -4.474   1.201  -0.881  0.00  0.00    +0.141 A 
ATOM     11  O   UNL     1      -3.575   1.795  -0.062  0.00  0.00    -0.437 OA
ENDROOT
BRANCH   1  16
ATOM     12  C   UNL     1       2.490   1.043  -0.043  0.00  0.00    +0.044 C 
ATOM     13  C   UNL     1       1.178   1.784  -0.019  0.00  0.00    -0.050 A 
ATOM     14  C   UNL     1       0.567   2.139  -1.209  0.00  0.00    +0.005 A 
ATOM     15  C   UNL     1      -0.632   2.822  -1.195  0.00  0.00    +0.028 A 
ATOM     16  C   UNL     1      -1.234   3.145   0.024  0.00  0.00    +0.068 A 
ATOM     17  C   UNL     1      -0.611   2.782   1.221  0.00  0.00    +0.028 A 
ATOM     18  C   UNL     1       0.590   2.104   1.192  0.00  0.00    +0.005 A 
ENDBRANCH   1  16
BRANCH   3  19
ATOM     19  C   UNL     1      -5.021   5.218   0.392  0.00  0.00    +0.249 C 
ATOM     20  O   UNL     1      -4.087   5.783   0.926  0.00  0.00    -0.270 OA
ATOM     21  N   UNL     1      -6.214   5.837   0.289  0.00  0.00    -0.309 N 
ATOM     22  H   UNL     1      -6.960   5.385  -0.137  0.00  0.00    +0.149 HD
BRANCH  21  23
ATOM     23  C   UNL     1      -6.385   7.191   0.822  0.00  0.00    +0.136 C 
BRANCH  23  24
ATOM     24  C   UNL     1      -7.822   7.657   0.578  0.00  0.00    +0.135 C 
ATOM     25  C   UNL     1      -8.005   9.115   1.071  0.00  0.00    +0.035 C 
ATOM     26  C   UNL     1      -9.199   9.575   0.191  0.00  0.00    +0.031 C 
ATOM     27  C   UNL     1      -8.947   8.815  -1.129  0.00  0.00    +0.160 C 
ATOM     28  O   UNL     1      -8.100   7.699  -0.830  0.00  0.00    -0.375 OA
ENDBRANCH  23  24
ENDBRANCH  21  23
ENDBRANCH   3  19
BRANCH   8  29
ATOM     29  O   UNL     1      -4.940  -1.928  -2.673  0.00  0.00    -0.507 OA
ATOM     30  H   UNL     1      -5.250  -2.642  -2.100  0.00  0.00    +0.292 HD
ENDBRANCH   8  29
TORSDOF 5
