REMARK  Name = ZINC13250965
REMARK  9 active torsions:
REMARK  status: ('A' for Active; 'I' for Inactive)
REMARK    1  A    between atoms: C_1  and  C_2
REMARK    2  A    between atoms: C_4  and  O_9
REMARK    3  A    between atoms: O_9  and  C_10
REMARK    4  A    between atoms: C_10  and  C_11
REMARK    5  A    between atoms: C_14  and  C_17
REMARK    6  A    between atoms: N_19  and  N_20
REMARK    7  A    between atoms: C_21  and  C_23
REMARK    8  A    between atoms: C_23  and  C_24
REMARK    9  A    between atoms: C_24  and  C_29
REMARK                            x       y       z     vdW  Elec       q    Type
REMARK                         _______ _______ _______ _____ _____    ______ ____
ROOT
ATOM      1  C   UNL     1       3.700  -0.669   0.113  0.00  0.00    +0.260 C 
ATOM      2  O   UNL     1       3.713  -1.883   0.049  0.00  0.00    -0.269 OA
ATOM      3  N   UNL     1       4.859   0.019   0.103  0.00  0.00    -0.230 N 
ATOM      4  H   UNL     1       4.848   0.988   0.155  0.00  0.00    +0.173 HD
ENDROOT
BRANCH   1   8
ATOM      5  C   UNL     1       0.001   1.405   0.369  0.00  0.00    -0.010 A 
ATOM      6  C   UNL     1       1.189   2.114   0.359  0.00  0.00    +0.008 A 
ATOM      7  C   UNL     1       2.394   1.446   0.276  0.00  0.00    +0.013 A 
ATOM      8  C   UNL     1       2.412   0.053   0.202  0.00  0.00    +0.038 A 
ATOM      9  C   UNL     1       1.210  -0.656   0.212  0.00  0.00    +0.013 A 
ATOM     10  C   UNL     1       0.013   0.023   0.295  0.00  0.00    +0.008 A 
BRANCH   5  11
ATOM     11  C   UNL     1      -1.311   2.141   0.454  0.00  0.00    +0.264 C 
BRANCH  11  12
ATOM     12  O   UNL     1      -1.679   2.302   1.825  0.00  0.00    -0.487 OA
BRANCH  12  16
ATOM     13  C   UNL     1      -4.905   4.009   5.065  0.00  0.00    +0.045 C 
ATOM     14  C   UNL     1      -4.450   3.801   3.644  0.00  0.00    -0.029 A 
ATOM     15  C   UNL     1      -3.264   3.142   3.388  0.00  0.00    +0.050 A 
ATOM     16  C   UNL     1      -2.846   2.950   2.079  0.00  0.00    +0.121 A 
ATOM     17  C   UNL     1      -3.618   3.427   1.030  0.00  0.00    +0.047 A 
ATOM     18  C   UNL     1      -4.806   4.082   1.289  0.00  0.00    +0.024 A 
ATOM     19  C   UNL     1      -5.222   4.271   2.596  0.00  0.00    +0.044 A 
ATOM     20 CL   UNL     1      -6.712   5.100   2.920  0.00  0.00    -0.083 Cl
ENDBRANCH  12  16
ENDBRANCH  11  12
ENDBRANCH   5  11
ENDBRANCH   1   8
BRANCH   3  21
ATOM     21  N   UNL     1       6.078  -0.665   0.019  0.00  0.00    -0.234 N 
ATOM     22  C   UNL     1       7.237   0.023   0.010  0.00  0.00    +0.230 C 
ATOM     23  O   UNL     1       7.224   1.234   0.074  0.00  0.00    -0.274 OA
ATOM     24  H   UNL     1       6.089  -1.634  -0.032  0.00  0.00    +0.173 HD
BRANCH  22  25
ATOM     25  C   UNL     1       8.550  -0.713  -0.080  0.00  0.00    +0.115 C 
BRANCH  25  26
ATOM     26  C   UNL     1       9.692   0.296  -0.211  0.00  0.00    +0.080 C 
ATOM     27  C   UNL     1      11.041  -0.444  -0.319  0.00  0.00    +0.019 C 
ATOM     28  C   UNL     1      12.027   0.446   0.479  0.00  0.00    +0.001 C 
ATOM     29  C   UNL     1      11.163   0.933   1.669  0.00  0.00    +0.001 C 
ATOM     30  C   UNL     1       9.770   1.172   1.052  0.00  0.00    +0.019 C 
BRANCH  26  31
ATOM     31  C   UNL     1       9.479   1.161  -1.427  0.00  0.00    +0.362 C 
ATOM     32  O   UNL     1       9.475   2.365  -1.319  0.00  0.00    -0.246 OA
ATOM     33  O   UNL     1       9.295   0.595  -2.630  0.00  0.00    -0.246 OA
ENDBRANCH  26  31
ENDBRANCH  25  26
ENDBRANCH  22  25
ENDBRANCH   3  21
TORSDOF 8
