REMARK  Name = ZINC44736990
REMARK  6 active torsions:
REMARK  status: ('A' for Active; 'I' for Inactive)
REMARK    1  A    between atoms: C_1  and  C_2
REMARK    2  A    between atoms: C_10  and  C_12
REMARK    3  A    between atoms: C_12  and  C_13
REMARK    4  A    between atoms: C_12  and  N_14
REMARK    5  A    between atoms: C_15  and  C_17
REMARK    6  A    between atoms: C_27  and  C_29
REMARK                            x       y       z     vdW  Elec       q    Type
REMARK                         _______ _______ _______ _____ _____    ______ ____
ROOT
ATOM      1  C   UNL     1      -1.423  -8.664   1.558  0.00  0.00    +0.100 C 
ATOM      2  C   UNL     1      -0.484  -9.148   0.431  0.00  0.00    +0.121 C 
ATOM      3  N   UNL     1       0.003 -10.470   0.892  0.00  0.00    -0.296 N 
ATOM      4  C   UNL     1      -1.181 -11.100   1.522  0.00  0.00    +0.115 C 
ATOM      5  C   UNL     1      -1.879  -9.949   2.269  0.00  0.00    -0.004 C 
ATOM      6  C   UNL     1      -1.440  -9.928   3.731  0.00  0.00    -0.010 C 
ATOM      7  C   UNL     1      -1.953 -11.190   4.430  0.00  0.00    -0.082 C 
ATOM      8  N   UNL     1      -3.417 -11.241   4.339  0.00  0.00    +0.379 N 
ATOM      9  C   UNL     1      -3.828 -11.354   2.934  0.00  0.00    -0.082 C 
ATOM     10  C   UNL     1      -3.394 -10.100   2.171  0.00  0.00    -0.010 C 
ATOM     11  C   UNL     1       1.243 -10.982   0.766  0.00  0.00    +0.249 C 
ATOM     12  O   UNL     1       1.466 -12.126   1.114  0.00  0.00    -0.270 OA
ATOM     13  H   UNL     1      -3.757 -12.041   4.853  0.00  0.00    -0.086 HD
ATOM     14  H   UNL     1      -3.807 -10.399   4.735  0.00  0.00    -0.086 HD
ENDROOT
BRANCH  11  15
ATOM     15  C   UNL     1       2.330 -10.156   0.205  0.00  0.00    +0.072 A 
ATOM     16  C   UNL     1       2.059  -9.232  -0.807  0.00  0.00    +0.016 A 
ATOM     17  C   UNL     1       3.079  -8.463  -1.326  0.00  0.00    +0.001 A 
ATOM     18  C   UNL     1       4.371  -8.604  -0.848  0.00  0.00    +0.003 A 
ATOM     19  C   UNL     1       4.649  -9.515   0.153  0.00  0.00    +0.039 A 
ATOM     20  C   UNL     1       3.636 -10.290   0.688  0.00  0.00    +0.135 A 
ATOM     21  F   UNL     1       3.907 -11.177   1.670  0.00  0.00    -0.205 F 
ENDBRANCH  11  15
BRANCH   1  23
ATOM     22  N   UNL     1      -1.339  -6.826   3.212  0.00  0.00    -0.305 N 
ATOM     23  C   UNL     1      -0.677  -7.771   2.516  0.00  0.00    +0.219 C 
ATOM     24  O   UNL     1       0.520  -7.902   2.659  0.00  0.00    -0.275 OA
ATOM     25  H   UNL     1      -2.296  -6.721   3.097  0.00  0.00    +0.149 HD
BRANCH  22  26
ATOM     26  C   UNL     1      -0.613  -5.958   4.143  0.00  0.00    +0.136 C 
ATOM     27  C   UNL     1      -0.022  -4.772   3.378  0.00  0.00    +0.036 C 
BRANCH  26  37
ATOM     28  C   UNL     1      -4.191  -3.332  10.117  0.00  0.00    +0.044 C 
ATOM     29  C   UNL     1      -3.902  -3.868   8.739  0.00  0.00    -0.048 A 
ATOM     30  C   UNL     1      -4.943  -4.057   7.840  0.00  0.00    +0.005 A 
ATOM     31  C   UNL     1      -4.702  -4.542   6.586  0.00  0.00    +0.030 A 
ATOM     32  C   UNL     1      -3.395  -4.853   6.199  0.00  0.00    +0.089 A 
ATOM     33  C   UNL     1      -2.341  -4.661   7.108  0.00  0.00    +0.067 A 
ATOM     34  C   UNL     1      -2.604  -4.162   8.376  0.00  0.00    +0.031 A 
ATOM     35  N   UNL     1      -1.193  -5.049   6.447  0.00  0.00    -0.340 N 
ATOM     36  H   UNL     1      -0.291  -5.037   6.805  0.00  0.00    +0.167 HD
ATOM     37  C   UNL     1      -1.560  -5.452   5.201  0.00  0.00    +0.128 A 
ATOM     38  N   UNL     1      -2.848  -5.338   5.055  0.00  0.00    -0.231 NA
ENDBRANCH  26  37
ENDBRANCH  22  26
ENDBRANCH   1  23
TORSDOF 4
