REMARK  Name = ZINC13066982
REMARK  15 active torsions:
REMARK  status: ('A' for Active; 'I' for Inactive)
REMARK    1  A    between atoms: C_1  and  C_2
REMARK    2  A    between atoms: C_2  and  C_3
REMARK    3  A    between atoms: C_2  and  C_4
REMARK    4  A    between atoms: C_2  and  N_5
REMARK    5  A    between atoms: N_5  and  S_6
REMARK    6  A    between atoms: S_6  and  C_9
REMARK    7  A    between atoms: C_13  and  N_15
REMARK    8  A    between atoms: N_15  and  S_16
REMARK    9  A    between atoms: S_16  and  C_19
REMARK   10  A    between atoms: C_21  and  C_29
REMARK   11  A    between atoms: C_23  and  O_27
REMARK   12  A    between atoms: C_24  and  O_25
REMARK   13  A    between atoms: O_25  and  C_26
REMARK   14  A    between atoms: O_27  and  C_28
REMARK   15  A    between atoms: C_30  and  C_31
REMARK                            x       y       z     vdW  Elec       q    Type
REMARK                         _______ _______ _______ _____ _____    ______ ____
ROOT
ATOM      1  S   UNL     1      -1.482  -2.491   0.367  0.00  0.00    +0.076 S 
ATOM      2  O   UNL     1      -2.463  -2.155  -0.604  0.00  0.00    -0.150 OA
ATOM      3  O   UNL     1      -0.710  -3.682   0.291  0.00  0.00    -0.150 OA
ENDROOT
BRANCH   1   4
ATOM      4  C   UNL     1      -0.337  -1.152   0.410  0.00  0.00    +0.154 A 
ATOM      5  C   UNL     1      -0.504  -0.078  -0.437  0.00  0.00    +0.040 A 
ATOM      6  C   UNL     1       0.404   0.986  -0.404  0.00  0.00    -0.019 A 
ATOM      7  C   UNL     1       1.480   0.955   0.492  0.00  0.00    +0.057 A 
ATOM      8  C   UNL     1       1.640  -0.124   1.337  0.00  0.00    +0.164 A 
ATOM      9  C   UNL     1       0.727  -1.179   1.302  0.00  0.00    +0.188 A 
BRANCH   9  10
ATOM     10  O   UNL     1       0.883  -2.237   2.138  0.00  0.00    -0.490 OA
ATOM     11  C   UNL     1       1.802  -3.254   1.734  0.00  0.00    +0.277 C 
ENDBRANCH   9  10
BRANCH   8  12
ATOM     12  O   UNL     1       2.684  -0.158   2.208  0.00  0.00    -0.491 OA
ATOM     13  C   UNL     1       3.576   0.958   2.194  0.00  0.00    +0.277 C 
ENDBRANCH   8  12
BRANCH   6  14
ATOM     14  C   UNL     1       0.229   2.133  -1.305  0.00  0.00    +0.015 C 
ATOM     15  C   UNL     1       1.107   3.160  -1.272  0.00  0.00    +0.096 C 
BRANCH  15  16
ATOM     16  C   UNL     1       0.937   4.266  -2.142  0.00  0.00    +0.380 C 
ATOM     17  O   UNL     1       0.001   4.291  -2.919  0.00  0.00    -0.241 OA
ATOM     18  O   UNL     1       1.814   5.291  -2.108  0.00  0.00    -0.241 OA
ENDBRANCH  15  16
ENDBRANCH   6  14
ENDBRANCH   1   4
BRANCH   1  19
ATOM     19  N   UNL     1      -2.256  -2.521   1.831  0.00  0.00    -0.216 N 
ATOM     20  H   UNL     1      -2.187  -3.303   2.400  0.00  0.00    +0.174 HD
BRANCH  19  25
ATOM     21  C   UNL     1      -3.612   0.160   3.947  0.00  0.00    +0.107 A 
ATOM     22  C   UNL     1      -4.495   0.763   3.070  0.00  0.00    +0.028 A 
ATOM     23  C   UNL     1      -4.636   0.279   1.782  0.00  0.00    +0.004 A 
ATOM     24  C   UNL     1      -3.894  -0.810   1.368  0.00  0.00    +0.024 A 
ATOM     25  C   UNL     1      -3.007  -1.419   2.246  0.00  0.00    +0.050 A 
ATOM     26  C   UNL     1      -2.872  -0.932   3.541  0.00  0.00    +0.053 A 
BRANCH  21  27
ATOM     27  S   UNL     1      -3.438   0.782   5.586  0.00  0.00    +0.059 S 
ATOM     28  O   UNL     1      -2.054   0.714   5.901  0.00  0.00    -0.153 OA
ATOM     29  O   UNL     1      -4.173   1.997   5.641  0.00  0.00    -0.153 OA
BRANCH  27  30
ATOM     30  N   UNL     1      -4.206  -0.282   6.597  0.00  0.00    -0.185 NA
ATOM     31  H   UNL     1      -3.695  -0.787   7.249  0.00  0.00    +0.149 HD
BRANCH  30  33
ATOM     32  C   UNL     1      -6.030  -0.905   5.092  0.00  0.00    +0.029 C 
ATOM     33  C   UNL     1      -5.657  -0.460   6.507  0.00  0.00    +0.032 C 
ATOM     34  C   UNL     1      -6.104  -1.525   7.511  0.00  0.00    +0.029 C 
ATOM     35  C   UNL     1      -6.354   0.865   6.825  0.00  0.00    +0.029 C 
ENDBRANCH  30  33
ENDBRANCH  27  30
ENDBRANCH  21  27
ENDBRANCH  19  25
ENDBRANCH   1  19
TORSDOF 10
