REMARK  Name = ZINC53993881
REMARK  4 active torsions:
REMARK  status: ('A' for Active; 'I' for Inactive)
REMARK    1  A    between atoms: C_3  and  C_6
REMARK    2  A    between atoms: C_8  and  C_12
REMARK    3  A    between atoms: C_9  and  N_11
REMARK    4  A    between atoms: C_14  and  C_17
REMARK                            x       y       z     vdW  Elec       q    Type
REMARK                         _______ _______ _______ _____ _____    ______ ____
ROOT
ATOM      1  C   UNL     1       3.739   1.809  -0.025  0.00  0.00    +0.237 A 
ATOM      2  N   UNL     1       4.809   1.051  -0.044  0.00  0.00    -0.202 NA
ATOM      3  C   UNL     1       5.907   1.852  -0.049  0.00  0.00    +0.189 A 
ATOM      4  C   UNL     1       5.454   3.160  -0.032  0.00  0.00    +0.217 A 
ATOM      5  O   UNL     1       4.108   3.105  -0.022  0.00  0.00    -0.421 OA
ENDROOT
BRANCH   1   8
ATOM      6  C   UNL     1      -0.016   1.354   0.009  0.00  0.00    +0.008 A 
ATOM      7  C   UNL     1       1.174   2.044   0.002  0.00  0.00    +0.021 A 
ATOM      8  C   UNL     1       2.353   1.321  -0.013  0.00  0.00    +0.074 A 
ATOM      9  S   UNL     1       1.751  -0.360  -0.017  0.00  0.00    -0.092 S 
ATOM     10  C   UNL     1       0.002  -0.004   0.002  0.00  0.00    +0.046 A 
ENDBRANCH   1   8
BRANCH   3  11
ATOM     11  C   UNL     1       7.309   1.413  -0.069  0.00  0.00    +0.282 A 
ATOM     12  N   UNL     1       7.728   0.165  -0.090  0.00  0.00    -0.186 NA
ATOM     13  C   UNL     1       9.069   0.134  -0.103  0.00  0.00    +0.202 A 
ATOM     14  N   UNL     1       9.523   1.364  -0.090  0.00  0.00    -0.056 NA
ATOM     15  O   UNL     1       8.389   2.218  -0.073  0.00  0.00    -0.331 OA
BRANCH  13  16
ATOM     16  C   UNL     1       9.903  -1.093  -0.128  0.00  0.00    +0.023 A 
ATOM     17  C   UNL     1       9.299  -2.349  -0.145  0.00  0.00    +0.014 A 
ATOM     18  C   UNL     1      10.078  -3.487  -0.169  0.00  0.00    +0.039 A 
ATOM     19  C   UNL     1      11.460  -3.383  -0.175  0.00  0.00    +0.123 A 
ATOM     20  C   UNL     1      12.065  -2.137  -0.158  0.00  0.00    +0.039 A 
ATOM     21  C   UNL     1      11.293  -0.993  -0.140  0.00  0.00    +0.014 A 
ATOM     22  F   UNL     1      12.220  -4.500  -0.197  0.00  0.00    -0.205 F 
ENDBRANCH  13  16
ENDBRANCH   3  11
BRANCH   4  23
ATOM     23  N   UNL     1       6.230   4.300  -0.030  0.00  0.00    -0.327 N 
ATOM     24  H   UNL     1       7.198   4.228  -0.041  0.00  0.00    +0.145 HD
ATOM     25  H   UNL     1       5.809   5.174  -0.017  0.00  0.00    +0.145 HD
ENDBRANCH   4  23
TORSDOF 4
