REMARK  Name = ZINC44786223
REMARK  11 active torsions:
REMARK  status: ('A' for Active; 'I' for Inactive)
REMARK    1  A    between atoms: C_1  and  C_2
REMARK    2  A    between atoms: C_2  and  C_3
REMARK    3  A    between atoms: C_2  and  C_4
REMARK    4  A    between atoms: C_4  and  C_6
REMARK    5  A    between atoms: C_4  and  N_10
REMARK    6  A    between atoms: C_6  and  N_7
REMARK    7  A    between atoms: N_7  and  C_8
REMARK    8  A    between atoms: N_7  and  C_9
REMARK    9  A    between atoms: C_11  and  C_13
REMARK   10  A    between atoms: C_13  and  C_18
REMARK   11  A    between atoms: N_19  and  O_20
REMARK                            x       y       z     vdW  Elec       q    Type
REMARK                         _______ _______ _______ _____ _____    ______ ____
ROOT
ATOM      1  N   UNL     1      -1.411  -2.001  -0.001  0.00  0.00    -0.313 N 
ATOM      2  C   UNL     1      -1.290  -2.677   1.159  0.00  0.00    +0.227 C 
ATOM      3  O   UNL     1      -1.106  -2.075   2.195  0.00  0.00    -0.275 OA
ATOM      4  H   UNL     1      -1.494  -2.485  -0.838  0.00  0.00    +0.149 HD
ENDROOT
BRANCH   2   5
ATOM      5  C   UNL     1      -1.384  -4.181   1.168  0.00  0.00    +0.105 C 
ATOM      6  C   UNL     1      -1.270  -4.708   2.609  0.00  0.00    +0.024 C 
ATOM      7  C   UNL     1      -0.025  -5.617   2.648  0.00  0.00    +0.001 C 
ATOM      8  C   UNL     1       0.848  -5.119   1.470  0.00  0.00    +0.001 C 
ATOM      9  C   UNL     1      -0.204  -4.789   0.382  0.00  0.00    +0.024 C 
BRANCH   5  10
ATOM     10  C   UNL     1      -2.691  -4.620   0.559  0.00  0.00    +0.147 C 
ATOM     11  N   UNL     1      -2.696  -5.459  -0.423  0.00  0.00    -0.076 NA
ATOM     12  N   UNL     1      -3.879  -4.126   1.049  0.00  0.00    -0.343 N 
ATOM     13  H   UNL     1      -3.880  -3.553   1.832  0.00  0.00    +0.144 HD
ATOM     14  H   UNL     1      -4.715  -4.351   0.612  0.00  0.00    +0.144 HD
BRANCH  11  15
ATOM     15  O   UNL     1      -3.924  -5.871  -0.995  0.00  0.00    -0.408 OA
ATOM     16  H   UNL     1      -3.827  -6.500  -1.724  0.00  0.00    +0.328 HD
ENDBRANCH  11  15
ENDBRANCH   5  10
ENDBRANCH   2   5
BRANCH   1  17
ATOM     17  C   UNL     1      -1.415  -0.536   0.002  0.00  0.00    +0.059 C 
BRANCH  17  19
ATOM     18  C   UNL     1       0.021   1.508  -0.015  0.00  0.00    +0.009 C 
ATOM     19  C   UNL     1       0.026  -0.022  -0.018  0.00  0.00    +0.001 C 
ATOM     20  C   UNL     1       0.766  -0.532   1.220  0.00  0.00    +0.009 C 
ENDBRANCH  17  19
BRANCH  17  21
ATOM     21  C   UNL     1      -2.156  -0.026  -1.236  0.00  0.00    -0.057 C 
BRANCH  21  22
ATOM     22  N   UNL     1      -3.501  -0.616  -1.279  0.00  0.00    +0.377 N 
ATOM     23  C   UNL     1      -4.283  -0.136  -0.132  0.00  0.00    -0.097 C 
ATOM     24  C   UNL     1      -4.168  -0.222  -2.527  0.00  0.00    -0.097 C 
ATOM     25  H   UNL     1      -3.428  -1.621  -1.240  0.00  0.00    -0.083 HD
ENDBRANCH  21  22
ENDBRANCH  17  21
ENDBRANCH   1  17
TORSDOF 7
