REMARK  Name = ZINC63476958
REMARK  9 active torsions:
REMARK  status: ('A' for Active; 'I' for Inactive)
REMARK    1  A    between atoms: C_1  and  C_2
REMARK    2  A    between atoms: C_4  and  N_16
REMARK    3  A    between atoms: C_6  and  C_7
REMARK    4  A    between atoms: N_9  and  C_10
REMARK    5  A    between atoms: C_10  and  C_14
REMARK    6  A    between atoms: C_17  and  C_19
REMARK    7  A    between atoms: C_19  and  C_20
REMARK    8  A    between atoms: C_19  and  C_21
REMARK    9  A    between atoms: C_19  and  C_22
REMARK                            x       y       z     vdW  Elec       q    Type
REMARK                         _______ _______ _______ _____ _____    ______ ____
ROOT
ATOM      1  C   UNL     1      -0.018   1.503   0.010  0.00  0.00    +0.045 C 
ATOM      2  C   UNL     1       0.002  -0.004   0.002  0.00  0.00    -0.029 A 
ATOM      3  C   UNL     1       0.007  -0.725  -1.164  0.00  0.00    +0.035 A 
ATOM      4  C   UNL     1       0.025  -2.098  -1.090  0.00  0.00    +0.073 A 
ATOM      5  S   UNL     1       0.037  -2.419   0.559  0.00  0.00    -0.069 S 
ATOM      6  C   UNL     1       0.023  -0.747   1.175  0.00  0.00    +0.079 A 
ENDROOT
BRANCH   6   7
ATOM      7  C   UNL     1       0.030  -0.278   2.559  0.00  0.00    +0.252 C 
ATOM      8  O   UNL     1       0.016   0.917   2.797  0.00  0.00    -0.270 OA
ATOM      9  N   UNL     1       0.052  -1.167   3.572  0.00  0.00    -0.293 N 
ATOM     10  H   UNL     1       0.063  -2.118   3.382  0.00  0.00    +0.151 HD
BRANCH   9  11
ATOM     11  C   UNL     1       0.059  -0.696   4.959  0.00  0.00    +0.121 C 
ATOM     12  C   UNL     1       1.455  -0.305   5.470  0.00  0.00    +0.041 C 
ATOM     13  C   UNL     1       1.067  -0.970   6.802  0.00  0.00    +0.006 C 
ATOM     14  C   UNL     1       0.084  -1.833   5.995  0.00  0.00    +0.041 C 
BRANCH  11  15
ATOM     15  C   UNL     1      -0.974   0.319   5.223  0.00  0.00    +0.088 C 
ATOM     16  N   UNL     1      -1.770   1.103   5.428  0.00  0.00    -0.194 NA
ENDBRANCH  11  15
ENDBRANCH   9  11
ENDBRANCH   6   7
BRANCH   4  17
ATOM     17  N   UNL     1       0.033  -3.010  -2.139  0.00  0.00    -0.280 N 
ATOM     18  C   UNL     1       0.052  -4.333  -1.881  0.00  0.00    +0.223 C 
ATOM     19  O   UNL     1       0.063  -4.727  -0.734  0.00  0.00    -0.275 OA
ATOM     20  H   UNL     1       0.025  -2.695  -3.056  0.00  0.00    +0.155 HD
BRANCH  18  21
ATOM     21  C   UNL     1       0.061  -5.322  -3.018  0.00  0.00    +0.039 C 
ATOM     22  C   UNL     1       0.082  -6.745  -2.456  0.00  0.00    +0.020 C 
ATOM     23  C   UNL     1      -1.195  -5.130  -3.870  0.00  0.00    +0.020 C 
ATOM     24  C   UNL     1       1.303  -5.096  -3.882  0.00  0.00    +0.020 C 
ENDBRANCH  18  21
ENDBRANCH   4  17
TORSDOF 5
