REMARK  Name = ZINC00341742
REMARK  5 active torsions:
REMARK  status: ('A' for Active; 'I' for Inactive)
REMARK    1  A    between atoms: C_1  and  C_2
REMARK    2  A    between atoms: C_5  and  C_7
REMARK    3  A    between atoms: C_7  and  C_19
REMARK    4  A    between atoms: C_10  and  C_12
REMARK    5  A    between atoms: C_17  and  O_18
REMARK                            x       y       z     vdW  Elec       q    Type
REMARK                         _______ _______ _______ _____ _____    ______ ____
ROOT
ATOM      1  C   UNL     1       1.684  -3.245  -0.023  0.00  0.00    +0.154 C 
ATOM      2  N   UNL     1       1.123  -4.377  -0.794  0.00  0.00    -0.244 N 
ATOM      3  N   UNL     1       1.849  -4.750  -1.903  0.00  0.00    -0.178 NA
ATOM      4  C   UNL     1       2.951  -4.162  -2.263  0.00  0.00    +0.128 C 
ATOM      5  S   UNL     1       3.185  -2.893  -1.028  0.00  0.00    -0.069 S 
ATOM      6  C   UNL     1       2.054  -3.668   1.400  0.00  0.00    +0.054 C 
ATOM      7  H   UNL     1       0.302  -4.825  -0.536  0.00  0.00    +0.170 HD
ENDROOT
BRANCH   1  12
ATOM      8  C   UNL     1      -0.018   1.503   0.010  0.00  0.00    +0.086 C 
ATOM      9  C   UNL     1       0.002  -0.004   0.002  0.00  0.00    +0.102 A 
ATOM     10  C   UNL     1      -1.078  -0.805   0.003  0.00  0.00    +0.045 A 
ATOM     11  C   UNL     1      -0.601  -2.136  -0.007  0.00  0.00    +0.048 A 
ATOM     12  C   UNL     1       0.742  -2.069  -0.013  0.00  0.00    +0.140 A 
ATOM     13  O   UNL     1       1.102  -0.775  -0.013  0.00  0.00    -0.462 OA
ENDBRANCH   1  12
BRANCH   4  14
ATOM     14  C   UNL     1       3.811  -4.471  -3.425  0.00  0.00    +0.050 A 
ATOM     15  C   UNL     1       4.971  -3.731  -3.655  0.00  0.00    +0.014 A 
ATOM     16  C   UNL     1       5.770  -4.024  -4.741  0.00  0.00    +0.001 A 
ATOM     17  C   UNL     1       5.425  -5.050  -5.604  0.00  0.00    +0.004 A 
ATOM     18  C   UNL     1       4.277  -5.790  -5.386  0.00  0.00    +0.046 A 
ATOM     19  C   UNL     1       3.468  -5.511  -4.296  0.00  0.00    +0.127 A 
BRANCH  19  20
ATOM     20  O   UNL     1       2.343  -6.241  -4.079  0.00  0.00    -0.506 OA
ATOM     21  H   UNL     1       1.554  -5.885  -4.510  0.00  0.00    +0.292 HD
ENDBRANCH  19  20
ENDBRANCH   4  14
TORSDOF 3
