REMARK  Name = ZINC20337822
REMARK  7 active torsions:
REMARK  status: ('A' for Active; 'I' for Inactive)
REMARK    1  A    between atoms: C_5  and  C_7
REMARK    2  A    between atoms: N_11  and  C_20
REMARK    3  A    between atoms: C_14  and  N_19
REMARK    4  A    between atoms: C_20  and  C_21
REMARK    5  A    between atoms: C_21  and  C_23
REMARK    6  A    between atoms: C_21  and  O_25
REMARK    7  A    between atoms: C_23  and  O_24
REMARK                            x       y       z     vdW  Elec       q    Type
REMARK                         _______ _______ _______ _____ _____    ______ ____
ROOT
ATOM      1  C   UNL     1       2.446   3.772  -0.002  0.00  0.00    +0.079 C 
ATOM      2  C   UNL     1       3.598   3.070   0.085  0.00  0.00    +0.192 C 
ATOM      3  C   UNL     1       3.602   1.589   0.087  0.00  0.00    +0.286 C 
ATOM      4  O   UNL     1       2.634   0.955   0.464  0.00  0.00    -0.266 OA
ATOM      5  N   UNL     1       4.726   0.969  -0.351  0.00  0.00    -0.259 N 
ATOM      6  C   UNL     1       5.806   1.750  -0.781  0.00  0.00    +0.081 A 
ATOM      7  C   UNL     1       6.850   1.164  -1.482  0.00  0.00    +0.050 A 
ATOM      8  C   UNL     1       7.918   1.941  -1.909  0.00  0.00    +0.027 A 
ATOM      9  C   UNL     1       7.942   3.303  -1.635  0.00  0.00    +0.026 A 
ATOM     10  C   UNL     1       6.903   3.888  -0.936  0.00  0.00    +0.050 A 
ATOM     11  C   UNL     1       5.835   3.117  -0.508  0.00  0.00    +0.150 A 
ATOM     12  O   UNL     1       4.810   3.694   0.181  0.00  0.00    -0.449 OA
ENDROOT
BRANCH   1  17
ATOM     13  C   UNL     1      -1.134   2.716   0.294  0.00  0.00    +0.004 A 
ATOM     14  C   UNL     1      -1.169   1.766  -0.718  0.00  0.00    +0.020 A 
ATOM     15  C   UNL     1      -0.022   1.505  -1.446  0.00  0.00    +0.111 A 
ATOM     16  N   UNL     1       1.098   2.152  -1.200  0.00  0.00    -0.255 NA
ATOM     17  C   UNL     1       1.174   3.073  -0.243  0.00  0.00    +0.067 A 
ATOM     18  C   UNL     1       0.054   3.382   0.534  0.00  0.00    +0.028 A 
ENDBRANCH   1  17
BRANCH   8  19
ATOM     19  N   UNL     1       8.971   1.351  -2.616  0.00  0.00    -0.358 N 
ATOM     20  H   UNL     1       9.818   1.966  -2.954  0.00  0.00    +0.142 HD
ATOM     21  H   UNL     1       8.953   0.273  -2.833  0.00  0.00    +0.142 HD
ENDBRANCH   8  19
BRANCH   5  22
ATOM     22  C   UNL     1       4.811  -0.494  -0.369  0.00  0.00    +0.147 C 
BRANCH  22  23
ATOM     23  C   UNL     1       5.365  -0.989   0.969  0.00  0.00    +0.157 C 
BRANCH  23  24
ATOM     24  O   UNL     1       6.668  -0.438   1.177  0.00  0.00    -0.388 OA
ATOM     25  H   UNL     1       7.228  -0.683   2.092  0.00  0.00    +0.210 HD
ENDBRANCH  23  24
BRANCH  23  26
ATOM     26  C   UNL     1       5.454  -2.516   0.950  0.00  0.00    +0.188 C 
BRANCH  26  27
ATOM     27  O   UNL     1       5.861  -2.985   2.237  0.00  0.00    -0.392 OA
ATOM     28  H   UNL     1       5.980  -4.063   2.417  0.00  0.00    +0.210 HD
ENDBRANCH  26  27
ENDBRANCH  23  26
ENDBRANCH  22  23
ENDBRANCH   5  22
TORSDOF 7
