REMARK  Name = ZINC48737507
REMARK  4 active torsions:
REMARK  status: ('A' for Active; 'I' for Inactive)
REMARK    1  A    between atoms: C_3  and  C_9
REMARK    2  A    between atoms: C_4  and  O_8
REMARK    3  A    between atoms: N_11  and  N_12
REMARK    4  A    between atoms: C_13  and  C_15
REMARK                            x       y       z     vdW  Elec       q    Type
REMARK                         _______ _______ _______ _____ _____    ______ ____
ROOT
ATOM      1  C   UNL     1       3.652   2.171  -0.022  0.00  0.00    +0.264 C 
ATOM      2  O   UNL     1       4.713   1.578  -0.035  0.00  0.00    -0.269 OA
ATOM      3  N   UNL     1       3.633   3.519  -0.015  0.00  0.00    -0.230 N 
ATOM      4  H   UNL     1       2.786   3.992  -0.004  0.00  0.00    +0.173 HD
ENDROOT
BRANCH   1   7
ATOM      5  C   UNL     1      -0.017   1.382   0.010  0.00  0.00    +0.021 A 
ATOM      6  C   UNL     1       1.163   2.093   0.002  0.00  0.00    +0.018 A 
ATOM      7  C   UNL     1       2.385   1.416  -0.013  0.00  0.00    +0.080 A 
ATOM      8  C   UNL     1       2.400   0.014  -0.021  0.00  0.00    +0.130 A 
ATOM      9  C   UNL     1       1.204  -0.686  -0.013  0.00  0.00    +0.066 A 
ATOM     10  C   UNL     1       0.002  -0.004   0.002  0.00  0.00    +0.044 A 
ATOM     11 CL   UNL     1      -1.492  -0.888   0.012  0.00  0.00    -0.083 Cl
BRANCH   8  12
ATOM     12  O   UNL     1       3.581  -0.654  -0.036  0.00  0.00    -0.506 OA
ATOM     13  H   UNL     1       3.932  -0.853   0.843  0.00  0.00    +0.292 HD
ENDBRANCH   8  12
ENDBRANCH   1   7
BRANCH   3  14
ATOM     14  N   UNL     1       4.836   4.236  -0.023  0.00  0.00    -0.228 N 
ATOM     15  C   UNL     1       4.817   5.584  -0.016  0.00  0.00    +0.295 C 
ATOM     16  O   UNL     1       3.755   6.177  -0.003  0.00  0.00    -0.265 OA
ATOM     17  H   UNL     1       5.683   3.763  -0.033  0.00  0.00    +0.173 HD
BRANCH  15  18
ATOM     18  C   UNL     1       6.076   6.335  -0.024  0.00  0.00    +0.192 A 
ATOM     19  C   UNL     1       6.199   7.695  -0.013  0.00  0.00    +0.056 A 
ATOM     20  C   UNL     1       7.573   7.976  -0.027  0.00  0.00    +0.058 A 
ATOM     21  C   UNL     1       8.222   6.789  -0.046  0.00  0.00    +0.171 A 
ATOM     22  O   UNL     1       7.316   5.803  -0.038  0.00  0.00    -0.444 OA
ATOM     23 BR   UNL     1      10.099   6.560  -0.071  0.00  0.00    -0.008 Br
ENDBRANCH  15  18
ENDBRANCH   3  14
TORSDOF 4
