REMARK  Name = ZINC22157164
REMARK  8 active torsions:
REMARK  status: ('A' for Active; 'I' for Inactive)
REMARK    1  A    between atoms: C_1  and  C_2
REMARK    2  A    between atoms: C_7  and  N_12
REMARK    3  A    between atoms: C_9  and  C_11
REMARK    4  A    between atoms: N_12  and  S_13
REMARK    5  A    between atoms: S_13  and  C_16
REMARK    6  A    between atoms: C_18  and  C_22
REMARK    7  A    between atoms: N_19  and  C_21
REMARK    8  A    between atoms: N_24  and  N_25
REMARK                            x       y       z     vdW  Elec       q    Type
REMARK                         _______ _______ _______ _____ _____    ______ ____
ROOT
ATOM      1  S   UNL     1      -1.122   0.789  -2.665  0.00  0.00    +0.060 S 
ATOM      2  O   UNL     1      -2.023   1.423  -3.561  0.00  0.00    -0.153 OA
ATOM      3  O   UNL     1       0.218   0.480  -3.023  0.00  0.00    -0.153 OA
ENDROOT
BRANCH   1   4
ATOM      4  C   UNL     1      -1.876  -0.728  -2.181  0.00  0.00    +0.123 A 
ATOM      5  C   UNL     1      -1.211  -1.867  -1.717  0.00  0.00    +0.061 A 
ATOM      6  C   UNL     1      -2.174  -2.817  -1.450  0.00  0.00    +0.107 A 
ATOM      7  N   UNL     1      -3.397  -2.266  -1.757  0.00  0.00    -0.344 N 
ATOM      8  C   UNL     1      -3.203  -1.000  -2.199  0.00  0.00    +0.114 A 
ATOM      9  C   UNL     1      -4.693  -2.937  -1.627  0.00  0.00    +0.149 C 
BRANCH   6  10
ATOM     10  C   UNL     1      -1.937  -4.172  -0.939  0.00  0.00    +0.274 C 
ATOM     11  O   UNL     1      -2.862  -4.956  -0.842  0.00  0.00    -0.267 OA
ATOM     12  N   UNL     1      -0.694  -4.548  -0.577  0.00  0.00    -0.248 N 
ATOM     13  H   UNL     1       0.127  -3.815  -0.586  0.00  0.00    +0.169 HD
BRANCH  12  14
ATOM     14  N   UNL     1      -0.453  -5.838  -0.200  0.00  0.00    -0.254 NA
ATOM     15  H   UNL     1       0.610  -5.953   0.057  0.00  0.00    +0.140 HD
ATOM     16  H   UNL     1      -1.071  -6.085   0.676  0.00  0.00    +0.140 HD
ENDBRANCH  12  14
ENDBRANCH   6  10
ENDBRANCH   1   4
BRANCH   1  17
ATOM     17  N   UNL     1      -1.042   1.748  -1.317  0.00  0.00    -0.187 NA
ATOM     18  H   UNL     1      -1.742   2.590  -1.214  0.00  0.00    +0.148 HD
BRANCH  17  24
ATOM     19  C   UNL     1      -1.728   3.724   2.437  0.00  0.00    +0.008 C 
ATOM     20  C   UNL     1      -1.055   3.296   1.131  0.00  0.00    -0.010 C 
ATOM     21  C   UNL     1       0.313   3.972   1.017  0.00  0.00    +0.003 C 
ATOM     22  C   UNL     1       0.985   3.544  -0.290  0.00  0.00    +0.002 C 
ATOM     23  C   UNL     1       1.164   2.024  -0.297  0.00  0.00    +0.020 C 
ATOM     24  C   UNL     1      -0.204   1.349  -0.183  0.00  0.00    +0.080 C 
ATOM     25  C   UNL     1      -0.876   1.777   1.123  0.00  0.00    +0.007 C 
ATOM     26  C   UNL     1      -2.244   1.101   1.238  0.00  0.00    +0.009 C 
ENDBRANCH  17  24
ENDBRANCH   1  17
TORSDOF 5
