REMARK  Name = ZINC27579781
REMARK  8 active torsions:
REMARK  status: ('A' for Active; 'I' for Inactive)
REMARK    1  A    between atoms: C_1  and  C_2
REMARK    2  A    between atoms: C_9  and  C_25
REMARK    3  A    between atoms: C_10  and  C_12
REMARK    4  A    between atoms: N_14  and  C_15
REMARK    5  A    between atoms: C_15  and  C_16
REMARK    6  A    between atoms: C_16  and  N_22
REMARK    7  A    between atoms: N_22  and  C_23
REMARK    8  A    between atoms: N_22  and  C_24
REMARK                            x       y       z     vdW  Elec       q    Type
REMARK                         _______ _______ _______ _____ _____    ______ ____
ROOT
ATOM      1  C   UNL     1      -2.442   1.774  -2.642  0.00  0.00    +0.280 C 
ATOM      2  O   UNL     1      -2.911   1.079  -3.524  0.00  0.00    -0.267 OA
ATOM      3  N   UNL     1      -1.971   1.205  -1.515  0.00  0.00    -0.310 N 
ATOM      4  H   UNL     1      -1.547   1.833  -0.718  0.00  0.00    +0.149 HD
ENDROOT
BRANCH   1  14
ATOM      5  C   UNL     1      -1.460   9.082  -1.925  0.00  0.00    +0.045 C 
ATOM      6  C   UNL     1      -1.852   7.753  -2.517  0.00  0.00    -0.029 A 
ATOM      7  C   UNL     1      -1.625   6.596  -1.804  0.00  0.00    +0.051 A 
ATOM      8  C   UNL     1      -1.985   5.367  -2.345  0.00  0.00    +0.136 A 
ATOM      9  C   UNL     1      -2.578   5.327  -3.621  0.00  0.00    +0.025 A 
ATOM     10  C   UNL     1      -2.800   6.511  -4.328  0.00  0.00    +0.032 A 
ATOM     11  C   UNL     1      -2.438   7.708  -3.775  0.00  0.00    +0.045 A 
ATOM     12 CL   UNL     1      -2.713   9.181  -4.652  0.00  0.00    -0.083 Cl
ATOM     13  C   UNL     1      -2.831   3.913  -3.896  0.00  0.00    +0.008 A 
ATOM     14  C   UNL     1      -2.388   3.233  -2.807  0.00  0.00    +0.193 A 
ATOM     15  O   UNL     1      -1.897   4.100  -1.897  0.00  0.00    -0.450 OA
ATOM     16  C   UNL     1      -3.456   3.329  -5.137  0.00  0.00    +0.048 C 
ENDBRANCH   1  14
BRANCH   3  17
ATOM     17  C   UNL     1      -2.025  -0.250  -1.350  0.00  0.00    +0.092 C 
BRANCH  17  18
ATOM     18  C   UNL     1      -1.344  -0.640  -0.037  0.00  0.00    -0.050 C 
ATOM     19  C   UNL     1      -2.145  -0.077   1.139  0.00  0.00    -0.010 C 
ATOM     20  C   UNL     1      -3.564  -0.650   1.111  0.00  0.00    -0.001 C 
ATOM     21  C   UNL     1      -3.501  -2.175   1.219  0.00  0.00    -0.000 C 
ATOM     22  C   UNL     1      -2.700  -2.737   0.043  0.00  0.00    -0.001 C 
ATOM     23  C   UNL     1      -1.281  -2.165   0.072  0.00  0.00    -0.010 C 
BRANCH  18  24
ATOM     24  N   UNL     1       0.018  -0.090  -0.009  0.00  0.00    +0.381 N 
ATOM     25  C   UNL     1       0.667  -0.358   1.281  0.00  0.00    -0.096 C 
ATOM     26  C   UNL     1       0.821  -0.616  -1.121  0.00  0.00    -0.096 C 
ATOM     27  H   UNL     1      -0.055   1.000  -0.131  0.00  0.00    -0.082 HD
ENDBRANCH  18  24
ENDBRANCH  17  18
ENDBRANCH   3  17
TORSDOF 4
