REMARK  Name = ZINC22001237
REMARK  9 active torsions:
REMARK  status: ('A' for Active; 'I' for Inactive)
REMARK    1  A    between atoms: C_1  and  C_2
REMARK    2  A    between atoms: C_2  and  C_3
REMARK    3  A    between atoms: C_3  and  C_34
REMARK    4  A    between atoms: N_6  and  N_10
REMARK    5  A    between atoms: C_11  and  C_13
REMARK    6  A    between atoms: C_13  and  S_14
REMARK    7  A    between atoms: S_14  and  C_15
REMARK    8  A    between atoms: N_25  and  C_26
REMARK    9  A    between atoms: C_29  and  C_33
REMARK                            x       y       z     vdW  Elec       q    Type
REMARK                         _______ _______ _______ _____ _____    ______ ____
ROOT
ATOM      1  C   UNL     1      -6.956  -1.404   6.848  0.00  0.00    +0.177 A 
ATOM      2  N   UNL     1      -7.070  -2.519   6.171  0.00  0.00    -0.223 NA
ATOM      3  C   UNL     1      -8.280  -3.057   5.891  0.00  0.00    +0.079 A 
ATOM      4  C   UNL     1      -8.403  -4.248   5.169  0.00  0.00    +0.028 A 
ATOM      5  C   UNL     1      -9.645  -4.756   4.910  0.00  0.00    +0.002 A 
ATOM      6  C   UNL     1     -10.790  -4.107   5.354  0.00  0.00    +0.001 A 
ATOM      7  C   UNL     1     -10.701  -2.941   6.064  0.00  0.00    +0.015 A 
ATOM      8  C   UNL     1      -9.447  -2.400   6.342  0.00  0.00    +0.065 A 
ATOM      9  C   UNL     1      -9.291  -1.151   7.099  0.00  0.00    +0.267 A 
ATOM     10  O   UNL     1     -10.259  -0.539   7.513  0.00  0.00    -0.267 OA
ATOM     11  N   UNL     1      -8.033  -0.708   7.325  0.00  0.00    -0.255 N 
ENDROOT
BRANCH  11  12
ATOM     12  C   UNL     1      -7.831   0.475   8.047  0.00  0.00    +0.055 A 
ATOM     13  C   UNL     1      -7.771   1.694   7.384  0.00  0.00    +0.027 A 
ATOM     14  C   UNL     1      -7.577   2.860   8.098  0.00  0.00    +0.008 A 
ATOM     15  C   UNL     1      -7.432   2.815   9.472  0.00  0.00    -0.015 A 
ATOM     16  C   UNL     1      -7.487   1.602  10.137  0.00  0.00    +0.128 A 
ATOM     17  C   UNL     1      -7.686   0.431   9.427  0.00  0.00    +0.065 A 
ATOM     18  F   UNL     1      -7.345   1.561  11.480  0.00  0.00    -0.205 F 
ATOM     19  C   UNL     1      -7.215   4.089  10.248  0.00  0.00    +0.047 C 
ENDBRANCH  11  12
BRANCH   1  20
ATOM     20  S   UNL     1      -5.341  -0.774   7.167  0.00  0.00    -0.078 S 
BRANCH  20  21
ATOM     21  C   UNL     1      -4.343  -2.043   6.349  0.00  0.00    +0.174 C 
BRANCH  21  23
ATOM     22  N   UNL     1      -1.945  -2.514   5.962  0.00  0.00    -0.223 N 
ATOM     23  C   UNL     1      -2.882  -1.705   6.496  0.00  0.00    +0.240 C 
ATOM     24  O   UNL     1      -2.548  -0.704   7.094  0.00  0.00    -0.273 OA
ATOM     25  H   UNL     1      -2.248  -3.422   5.420  0.00  0.00    +0.174 HD
BRANCH  22  29
ATOM     26  C   UNL     1       1.559  -1.521   5.707  0.00  0.00    +0.111 C 
ATOM     27  C   UNL     1       0.179  -1.705   5.106  0.00  0.00    +0.263 C 
ATOM     28  O   UNL     1      -0.164  -1.458   3.970  0.00  0.00    -0.271 OA
ATOM     29  N   UNL     1      -0.587  -2.200   6.099  0.00  0.00    -0.137 N 
ATOM     30  C   UNL     1       0.110  -2.352   7.231  0.00  0.00    +0.326 C 
ATOM     31  O   UNL     1      -0.365  -2.782   8.264  0.00  0.00    -0.251 OA
ATOM     32  N   UNL     1       1.395  -1.976   7.098  0.00  0.00    -0.284 N 
ATOM     33  C   UNL     1       2.584  -2.389   4.974  0.00  0.00    +0.041 C 
ATOM     34  H   UNL     1       2.251  -1.956   7.788  0.00  0.00    +0.151 HD
BRANCH  26  36
ATOM     35  C   UNL     1       3.345   0.112   6.328  0.00  0.00    +0.006 C 
ATOM     36  C   UNL     1       1.975  -0.049   5.667  0.00  0.00    +0.032 C 
ENDBRANCH  26  36
ENDBRANCH  22  29
ENDBRANCH  21  23
ENDBRANCH  20  21
ENDBRANCH   1  20
TORSDOF 6
