REMARK  Name = ZINC63845962
REMARK  5 active torsions:
REMARK  status: ('A' for Active; 'I' for Inactive)
REMARK    1  A    between atoms: C_1  and  N_2
REMARK    2  A    between atoms: C_7  and  C_10
REMARK    3  A    between atoms: C_15  and  O_16
REMARK    4  A    between atoms: O_16  and  C_17
REMARK    5  A    between atoms: C_17  and  C_18
REMARK                            x       y       z     vdW  Elec       q    Type
REMARK                         _______ _______ _______ _____ _____    ______ ____
ROOT
ATOM      1  C   UNL     1      -3.297  -1.588  -2.789  0.00  0.00    +0.033 A 
ATOM      2  C   UNL     1      -3.881  -0.381  -3.124  0.00  0.00    +0.010 A 
ATOM      3  C   UNL     1      -4.419  -0.199  -4.385  0.00  0.00    +0.001 A 
ATOM      4  C   UNL     1      -4.373  -1.222  -5.313  0.00  0.00    +0.004 A 
ATOM      5  C   UNL     1      -3.789  -2.430  -4.983  0.00  0.00    +0.046 A 
ATOM      6  C   UNL     1      -3.245  -2.614  -3.721  0.00  0.00    +0.127 A 
ENDROOT
BRANCH   1  12
ATOM      7  C   UNL     1      -0.018   1.461   0.010  0.00  0.00    +0.154 C 
ATOM      8  N   UNL     1       0.002  -0.004   0.002  0.00  0.00    -0.235 N 
ATOM      9  C   UNL     1      -1.150  -0.910   0.002  0.00  0.00    +0.211 C 
ATOM     10  C   UNL     1      -0.571  -2.113  -0.742  0.00  0.00    +0.094 C 
ATOM     11  N   UNL     1      -1.493  -2.607  -1.493  0.00  0.00    -0.260 NA
ATOM     12  C   UNL     1      -2.712  -1.786  -1.415  0.00  0.00    +0.208 C 
ATOM     13  N   UNL     1      -2.280  -0.470  -0.827  0.00  0.00    -0.267 NA
ATOM     14  C   UNL     1       0.838  -2.069  -0.346  0.00  0.00    +0.156 C 
ATOM     15  N   UNL     1       1.131  -0.844  -0.014  0.00  0.00    -0.189 NA
ATOM     16  H   UNL     1      -3.006  -0.059  -0.260  0.00  0.00    +0.126 HD
ENDBRANCH   1  12
BRANCH   6  17
ATOM     17  O   UNL     1      -2.665  -3.800  -3.396  0.00  0.00    -0.487 OA
BRANCH  17  18
ATOM     18  C   UNL     1      -2.647  -4.811  -4.405  0.00  0.00    +0.264 C 
BRANCH  18  19
ATOM     19  C   UNL     1      -1.970  -6.045  -3.867  0.00  0.00    -0.010 A 
ATOM     20  C   UNL     1      -0.603  -6.200  -4.006  0.00  0.00    +0.007 A 
ATOM     21  C   UNL     1       0.018  -7.332  -3.512  0.00  0.00    +0.000 A 
ATOM     22  C   UNL     1      -0.728  -8.309  -2.879  0.00  0.00    +0.000 A 
ATOM     23  C   UNL     1      -2.094  -8.154  -2.739  0.00  0.00    +0.000 A 
ATOM     24  C   UNL     1      -2.715  -7.020  -3.229  0.00  0.00    +0.007 A 
ENDBRANCH  18  19
ENDBRANCH  17  18
ENDBRANCH   6  17
TORSDOF 4
