REMARK  Name = ZINC39659203
REMARK  6 active torsions:
REMARK  status: ('A' for Active; 'I' for Inactive)
REMARK    1  A    between atoms: C_1  and  C_2
REMARK    2  A    between atoms: C_2  and  C_31
REMARK    3  A    between atoms: C_5  and  C_8
REMARK    4  A    between atoms: C_8  and  N_9
REMARK    5  A    between atoms: C_10  and  C_12
REMARK    6  A    between atoms: C_23  and  C_25
REMARK                            x       y       z     vdW  Elec       q    Type
REMARK                         _______ _______ _______ _____ _____    ______ ____
ROOT
ATOM      1  C   UNL     1       3.732  -1.018   5.780  0.00  0.00    +0.100 C 
ATOM      2  C   UNL     1       2.244  -0.823   6.147  0.00  0.00    +0.121 C 
ATOM      3  N   UNL     1       1.874  -2.058   6.878  0.00  0.00    -0.296 N 
ATOM      4  C   UNL     1       3.060  -2.360   7.715  0.00  0.00    +0.115 C 
ATOM      5  C   UNL     1       4.265  -2.025   6.814  0.00  0.00    -0.004 C 
ATOM      6  C   UNL     1       5.382  -1.393   7.639  0.00  0.00    -0.010 C 
ATOM      7  C   UNL     1       5.935  -2.431   8.620  0.00  0.00    -0.082 C 
ATOM      8  N   UNL     1       6.445  -3.588   7.874  0.00  0.00    +0.379 N 
ATOM      9  C   UNL     1       5.345  -4.245   7.157  0.00  0.00    -0.082 C 
ATOM     10  C   UNL     1       4.767  -3.284   6.115  0.00  0.00    -0.010 C 
ATOM     11  C   UNL     1       0.719  -2.749   6.801  0.00  0.00    +0.247 C 
ATOM     12  O   UNL     1      -0.117  -2.446   5.972  0.00  0.00    -0.270 OA
ATOM     13  H   UNL     1       7.140  -3.280   7.212  0.00  0.00    -0.086 HD
ATOM     14  H   UNL     1       6.864  -4.243   8.518  0.00  0.00    -0.086 HD
ENDROOT
BRANCH  11  15
ATOM     15  C   UNL     1       0.469  -3.876   7.725  0.00  0.00    +0.037 A 
ATOM     16  C   UNL     1       1.176  -3.969   8.925  0.00  0.00    +0.013 A 
ATOM     17  C   UNL     1       0.938  -5.023   9.783  0.00  0.00    +0.001 A 
ATOM     18  C   UNL     1       0.001  -5.987   9.455  0.00  0.00    +0.000 A 
ATOM     19  C   UNL     1      -0.703  -5.901   8.267  0.00  0.00    +0.001 A 
ATOM     20  C   UNL     1      -0.478  -4.849   7.403  0.00  0.00    +0.013 A 
ENDBRANCH  11  15
BRANCH   1  22
ATOM     21  N   UNL     1       4.997  -1.392   3.687  0.00  0.00    -0.312 N 
ATOM     22  C   UNL     1       3.860  -1.579   4.387  0.00  0.00    +0.218 C 
ATOM     23  O   UNL     1       2.941  -2.199   3.896  0.00  0.00    -0.275 OA
ATOM     24  H   UNL     1       5.732  -0.896   4.080  0.00  0.00    +0.149 HD
BRANCH  21  25
ATOM     25  C   UNL     1       5.121  -1.937   2.333  0.00  0.00    +0.138 C 
BRANCH  25  30
ATOM     26  C   UNL     1       8.977   0.220   1.123  0.00  0.00    +0.074 C 
ATOM     27  C   UNL     1       7.602  -0.034   0.501  0.00  0.00    +0.165 C 
ATOM     28  O   UNL     1       7.633  -1.251  -0.256  0.00  0.00    -0.347 OA
ATOM     29  C   UNL     1       6.668  -2.146   0.333  0.00  0.00    +0.196 C 
ATOM     30  C   UNL     1       6.498  -1.585   1.767  0.00  0.00    +0.164 C 
ATOM     31  O   UNL     1       6.618  -0.160   1.541  0.00  0.00    -0.342 OA
ATOM     32  C   UNL     1       7.232   1.131  -0.419  0.00  0.00    +0.074 C 
ENDBRANCH  25  30
ENDBRANCH  21  25
ENDBRANCH   1  22
TORSDOF 4
