REMARK  Name = ZINC50975214
REMARK  7 active torsions:
REMARK  status: ('A' for Active; 'I' for Inactive)
REMARK    1  A    between atoms: C_1  and  C_2
REMARK    2  A    between atoms: C_7  and  C_8
REMARK    3  A    between atoms: C_10  and  C_11
REMARK    4  A    between atoms: C_10  and  C_13
REMARK    5  A    between atoms: N_15  and  C_16
REMARK    6  A    between atoms: C_19  and  O_23
REMARK    7  A    between atoms: O_23  and  C_24
REMARK                            x       y       z     vdW  Elec       q    Type
REMARK                         _______ _______ _______ _____ _____    ______ ____
ROOT
ATOM      1  C   UNL     1       1.133   0.264   2.462  0.00  0.00    +0.225 C 
ATOM      2  O   UNL     1       1.245  -0.691   3.410  0.00  0.00    -0.284 OA
ATOM      3  C   UNL     1       0.214   1.301   2.620  0.00  0.00    +0.162 C 
ENDROOT
BRANCH   1  10
ATOM      4  C   UNL     1       1.173  -2.067   0.378  0.00  0.00    +0.047 C 
ATOM      5  C   UNL     1       2.000  -0.808   0.349  0.00  0.00    -0.011 A 
ATOM      6  C   UNL     1       2.938  -0.446  -0.623  0.00  0.00    +0.041 A 
ATOM      7  C   UNL     1       3.470   0.792  -0.260  0.00  0.00    +0.027 A 
ATOM      8  N   UNL     1       2.886   1.174   0.877  0.00  0.00    -0.355 N 
ATOM      9  H   UNL     1       3.067   2.000   1.351  0.00  0.00    +0.166 HD
ATOM     10  C   UNL     1       1.975   0.209   1.269  0.00  0.00    +0.092 A 
ATOM     11  C   UNL     1       4.524   1.500  -1.073  0.00  0.00    +0.054 C 
ATOM     12  C   UNL     1       5.233   0.484  -1.974  0.00  0.00    +0.014 C 
ATOM     13  C   UNL     1       4.217  -0.312  -2.797  0.00  0.00    +0.080 C 
ATOM     14  C   UNL     1       3.372  -1.144  -1.843  0.00  0.00    +0.165 C 
ATOM     15  O   UNL     1       3.077  -2.298  -2.073  0.00  0.00    -0.292 OA
ENDBRANCH   1  10
BRANCH   3  16
ATOM     16  C   UNL     1      -0.009   2.255   1.531  0.00  0.00    +0.262 C 
ATOM     17  O   UNL     1       0.522   2.079   0.450  0.00  0.00    -0.269 OA
ATOM     18  N   UNL     1      -0.802   3.327   1.726  0.00  0.00    -0.281 N 
ATOM     19  H   UNL     1      -1.143   3.523   2.613  0.00  0.00    +0.155 HD
BRANCH  18  20
ATOM     20  C   UNL     1      -1.133   4.158   0.649  0.00  0.00    +0.035 A 
ATOM     21  C   UNL     1      -1.281   3.620  -0.623  0.00  0.00    +0.027 A 
ATOM     22  C   UNL     1      -1.608   4.440  -1.685  0.00  0.00    +0.049 A 
ATOM     23  C   UNL     1      -1.789   5.800  -1.483  0.00  0.00    +0.138 A 
ATOM     24  C   UNL     1      -1.641   6.339  -0.212  0.00  0.00    +0.084 A 
ATOM     25  C   UNL     1      -1.319   5.519   0.853  0.00  0.00    +0.047 A 
ATOM     26 CL   UNL     1      -1.866   8.041   0.041  0.00  0.00    -0.080 Cl
BRANCH  23  27
ATOM     27  O   UNL     1      -2.110   6.607  -2.530  0.00  0.00    -0.494 OA
ATOM     28  C   UNL     1      -2.246   5.985  -3.809  0.00  0.00    +0.277 C 
ENDBRANCH  23  27
ENDBRANCH  18  20
ENDBRANCH   3  16
BRANCH   3  29
ATOM     29  C   UNL     1      -0.511   1.434   3.848  0.00  0.00    +0.108 C 
ATOM     30  N   UNL     1      -1.087   1.539   4.821  0.00  0.00    -0.191 NA
ENDBRANCH   3  29
TORSDOF 5
