REMARK  Name = ZINC36131820
REMARK  7 active torsions:
REMARK  status: ('A' for Active; 'I' for Inactive)
REMARK    1  A    between atoms: C_1  and  C_2
REMARK    2  A    between atoms: C_2  and  C_3
REMARK    3  A    between atoms: C_7  and  C_19
REMARK    4  A    between atoms: N_10  and  C_11
REMARK    5  A    between atoms: C_12  and  N_18
REMARK    6  A    between atoms: C_13  and  C_17
REMARK    7  A    between atoms: N_15  and  C_16
REMARK                            x       y       z     vdW  Elec       q    Type
REMARK                         _______ _______ _______ _____ _____    ______ ____
ROOT
ATOM      1  C   UNL     1      -1.503   0.931   2.072  0.00  0.00    +0.141 A 
ATOM      2  C   UNL     1      -0.646   0.589   3.077  0.00  0.00    +0.088 A 
ATOM      3  C   UNL     1      -0.238   1.767   3.712  0.00  0.00    +0.082 A 
ATOM      4  N   UNL     1      -0.820   2.780   3.120  0.00  0.00    -0.173 NA
ATOM      5  N   UNL     1      -1.619   2.287   2.080  0.00  0.00    -0.252 N 
ATOM      6  C   UNL     1      -2.435   3.088   1.165  0.00  0.00    +0.174 C 
ATOM      7  C   UNL     1       0.711   1.856   4.879  0.00  0.00    +0.069 C 
ENDROOT
BRANCH   1  13
ATOM      8  C   UNL     1      -1.528  -0.307  -0.096  0.00  0.00    +0.100 C 
ATOM      9  C   UNL     1      -1.529  -1.835  -0.223  0.00  0.00    +0.182 C 
ATOM     10  O   UNL     1      -2.851  -2.326   0.010  0.00  0.00    -0.373 OA
ATOM     11  C   UNL     1      -3.351  -2.060   1.323  0.00  0.00    +0.132 C 
ATOM     12  C   UNL     1      -3.443  -0.544   1.530  0.00  0.00    +0.138 C 
ATOM     13  N   UNL     1      -2.140   0.052   1.194  0.00  0.00    -0.306 N 
ATOM     14  C   UNL     1      -4.739  -2.683   1.477  0.00  0.00    +0.039 C 
BRANCH   8  16
ATOM     15  C   UNL     1       0.496  -0.041  -1.536  0.00  0.00    +0.006 C 
ATOM     16  C   UNL     1      -0.090   0.213  -0.146  0.00  0.00    +0.021 C 
ENDBRANCH   8  16
ENDBRANCH   1  13
BRANCH   2  17
ATOM     17  N   UNL     1      -0.243  -0.723   3.417  0.00  0.00    -0.354 N 
ATOM     18  H   UNL     1      -0.643  -1.485   2.968  0.00  0.00    +0.142 HD
ATOM     19  H   UNL     1       0.434  -0.862   4.098  0.00  0.00    +0.142 HD
ENDBRANCH   2  17
TORSDOF 3
