REMARK  Name = ZINC39631744
REMARK  14 active torsions:
REMARK  status: ('A' for Active; 'I' for Inactive)
REMARK    1  A    between atoms: C_1  and  C_2
REMARK    2  A    between atoms: C_2  and  C_3
REMARK    3  A    between atoms: C_3  and  C_5
REMARK    4  A    between atoms: C_3  and  C_11
REMARK    5  A    between atoms: C_15  and  C_24
REMARK    6  A    between atoms: N_26  and  C_27
REMARK    7  A    between atoms: C_27  and  C_29
REMARK    8  A    between atoms: C_27  and  C_30
REMARK    9  A    between atoms: C_30  and  C_31
REMARK   10  A    between atoms: C_31  and  C_32
REMARK   11  A    between atoms: C_32  and  C_33
REMARK   12  A    between atoms: C_33  and  C_34
REMARK   13  A    between atoms: C_33  and  C_35
REMARK   14  A    between atoms: C_33  and  O_36
REMARK                            x       y       z     vdW  Elec       q    Type
REMARK                         _______ _______ _______ _____ _____    ______ ____
ROOT
ATOM      1  C   UNL     1      -1.401  -2.153   0.102  0.00  0.00    +0.223 C 
ATOM      2  O   UNL     1      -1.928  -2.852  -0.738  0.00  0.00    -0.275 OA
ATOM      3  N   UNL     1      -0.847  -2.714   1.194  0.00  0.00    -0.300 N 
ATOM      4  C   UNL     1      -0.169  -2.031   2.322  0.00  0.00    +0.121 C 
ATOM      5  C   UNL     1      -0.626  -2.805   3.578  0.00  0.00    +0.100 C 
ATOM      6  C   UNL     1      -1.022  -4.198   3.059  0.00  0.00    -0.004 C 
ATOM      7  C   UNL     1      -0.782  -4.154   1.543  0.00  0.00    +0.115 C 
ATOM      8  C   UNL     1      -0.147  -5.270   3.703  0.00  0.00    -0.010 C 
ATOM      9  C   UNL     1      -0.598  -6.650   3.215  0.00  0.00    -0.082 C 
ATOM     10  N   UNL     1      -2.006  -6.861   3.571  0.00  0.00    +0.379 N 
ATOM     11  C   UNL     1      -2.850  -5.883   2.874  0.00  0.00    -0.082 C 
ATOM     12  C   UNL     1      -2.495  -4.470   3.348  0.00  0.00    -0.010 C 
ATOM     13  H   UNL     1      -2.283  -7.793   3.303  0.00  0.00    -0.086 HD
ATOM     14  H   UNL     1      -2.119  -6.752   4.568  0.00  0.00    -0.086 HD
ENDROOT
BRANCH   5  15
ATOM     15  C   UNL     1       0.505  -2.913   4.568  0.00  0.00    +0.218 C 
ATOM     16  O   UNL     1       1.650  -2.979   4.175  0.00  0.00    -0.275 OA
ATOM     17  N   UNL     1       0.243  -2.938   5.890  0.00  0.00    -0.312 N 
ATOM     18  H   UNL     1      -0.673  -2.885   6.205  0.00  0.00    +0.149 HD
BRANCH  17  19
ATOM     19  C   UNL     1       1.343  -3.043   6.853  0.00  0.00    +0.070 C 
ATOM     20  C   UNL     1       1.906  -1.649   7.138  0.00  0.00    +0.028 C 
BRANCH  19  21
ATOM     21  C   UNL     1       0.825  -3.660   8.153  0.00  0.00    +0.022 C 
BRANCH  21  22
ATOM     22  C   UNL     1       0.377  -5.099   7.892  0.00  0.00    +0.005 C 
BRANCH  22  23
ATOM     23  C   UNL     1      -0.141  -5.717   9.192  0.00  0.00    +0.034 C 
BRANCH  23  24
ATOM     24  C   UNL     1      -0.589  -7.156   8.931  0.00  0.00    +0.061 C 
ATOM     25  C   UNL     1      -1.221  -7.732  10.199  0.00  0.00    +0.041 C 
ATOM     26  C   UNL     1      -1.615  -7.173   7.796  0.00  0.00    +0.041 C 
BRANCH  24  27
ATOM     27  O   UNL     1       0.543  -7.947   8.561  0.00  0.00    -0.389 OA
ATOM     28  H   UNL     1       0.332  -8.873   8.380  0.00  0.00    +0.210 HD
ENDBRANCH  24  27
ENDBRANCH  23  24
ENDBRANCH  22  23
ENDBRANCH  21  22
ENDBRANCH  19  21
ENDBRANCH  17  19
ENDBRANCH   5  15
BRANCH   1  29
ATOM     29  C   UNL     1      -1.367  -0.657  -0.077  0.00  0.00    +0.105 C 
BRANCH  29  30
ATOM     30  C   UNL     1      -2.049  -0.289  -1.369  0.00  0.00    -0.036 A 
ATOM     31  C   UNL     1      -1.572  -0.785  -2.568  0.00  0.00    +0.004 A 
ATOM     32  C   UNL     1      -2.198  -0.448  -3.754  0.00  0.00    +0.000 A 
ATOM     33  C   UNL     1      -3.301   0.385  -3.740  0.00  0.00    +0.000 A 
ATOM     34  C   UNL     1      -3.779   0.879  -2.541  0.00  0.00    +0.000 A 
ATOM     35  C   UNL     1      -3.156   0.539  -1.355  0.00  0.00    +0.004 A 
ENDBRANCH  29  30
BRANCH  29  37
ATOM     36  C   UNL     1       0.123   1.347  -0.171  0.00  0.00    +0.005 C 
ATOM     37  C   UNL     1       0.087  -0.182  -0.115  0.00  0.00    +0.014 C 
ENDBRANCH  29  37
ENDBRANCH   1  29
TORSDOF 10
