REMARK  Name = ZINC13136833
REMARK  7 active torsions:
REMARK  status: ('A' for Active; 'I' for Inactive)
REMARK    1  A    between atoms: C_1  and  O_2
REMARK    2  A    between atoms: O_2  and  C_3
REMARK    3  A    between atoms: C_5  and  C_11
REMARK    4  A    between atoms: C_8  and  O_9
REMARK    5  A    between atoms: C_14  and  C_25
REMARK    6  A    between atoms: C_20  and  N_24
REMARK    7  A    between atoms: C_21  and  C_22
REMARK                            x       y       z     vdW  Elec       q    Type
REMARK                         _______ _______ _______ _____ _____    ______ ____
ROOT
ATOM      1  C   UNL     1       2.401   0.380  -4.231  0.00  0.00    +0.102 C 
ATOM      2  C   UNL     1       3.871   0.067  -4.344  0.00  0.00    +0.054 A 
ATOM      3  C   UNL     1       4.917   0.408  -3.482  0.00  0.00    +0.102 A 
ATOM      4  N   UNL     1       6.034  -0.081  -3.986  0.00  0.00    -0.171 NA
ATOM      5  N   UNL     1       5.726  -0.745  -5.183  0.00  0.00    -0.246 N 
ATOM      6  H   UNL     1       6.357  -1.199  -5.763  0.00  0.00    +0.192 HD
ATOM      7  C   UNL     1       4.396  -0.642  -5.385  0.00  0.00    +0.223 A 
ATOM      8  O   UNL     1       3.636  -1.120  -6.402  0.00  0.00    -0.423 OA
ATOM      9  C   UNL     1       2.377  -0.650  -6.516  0.00  0.00    +0.200 C 
ATOM     10  C   UNL     1       1.746   0.055  -5.550  0.00  0.00    +0.098 C 
ENDROOT
BRANCH   1  13
ATOM     11  C   UNL     1       0.606  -0.608  -1.056  0.00  0.00    +0.163 A 
ATOM     12  C   UNL     1       1.173   0.159  -2.062  0.00  0.00    +0.054 A 
ATOM     13  C   UNL     1       1.786  -0.455  -3.138  0.00  0.00    -0.030 A 
ATOM     14  C   UNL     1       1.836  -1.835  -3.214  0.00  0.00    +0.023 A 
ATOM     15  C   UNL     1       1.273  -2.606  -2.213  0.00  0.00    +0.063 A 
ATOM     16  C   UNL     1       0.662  -1.996  -1.129  0.00  0.00    +0.173 A 
ATOM     17 BR   UNL     1       1.342  -4.493  -2.321  0.00  0.00    -0.046 Br
BRANCH  11  19
ATOM     18  C   UNL     1      -0.017   1.425   0.010  0.00  0.00    +0.277 C 
ATOM     19  O   UNL     1       0.002  -0.004   0.002  0.00  0.00    -0.491 OA
ENDBRANCH  11  19
BRANCH  16  20
ATOM     20  O   UNL     1       0.112  -2.752  -0.141  0.00  0.00    -0.503 OA
ATOM     21  H   UNL     1      -0.816  -2.979  -0.290  0.00  0.00    +0.292 HD
ENDBRANCH  16  20
ENDBRANCH   1  13
BRANCH   3  22
ATOM     22  C   UNL     1       4.793   1.182  -2.222  0.00  0.00    +0.021 A 
ATOM     23  C   UNL     1       5.612   0.893  -1.127  0.00  0.00    +0.013 A 
ATOM     24  C   UNL     1       5.457   1.644   0.025  0.00  0.00    +0.020 A 
ATOM     25  C   UNL     1       4.506   2.647   0.056  0.00  0.00    +0.111 A 
ATOM     26  N   UNL     1       3.747   2.897  -0.993  0.00  0.00    -0.263 NA
ATOM     27  C   UNL     1       3.862   2.213  -2.113  0.00  0.00    +0.120 A 
ENDBRANCH   3  22
BRANCH   9  28
ATOM     28  N   UNL     1       1.697  -0.900  -7.682  0.00  0.00    -0.328 N 
ATOM     29  H   UNL     1       2.123  -1.402  -8.394  0.00  0.00    +0.145 HD
ATOM     30  H   UNL     1       0.790  -0.575  -7.794  0.00  0.00    +0.145 HD
ENDBRANCH   9  28
BRANCH  10  31
ATOM     31  C   UNL     1       0.409   0.508  -5.786  0.00  0.00    +0.101 C 
ATOM     32  N   UNL     1      -0.653   0.868  -5.974  0.00  0.00    -0.191 NA
ENDBRANCH  10  31
TORSDOF 6
