REMARK  Name = ZINC08791970
REMARK  4 active torsions:
REMARK  status: ('A' for Active; 'I' for Inactive)
REMARK    1  A    between atoms: C_1  and  N_2
REMARK    2  A    between atoms: C_10  and  N_12
REMARK    3  A    between atoms: N_15  and  C_22
REMARK    4  A    between atoms: N_18  and  C_21
REMARK                            x       y       z     vdW  Elec       q    Type
REMARK                         _______ _______ _______ _____ _____    ______ ____
ROOT
ATOM      1  C   UNL     1      -0.018   1.461   0.010  0.00  0.00    +0.129 C 
ATOM      2  N   UNL     1       0.002  -0.004   0.002  0.00  0.00    -0.331 N 
ATOM      3  C   UNL     1      -1.248  -0.768   0.114  0.00  0.00    +0.130 C 
ATOM      4  C   UNL     1      -1.010  -1.907   1.117  0.00  0.00    +0.143 C 
ATOM      5  C   UNL     1       0.057  -2.844   0.546  0.00  0.00    +0.064 C 
ATOM      6  C   UNL     1       1.279  -2.061   0.142  0.00  0.00    -0.023 A 
ATOM      7  C   UNL     1       1.214  -0.700  -0.119  0.00  0.00    +0.033 A 
ATOM      8  C   UNL     1       2.357  -0.005  -0.497  0.00  0.00    +0.025 A 
ATOM      9  C   UNL     1       3.562  -0.668  -0.619  0.00  0.00    +0.024 A 
ATOM     10  C   UNL     1       3.630  -2.031  -0.363  0.00  0.00    +0.025 A 
ATOM     11  C   UNL     1       2.489  -2.724   0.024  0.00  0.00    +0.028 A 
ATOM     12  C   UNL     1      -2.291  -2.666   1.319  0.00  0.00    +0.240 C 
ATOM     13  O   UNL     1      -2.817  -3.197   0.365  0.00  0.00    -0.274 OA
ATOM     14  N   UNL     1      -2.869  -2.773   2.524  0.00  0.00    -0.228 N 
ATOM     15  C   UNL     1      -2.337  -2.208   3.618  0.00  0.00    +0.317 C 
ATOM     16  O   UNL     1      -2.903  -2.336   4.686  0.00  0.00    -0.252 OA
ATOM     17  N   UNL     1      -1.196  -1.505   3.564  0.00  0.00    -0.228 N 
ATOM     18  C   UNL     1      -0.526  -1.328   2.416  0.00  0.00    +0.240 C 
ATOM     19  O   UNL     1       0.500  -0.683   2.427  0.00  0.00    -0.274 OA
ATOM     20  C   UNL     1      -0.666  -0.913   4.795  0.00  0.00    +0.143 C 
ATOM     21  C   UNL     1      -4.117  -3.529   2.649  0.00  0.00    +0.143 C 
ENDROOT
BRANCH  10  22
ATOM     22  N   UNL     1       4.850  -2.706  -0.485  0.00  0.00    -0.358 N 
ATOM     23  H   UNL     1       5.648  -2.221  -0.749  0.00  0.00    +0.142 HD
ATOM     24  H   UNL     1       4.898  -3.658  -0.307  0.00  0.00    +0.142 HD
ENDBRANCH  10  22
TORSDOF 1
