REMARK  Name = ZINC67132628
REMARK  4 active torsions:
REMARK  status: ('A' for Active; 'I' for Inactive)
REMARK    1  A    between atoms: C_1  and  C_2
REMARK    2  A    between atoms: N_10  and  N_14
REMARK    3  A    between atoms: C_15  and  C_17
REMARK    4  A    between atoms: C_17  and  N_18
REMARK                            x       y       z     vdW  Elec       q    Type
REMARK                         _______ _______ _______ _____ _____    ______ ____
ROOT
ATOM      1  N   UNL     1      -1.508  -5.759   2.776  0.00  0.00    -0.225 N 
ATOM      2  C   UNL     1      -0.773  -6.285   3.775  0.00  0.00    +0.213 C 
ATOM      3  O   UNL     1       0.077  -5.615   4.321  0.00  0.00    -0.276 OA
ATOM      4  H   UNL     1      -2.188  -6.295   2.339  0.00  0.00    +0.173 HD
ENDROOT
BRANCH   1  14
ATOM      5  C   UNL     1      -0.019   1.526   0.010  0.00  0.00    +0.007 C 
ATOM      6  C   UNL     1       0.002  -0.004   0.002  0.00  0.00    -0.014 C 
ATOM      7  C   UNL     1      -1.433  -0.533   0.010  0.00  0.00    +0.006 C 
ATOM      8  C   UNL     1      -1.412  -2.064  -0.009  0.00  0.00    +0.035 C 
ATOM      9  C   UNL     1      -0.655  -2.578   1.211  0.00  0.00    +0.114 C 
ATOM     10  C   UNL     1       0.772  -2.041   1.227  0.00  0.00    +0.035 C 
ATOM     11  C   UNL     1       0.742  -0.510   1.242  0.00  0.00    +0.006 C 
ATOM     12  C   UNL     1      -0.651  -4.089   1.231  0.00  0.00    +0.263 C 
ATOM     13  O   UNL     1      -0.174  -4.833   0.401  0.00  0.00    -0.271 OA
ATOM     14  N   UNL     1      -1.290  -4.436   2.367  0.00  0.00    -0.137 N 
ATOM     15  C   UNL     1      -1.691  -3.361   3.056  0.00  0.00    +0.326 C 
ATOM     16  O   UNL     1      -2.288  -3.418   4.113  0.00  0.00    -0.251 OA
ATOM     17  N   UNL     1      -1.358  -2.207   2.446  0.00  0.00    -0.284 N 
ATOM     18  H   UNL     1      -1.546  -1.309   2.760  0.00  0.00    +0.151 HD
ENDBRANCH   1  14
BRANCH   2  19
ATOM     19  C   UNL     1      -1.008  -7.708   4.214  0.00  0.00    +0.020 C 
BRANCH  19  20
ATOM     20  N   UNL     1      -0.087  -8.040   5.309  0.00  0.00    +0.387 N 
ATOM     21  C   UNL     1       1.294  -8.000   4.815  0.00  0.00    -0.078 C 
ATOM     22  C   UNL     1       2.263  -8.267   5.969  0.00  0.00    -0.018 C 
ATOM     23  C   UNL     1       1.971  -9.647   6.564  0.00  0.00    +0.000 C 
ATOM     24  C   UNL     1       0.507  -9.701   7.010  0.00  0.00    -0.025 C 
ATOM     25  C   UNL     1      -0.396  -9.383   5.816  0.00  0.00    -0.065 C 
ATOM     26  C   UNL     1      -0.162 -10.413   4.710  0.00  0.00    -0.015 C 
ATOM     27  C   UNL     1      -0.486 -11.812   5.237  0.00  0.00    -0.002 C 
ATOM     28  C   UNL     1       0.419 -12.130   6.429  0.00  0.00    +0.000 C 
ATOM     29  C   UNL     1       0.185 -11.100   7.538  0.00  0.00    +0.002 C 
ATOM     30  H   UNL     1      -0.195  -7.368   6.054  0.00  0.00    -0.081 HD
ENDBRANCH  19  20
ENDBRANCH   2  19
TORSDOF 3
