REMARK  Name = ZINC52122286
REMARK  3 active torsions:
REMARK  status: ('A' for Active; 'I' for Inactive)
REMARK    1  A    between atoms: C_6  and  O_7
REMARK    2  A    between atoms: O_7  and  C_8
REMARK    3  A    between atoms: C_13  and  N_14
REMARK                            x       y       z     vdW  Elec       q    Type
REMARK                         _______ _______ _______ _____ _____    ______ ____
ROOT
ATOM      1  O   UNL     1      -1.166  -0.700   0.010  0.00  0.00    -0.454 OA
ENDROOT
BRANCH   1   7
ATOM      2  C   UNL     1       0.784   0.066  -1.117  0.00  0.00    +0.050 A 
ATOM      3  C   UNL     1       1.973   0.771  -1.101  0.00  0.00    +0.053 A 
ATOM      4  C   UNL     1       2.389   1.406   0.057  0.00  0.00    +0.166 A 
ATOM      5  C   UNL     1       1.607   1.335   1.208  0.00  0.00    +0.170 A 
ATOM      6  C   UNL     1       0.415   0.630   1.190  0.00  0.00    +0.095 A 
ATOM      7  C   UNL     1       0.003  -0.006   0.027  0.00  0.00    +0.132 A 
ATOM      8  O   UNL     1       2.228   2.035   2.201  0.00  0.00    -0.452 OA
ATOM      9  C   UNL     1       3.592   2.191   1.767  0.00  0.00    +0.466 C 
ATOM     10  O   UNL     1       3.500   2.151   0.331  0.00  0.00    -0.453 OA
ENDBRANCH   1   7
BRANCH   1  11
ATOM     11  C   UNL     1      -2.325   0.001   0.130  0.00  0.00    +0.152 A 
ATOM     12  C   UNL     1      -2.302   1.386   0.135  0.00  0.00    +0.086 A 
ATOM     13  C   UNL     1      -3.483   2.098   0.257  0.00  0.00    +0.127 A 
ATOM     14  C   UNL     1      -4.689   1.428   0.374  0.00  0.00    +0.040 A 
ATOM     15  C   UNL     1      -4.719   0.046   0.370  0.00  0.00    +0.029 A 
ATOM     16  C   UNL     1      -3.540  -0.673   0.242  0.00  0.00    +0.068 A 
ATOM     17  F   UNL     1      -3.459   3.449   0.263  0.00  0.00    -0.205 F 
BRANCH  16  18
ATOM     18  N   UNL     1      -3.569  -2.073   0.231  0.00  0.00    -0.355 N 
ATOM     19  H   UNL     1      -2.743  -2.575   0.145  0.00  0.00    +0.142 HD
ATOM     20  H   UNL     1      -4.415  -2.541   0.309  0.00  0.00    +0.142 HD
ENDBRANCH  16  18
ENDBRANCH   1  11
TORSDOF 3
