REMARK  Name = ZINC39657667
REMARK  9 active torsions:
REMARK  status: ('A' for Active; 'I' for Inactive)
REMARK    1  A    between atoms: C_1  and  C_2
REMARK    2  A    between atoms: C_5  and  C_8
REMARK    3  A    between atoms: C_12  and  C_21
REMARK    4  A    between atoms: N_23  and  C_24
REMARK    5  A    between atoms: C_24  and  C_25
REMARK    6  A    between atoms: C_30  and  S_31
REMARK    7  A    between atoms: S_31  and  C_32
REMARK    8  A    between atoms: C_37  and  C_38
REMARK    9  A    between atoms: C_38  and  O_39
REMARK                            x       y       z     vdW  Elec       q    Type
REMARK                         _______ _______ _______ _____ _____    ______ ____
ROOT
ATOM      1  C   UNL     1      -0.063  -3.701  -0.024  0.00  0.00    +0.247 C 
ATOM      2  O   UNL     1       0.013  -4.310  -1.073  0.00  0.00    -0.270 OA
ATOM      3  N   UNL     1       0.012  -4.364   1.148  0.00  0.00    -0.296 N 
ATOM      4  C   UNL     1      -0.184  -3.821   2.513  0.00  0.00    +0.121 C 
ATOM      5  C   UNL     1      -0.960  -4.925   3.264  0.00  0.00    +0.100 C 
ATOM      6  C   UNL     1      -0.632  -6.222   2.505  0.00  0.00    -0.004 C 
ATOM      7  C   UNL     1       0.302  -5.802   1.361  0.00  0.00    +0.115 C 
ATOM      8  C   UNL     1       0.073  -7.210   3.429  0.00  0.00    -0.010 C 
ATOM      9  C   UNL     1       0.338  -8.513   2.668  0.00  0.00    -0.082 C 
ATOM     10  N   UNL     1      -0.935  -9.074   2.198  0.00  0.00    +0.379 N 
ATOM     11  C   UNL     1      -1.562  -8.157   1.238  0.00  0.00    -0.082 C 
ATOM     12  C   UNL     1      -1.907  -6.840   1.938  0.00  0.00    -0.010 C 
ATOM     13  H   UNL     1      -0.764  -9.962   1.750  0.00  0.00    -0.086 HD
ATOM     14  H   UNL     1      -1.552  -9.210   2.984  0.00  0.00    -0.086 HD
ENDROOT
BRANCH   1  19
ATOM     15  C   UNL     1      -0.742   2.013  -0.057  0.00  0.00    +0.044 C 
ATOM     16  C   UNL     1      -0.564   0.517  -0.048  0.00  0.00    -0.050 A 
ATOM     17  C   UNL     1      -0.779  -0.209  -1.206  0.00  0.00    +0.004 A 
ATOM     18  C   UNL     1      -0.618  -1.579  -1.205  0.00  0.00    +0.013 A 
ATOM     19  C   UNL     1      -0.237  -2.233  -0.032  0.00  0.00    +0.037 A 
ATOM     20  C   UNL     1      -0.022  -1.494   1.133  0.00  0.00    +0.013 A 
ATOM     21  C   UNL     1      -0.181  -0.124   1.116  0.00  0.00    +0.004 A 
ENDBRANCH   1  19
BRANCH   5  22
ATOM     22  C   UNL     1      -2.441  -4.649   3.219  0.00  0.00    +0.218 C 
ATOM     23  O   UNL     1      -2.909  -4.001   2.306  0.00  0.00    -0.275 OA
ATOM     24  N   UNL     1      -3.245  -5.121   4.192  0.00  0.00    -0.311 N 
ATOM     25  H   UNL     1      -2.863  -5.576   4.959  0.00  0.00    +0.149 HD
BRANCH  24  26
ATOM     26  C   UNL     1      -4.696  -4.948   4.092  0.00  0.00    +0.140 C 
BRANCH  26  27
ATOM     27  C   UNL     1      -5.350  -5.451   5.353  0.00  0.00    -0.017 A 
ATOM     28  C   UNL     1      -5.976  -6.682   5.363  0.00  0.00    +0.006 A 
ATOM     29  C   UNL     1      -6.577  -7.144   6.520  0.00  0.00    +0.000 A 
ATOM     30  C   UNL     1      -6.553  -6.376   7.670  0.00  0.00    +0.001 A 
ATOM     31  C   UNL     1      -5.929  -5.145   7.667  0.00  0.00    +0.015 A 
ATOM     32  C   UNL     1      -5.319  -4.679   6.508  0.00  0.00    +0.017 A 
BRANCH  32  33
ATOM     33  S   UNL     1      -4.516  -3.111   6.502  0.00  0.00    -0.089 S 
BRANCH  33  34
ATOM     34  C   UNL     1      -5.660  -2.049   5.687  0.00  0.00    +0.018 A 
ATOM     35  C   UNL     1      -6.922  -2.519   5.340  0.00  0.00    +0.015 A 
ATOM     36  C   UNL     1      -7.816  -1.683   4.701  0.00  0.00    +0.001 A 
ATOM     37  C   UNL     1      -7.459  -0.380   4.407  0.00  0.00    +0.000 A 
ATOM     38  C   UNL     1      -6.205   0.091   4.751  0.00  0.00    +0.007 A 
ATOM     39  C   UNL     1      -5.307  -0.737   5.395  0.00  0.00    -0.008 A 
BRANCH  39  40
ATOM     40  C   UNL     1      -3.943  -0.221   5.776  0.00  0.00    +0.192 C 
BRANCH  40  41
ATOM     41  O   UNL     1      -3.861   1.174   5.477  0.00  0.00    -0.390 OA
ATOM     42  H   UNL     1      -2.986   1.558   5.625  0.00  0.00    +0.210 HD
ENDBRANCH  40  41
ENDBRANCH  39  40
ENDBRANCH  33  34
ENDBRANCH  32  33
ENDBRANCH  26  27
ENDBRANCH  24  26
ENDBRANCH   5  22
TORSDOF 8
