REMARK  Name = ZINC08546872
REMARK  6 active torsions:
REMARK  status: ('A' for Active; 'I' for Inactive)
REMARK    1  A    between atoms: C_1  and  C_2
REMARK    2  A    between atoms: C_8  and  N_10
REMARK    3  A    between atoms: C_11  and  C_13
REMARK    4  A    between atoms: C_13  and  O_14
REMARK    5  A    between atoms: O_14  and  C_15
REMARK    6  A    between atoms: C_15  and  C_17
REMARK                            x       y       z     vdW  Elec       q    Type
REMARK                         _______ _______ _______ _____ _____    ______ ____
ROOT
ATOM      1  O   UNL     1       3.590   3.929  -0.010  0.00  0.00    -0.452 OA
ENDROOT
BRANCH   1   2
ATOM      2  C   UNL     1       2.414   4.587   0.004  0.00  0.00    +0.340 C 
ATOM      3  O   UNL     1       2.398   5.802   0.011  0.00  0.00    -0.245 OA
BRANCH   2   4
ATOM      4  C   UNL     1       1.147   3.832   0.012  0.00  0.00    +0.064 A 
ATOM      5  C   UNL     1      -0.073   4.513   0.027  0.00  0.00    +0.064 A 
ATOM      6  C   UNL     1      -1.258   3.803   0.035  0.00  0.00    +0.168 A 
ATOM      7  C   UNL     1      -1.235   2.408   0.021  0.00  0.00    +0.184 A 
ATOM      8  C   UNL     1      -0.021   1.732   0.012  0.00  0.00    +0.087 A 
ATOM      9  C   UNL     1       1.164   2.435   0.004  0.00  0.00    +0.039 A 
ATOM     10 CL   UNL     1       0.002  -0.004   0.002  0.00  0.00    -0.080 Cl
ATOM     11  O   UNL     1      -2.520   1.952   0.036  0.00  0.00    -0.451 OA
ATOM     12  C   UNL     1      -3.322   3.068   0.463  0.00  0.00    +0.466 C 
ATOM     13  O   UNL     1      -2.559   4.217   0.050  0.00  0.00    -0.453 OA
ENDBRANCH   2   4
ENDBRANCH   1   2
BRANCH   1  14
ATOM     14  C   UNL     1       4.797   4.737  -0.017  0.00  0.00    +0.328 C 
BRANCH  14  16
ATOM     15  N   UNL     1       7.243   4.367  -0.042  0.00  0.00    -0.309 N 
ATOM     16  C   UNL     1       6.005   3.835  -0.033  0.00  0.00    +0.251 C 
ATOM     17  O   UNL     1       5.862   2.630  -0.038  0.00  0.00    -0.272 OA
ATOM     18  H   UNL     1       7.357   5.330  -0.038  0.00  0.00    +0.149 HD
BRANCH  15  25
ATOM     19  C   UNL     1       9.293   4.627   1.988  0.00  0.00    +0.009 C 
ATOM     20  C   UNL     1       9.613   4.229   0.545  0.00  0.00    +0.006 C 
ATOM     21  C   UNL     1       9.904   5.486  -0.278  0.00  0.00    +0.005 C 
ATOM     22  C   UNL     1      10.224   5.088  -1.720  0.00  0.00    +0.000 C 
ATOM     23  C   UNL     1       9.028   4.348  -2.323  0.00  0.00    +0.002 C 
ATOM     24  C   UNL     1       8.737   3.092  -1.500  0.00  0.00    +0.022 C 
ATOM     25  C   UNL     1       8.417   3.490  -0.057  0.00  0.00    +0.076 C 
ENDBRANCH  15  25
ENDBRANCH  14  16
ENDBRANCH   1  14
TORSDOF 5
