REMARK  Name = ZINC44173707
REMARK  11 active torsions:
REMARK  status: ('A' for Active; 'I' for Inactive)
REMARK    1  A    between atoms: C_1  and  C_2
REMARK    2  A    between atoms: C_2  and  C_3
REMARK    3  A    between atoms: C_2  and  C_4
REMARK    4  A    between atoms: C_2  and  N_5
REMARK    5  A    between atoms: C_10  and  C_29
REMARK    6  A    between atoms: C_13  and  C_18
REMARK    7  A    between atoms: C_13  and  C_26
REMARK    8  A    between atoms: C_18  and  C_19
REMARK    9  A    between atoms: C_22  and  O_25
REMARK   10  A    between atoms: C_32  and  C_35
REMARK   11  A    between atoms: C_36  and  C_37
REMARK                            x       y       z     vdW  Elec       q    Type
REMARK                         _______ _______ _______ _____ _____    ______ ____
ROOT
ATOM      1  N   UNL     1       1.337  -0.591  -1.028  0.00  0.00    -0.236 N 
ATOM      2  C   UNL     1       0.547  -1.124  -2.017  0.00  0.00    +0.225 C 
ATOM      3  O   UNL     1      -0.658  -1.252  -2.013  0.00  0.00    -0.275 OA
ATOM      4  C   UNL     1       1.468  -1.499  -3.061  0.00  0.00    +0.077 C 
ATOM      5  C   UNL     1       1.494  -1.786  -4.506  0.00  0.00    -0.027 C 
ATOM      6  N   UNL     1       2.970  -1.847  -4.788  0.00  0.00    +0.396 N 
ATOM      7  C   UNL     1       3.671  -1.070  -3.724  0.00  0.00    +0.052 C 
ATOM      8  C   UNL     1       2.551  -0.352  -2.956  0.00  0.00    +0.086 C 
ATOM      9  C   UNL     1       2.607  -0.325  -1.453  0.00  0.00    +0.225 C 
ATOM     10  O   UNL     1       3.580  -0.112  -0.763  0.00  0.00    -0.275 OA
ATOM     11  H   UNL     1       3.281  -2.807  -4.772  0.00  0.00    -0.083 HD
ATOM     12  H   UNL     1       3.162  -1.440  -5.691  0.00  0.00    -0.083 HD
ENDROOT
BRANCH   5  13
ATOM     13  C   UNL     1       0.833  -3.108  -4.803  0.00  0.00    -0.061 A 
ATOM     14  C   UNL     1       1.470  -4.288  -4.461  0.00  0.00    +0.002 A 
ATOM     15  C   UNL     1       0.871  -5.501  -4.730  0.00  0.00    +0.008 A 
ATOM     16  C   UNL     1      -0.381  -5.536  -5.349  0.00  0.00    -0.025 A 
ATOM     17  C   UNL     1      -1.018  -4.341  -5.691  0.00  0.00    +0.008 A 
ATOM     18  C   UNL     1      -0.409  -3.135  -5.412  0.00  0.00    +0.002 A 
BRANCH  16  19
ATOM     19  C   UNL     1      -1.027  -6.829  -5.640  0.00  0.00    +0.008 C 
ATOM     20  C   UNL     1      -2.230  -6.859  -6.234  0.00  0.00    +0.008 C 
BRANCH  20  21
ATOM     21  C   UNL     1      -2.876  -8.152  -6.525  0.00  0.00    -0.025 A 
ATOM     22  C   UNL     1      -2.242  -9.347  -6.178  0.00  0.00    +0.008 A 
ATOM     23  C   UNL     1      -2.853 -10.553  -6.453  0.00  0.00    +0.001 A 
ATOM     24  C   UNL     1      -4.090 -10.580  -7.071  0.00  0.00    +0.000 A 
ATOM     25  C   UNL     1      -4.724  -9.400  -7.418  0.00  0.00    +0.001 A 
ATOM     26  C   UNL     1      -4.128  -8.187  -7.144  0.00  0.00    +0.008 A 
ENDBRANCH  20  21
ENDBRANCH  16  19
ENDBRANCH   5  13
BRANCH   1  28
ATOM     27  C   UNL     1       0.997   1.163   0.642  0.00  0.00    +0.031 C 
ATOM     28  C   UNL     1       0.865  -0.330   0.334  0.00  0.00    +0.036 C 
ATOM     29  C   UNL     1       1.708  -1.132   1.328  0.00  0.00    +0.031 C 
ATOM     30  C   UNL     1      -0.602  -0.748   0.455  0.00  0.00    +0.031 C 
ENDBRANCH   1  28
BRANCH   7  31
ATOM     31  C   UNL     1       4.596  -0.054  -4.343  0.00  0.00    +0.347 C 
ATOM     32  O   UNL     1       4.701   0.015  -5.556  0.00  0.00    -0.248 OA
ATOM     33  O   UNL     1       5.240   0.698  -3.631  0.00  0.00    -0.248 OA
ENDBRANCH   7  31
BRANCH   7  34
ATOM     34  C   UNL     1       4.455  -2.013  -2.808  0.00  0.00    +0.035 C 
BRANCH  34  35
ATOM     35  C   UNL     1       5.545  -2.690  -3.599  0.00  0.00    -0.048 A 
ATOM     36  C   UNL     1       5.324  -3.939  -4.150  0.00  0.00    +0.007 A 
ATOM     37  C   UNL     1       6.321  -4.562  -4.875  0.00  0.00    +0.045 A 
ATOM     38  C   UNL     1       7.545  -3.933  -5.051  0.00  0.00    +0.117 A 
ATOM     39  C   UNL     1       7.764  -2.680  -4.498  0.00  0.00    +0.045 A 
ATOM     40  C   UNL     1       6.762  -2.059  -3.778  0.00  0.00    +0.007 A 
BRANCH  38  41
ATOM     41  O   UNL     1       8.528  -4.544  -5.763  0.00  0.00    -0.507 OA
ATOM     42  H   UNL     1       8.512  -4.342  -6.709  0.00  0.00    +0.292 HD
ENDBRANCH  38  41
ENDBRANCH  34  35
ENDBRANCH   7  34
TORSDOF 8
