REMARK  Name = ZINC40307515
REMARK  8 active torsions:
REMARK  status: ('A' for Active; 'I' for Inactive)
REMARK    1  A    between atoms: C_1  and  C_2
REMARK    2  A    between atoms: C_2  and  C_3
REMARK    3  A    between atoms: C_3  and  N_4
REMARK    4  A    between atoms: C_6  and  N_11
REMARK    5  A    between atoms: C_12  and  C_14
REMARK    6  A    between atoms: C_16  and  N_21
REMARK    7  A    between atoms: N_18  and  C_19
REMARK    8  A    between atoms: C_19  and  C_20
REMARK                            x       y       z     vdW  Elec       q    Type
REMARK                         _______ _______ _______ _____ _____    ______ ____
ROOT
ATOM      1  N   UNL     1      -1.026  -4.693  -2.426  0.00  0.00    -0.279 N 
ATOM      2  C   UNL     1      -1.019  -6.040  -2.464  0.00  0.00    +0.265 C 
ATOM      3  O   UNL     1      -0.990  -6.678  -1.428  0.00  0.00    -0.268 OA
ATOM      4  H   UNL     1      -1.119  -4.184  -3.247  0.00  0.00    +0.155 HD
ENDROOT
BRANCH   1   7
ATOM      5  N   UNL     1      -0.639  -2.017   0.016  0.00  0.00    -0.313 N 
ATOM      6  C   UNL     1      -0.761  -2.674  -1.168  0.00  0.00    +0.112 A 
ATOM      7  C   UNL     1      -0.900  -4.025  -1.198  0.00  0.00    +0.050 A 
ATOM      8  C   UNL     1      -0.918  -4.753   0.005  0.00  0.00    +0.030 A 
ATOM      9  C   UNL     1      -0.795  -4.087   1.189  0.00  0.00    +0.072 A 
ATOM     10  C   UNL     1      -0.647  -2.690   1.182  0.00  0.00    +0.251 A 
ATOM     11  O   UNL     1      -0.531  -2.084   2.236  0.00  0.00    -0.268 OA
BRANCH   5  12
ATOM     12  C   UNL     1      -0.490  -0.559   0.023  0.00  0.00    +0.124 C 
BRANCH  12  14
ATOM     13  C   UNL     1       1.150   1.325  -0.041  0.00  0.00    +0.005 C 
ATOM     14  C   UNL     1       0.995  -0.198  -0.049  0.00  0.00    +0.018 C 
ENDBRANCH  12  14
ENDBRANCH   5  12
ENDBRANCH   1   7
BRANCH   2  15
ATOM     15  C   UNL     1      -1.046  -6.736  -3.754  0.00  0.00    +0.106 A 
ATOM     16  C   UNL     1      -1.064  -8.103  -3.941  0.00  0.00    +0.055 A 
ATOM     17  C   UNL     1      -1.087  -8.330  -5.324  0.00  0.00    +0.043 A 
ATOM     18  C   UNL     1      -1.083  -7.121  -5.944  0.00  0.00    +0.109 A 
ATOM     19  N   UNL     1      -1.063  -6.145  -4.996  0.00  0.00    -0.342 N 
BRANCH  17  20
ATOM     20  N   UNL     1      -1.111  -9.586  -5.958  0.00  0.00    -0.357 N 
ATOM     21  H   UNL     1      -1.113 -10.398  -5.427  0.00  0.00    +0.142 HD
ATOM     22  H   UNL     1      -1.126  -9.641  -6.927  0.00  0.00    +0.142 HD
ENDBRANCH  17  20
BRANCH  19  23
ATOM     23  C   UNL     1      -1.056  -4.703  -5.256  0.00  0.00    +0.118 C 
ATOM     24  C   UNL     1       0.341  -4.142  -4.985  0.00  0.00    +0.027 C 
ENDBRANCH  19  23
ENDBRANCH   2  15
TORSDOF 6
