REMARK  Name = ZINC15163268
REMARK  5 active torsions:
REMARK  status: ('A' for Active; 'I' for Inactive)
REMARK    1  A    between atoms: C_1  and  C_2
REMARK    2  A    between atoms: C_15  and  C_18
REMARK    3  A    between atoms: C_21  and  N_24
REMARK    4  A    between atoms: C_25  and  C_26
REMARK    5  A    between atoms: C_29  and  N_32
REMARK                            x       y       z     vdW  Elec       q    Type
REMARK                         _______ _______ _______ _____ _____    ______ ____
ROOT
ATOM      1  C   UNL     1      -1.460  -5.389   1.436  0.00  0.00    -0.027 A 
ATOM      2  C   UNL     1      -2.482  -4.463   1.320  0.00  0.00    +0.007 A 
ATOM      3  C   UNL     1      -3.788  -4.840   1.558  0.00  0.00    +0.028 A 
ATOM      4  C   UNL     1      -4.077  -6.159   1.915  0.00  0.00    +0.064 A 
ATOM      5  C   UNL     1      -3.040  -7.088   2.030  0.00  0.00    +0.028 A 
ATOM      6  C   UNL     1      -1.739  -6.698   1.784  0.00  0.00    +0.007 A 
ENDROOT
BRANCH   1  19
ATOM      7  C   UNL     1      -0.018   1.503   0.010  0.00  0.00    +0.044 C 
ATOM      8  C   UNL     1       0.002  -0.004   0.002  0.00  0.00    -0.050 A 
ATOM      9  C   UNL     1       0.006  -0.687  -1.201  0.00  0.00    +0.005 A 
ATOM     10  C   UNL     1       0.017  -2.067  -1.205  0.00  0.00    +0.023 A 
ATOM     11  C   UNL     1       0.028  -2.769  -0.004  0.00  0.00    +0.031 A 
ATOM     12  C   UNL     1       0.038  -2.086   1.202  0.00  0.00    -0.019 A 
ATOM     13  C   UNL     1       0.023  -0.699   1.194  0.00  0.00    +0.009 A 
ATOM     14  C   UNL     1       0.089  -2.803   2.509  0.00  0.00    +0.049 C 
ATOM     15  C   UNL     1      -1.249  -2.816   3.203  0.00  0.00    -0.023 C 
ATOM     16  C   UNL     1      -1.422  -3.951   3.832  0.00  0.00    -0.030 C 
ATOM     17  C   UNL     1      -0.228  -4.860   3.644  0.00  0.00    +0.033 C 
ATOM     18  C   UNL     1       0.494  -4.272   2.410  0.00  0.00    +0.029 C 
ATOM     19  C   UNL     1      -0.036  -4.970   1.174  0.00  0.00    +0.105 C 
ATOM     20  N   UNL     1       0.021  -4.159  -0.024  0.00  0.00    -0.336 N 
ATOM     21  H   UNL     1       0.031  -4.607  -0.884  0.00  0.00    +0.147 HD
ENDBRANCH   1  19
BRANCH   4  22
ATOM     22  N   UNL     1      -5.370  -6.540   2.153  0.00  0.00    -0.255 NA
ATOM     23  C   UNL     1      -5.823  -7.653   1.652  0.00  0.00    +0.119 C 
BRANCH  23  24
ATOM     24  C   UNL     1      -7.215  -8.062   1.908  0.00  0.00    -0.007 A 
ATOM     25  C   UNL     1      -8.053  -7.256   2.683  0.00  0.00    +0.011 A 
ATOM     26  C   UNL     1      -9.355  -7.646   2.918  0.00  0.00    +0.033 A 
ATOM     27  C   UNL     1      -9.832  -8.833   2.389  0.00  0.00    +0.126 A 
ATOM     28  C   UNL     1      -9.008  -9.636   1.621  0.00  0.00    +0.033 A 
ATOM     29  C   UNL     1      -7.705  -9.257   1.372  0.00  0.00    +0.011 A 
BRANCH  27  30
ATOM     30  N   UNL     1     -11.230  -9.244   2.646  0.00  0.00    +0.056 N 
ATOM     31  O   UNL     1     -11.952  -8.544   3.317  0.00  0.00    -0.126 OA
ATOM     32  O   UNL     1     -11.650 -10.280   2.185  0.00  0.00    -0.126 OA
ENDBRANCH  27  30
ENDBRANCH  23  24
ENDBRANCH   4  22
TORSDOF 4
