REMARK  Name = ZINC28012883
REMARK  9 active torsions:
REMARK  status: ('A' for Active; 'I' for Inactive)
REMARK    1  A    between atoms: C_1  and  C_2
REMARK    2  A    between atoms: C_2  and  O_3
REMARK    3  A    between atoms: O_3  and  P_4
REMARK    4  A    between atoms: P_4  and  C_6
REMARK    5  A    between atoms: P_4  and  N_19
REMARK    6  A    between atoms: C_9  and  O_12
REMARK    7  A    between atoms: O_12  and  C_13
REMARK    8  A    between atoms: C_28  and  C_30
REMARK    9  A    between atoms: N_32  and  O_33
REMARK                            x       y       z     vdW  Elec       q    Type
REMARK                         _______ _______ _______ _____ _____    ______ ____
ROOT
ATOM      1  P   UNL     1       2.201   5.755  -1.294  0.00  0.00    +0.206 P 
ATOM      2  O   UNL     1       3.615   5.882  -0.874  0.00  0.00    -0.305 OA
ENDROOT
BRANCH   1   3
ATOM      3  N   UNL     1       1.408   4.676  -0.274  0.00  0.00    +0.436 N 
ATOM      4  C   UNL     1      -0.038   4.691  -0.515  0.00  0.00    -0.027 C 
ATOM      5  C   UNL     1      -0.725   3.653   0.334  0.00  0.00    -0.060 A 
ATOM      6  C   UNL     1      -2.095   3.759   0.526  0.00  0.00    +0.002 A 
ATOM      7  C   UNL     1      -2.766   2.826   1.290  0.00  0.00    +0.000 A 
ATOM      8  C   UNL     1      -2.070   1.780   1.868  0.00  0.00    +0.000 A 
ATOM      9  C   UNL     1      -0.707   1.675   1.679  0.00  0.00    +0.004 A 
ATOM     10  C   UNL     1      -0.031   2.612   0.913  0.00  0.00    -0.047 A 
ATOM     11  C   UNL     1       1.459   2.463   0.743  0.00  0.00    +0.030 C 
ATOM     12  C   UNL     1       1.938   3.312  -0.434  0.00  0.00    +0.040 C 
ATOM     13  H   UNL     1       1.502   4.881   0.803  0.00  0.00    -0.064 HD
BRANCH  12  14
ATOM     14  C   UNL     1       3.444   3.354  -0.454  0.00  0.00    +0.223 C 
ATOM     15  O   UNL     1       4.042   4.055   0.334  0.00  0.00    -0.275 OA
ATOM     16  N   UNL     1       4.127   2.611  -1.349  0.00  0.00    -0.199 N 
ATOM     17  H   UNL     1       3.584   1.975  -2.064  0.00  0.00    +0.182 HD
BRANCH  16  18
ATOM     18  O   UNL     1       5.542   2.650  -1.367  0.00  0.00    -0.295 OA
ATOM     19  H   UNL     1       6.099   2.044  -2.097  0.00  0.00    +0.241 HD
ENDBRANCH  16  18
ENDBRANCH  12  14
ENDBRANCH   1   3
BRANCH   1  20
ATOM     20  C   UNL     1       2.129   5.139  -2.999  0.00  0.00    +0.022 A 
ATOM     21  C   UNL     1       3.297   4.823  -3.668  0.00  0.00    +0.015 A 
ATOM     22  C   UNL     1       3.245   4.349  -4.965  0.00  0.00    +0.047 A 
ATOM     23  C   UNL     1       2.020   4.201  -5.599  0.00  0.00    +0.128 A 
ATOM     24  C   UNL     1       0.850   4.524  -4.927  0.00  0.00    +0.047 A 
ATOM     25  C   UNL     1       0.907   4.992  -3.628  0.00  0.00    +0.015 A 
BRANCH  23  26
ATOM     26  O   UNL     1       1.966   3.739  -6.876  0.00  0.00    -0.456 OA
BRANCH  26  27
ATOM     27  C   UNL     1       1.738   4.637  -7.869  0.00  0.00    +0.131 A 
ATOM     28  C   UNL     1       1.664   6.000  -7.595  0.00  0.00    +0.066 A 
ATOM     29  C   UNL     1       1.437   6.881  -8.633  0.00  0.00    +0.114 A 
ATOM     30  N   UNL     1       1.278   6.444  -9.868  0.00  0.00    -0.263 NA
ATOM     31  C   UNL     1       1.336   5.160 -10.166  0.00  0.00    +0.114 A 
ATOM     32  C   UNL     1       1.566   4.217  -9.185  0.00  0.00    +0.066 A 
ENDBRANCH  26  27
ENDBRANCH  23  26
ENDBRANCH   1  20
BRANCH   1  33
ATOM     33  O   UNL     1       1.485   7.195  -1.213  0.00  0.00    -0.336 OA
BRANCH  33  35
ATOM     34  C   UNL     1       0.920   9.474  -1.782  0.00  0.00    +0.034 C 
ATOM     35  C   UNL     1       1.879   8.306  -2.020  0.00  0.00    +0.163 C 
ENDBRANCH  33  35
ENDBRANCH   1  33
TORSDOF 8
