REMARK  Name = ZINC39016288
REMARK  5 active torsions:
REMARK  status: ('A' for Active; 'I' for Inactive)
REMARK    1  A    between atoms: C_3  and  O_25
REMARK    2  A    between atoms: C_4  and  O_24
REMARK    3  A    between atoms: C_6  and  C_7
REMARK    4  A    between atoms: N_8  and  N_9
REMARK    5  A    between atoms: C_10  and  C_16
REMARK                            x       y       z     vdW  Elec       q    Type
REMARK                         _______ _______ _______ _____ _____    ______ ____
ROOT
ATOM      1  N   UNL     1      -3.599  -0.842  -0.074  0.00  0.00    -0.172 N 
ATOM      2  C   UNL     1      -4.965  -0.299  -0.183  0.00  0.00    +0.265 C 
ATOM      3  N   UNL     1      -5.816  -1.497  -0.254  0.00  0.00    -0.189 NA
ATOM      4  N   UNL     1      -5.086  -2.489  -0.197  0.00  0.00    -0.219 N 
ATOM      5  C   UNL     1      -3.764  -2.183  -0.096  0.00  0.00    +0.174 C 
ATOM      6  S   UNL     1      -2.496  -3.329  -0.006  0.00  0.00    -0.015 S 
ATOM      7  H   UNL     1      -5.421  -3.399  -0.225  0.00  0.00    +0.176 HD
ENDROOT
BRANCH   2   8
ATOM      8  C   UNL     1      -5.306   0.524   1.033  0.00  0.00    +0.016 A 
ATOM      9  C   UNL     1      -4.298   1.115   1.772  0.00  0.00    +0.010 A 
ATOM     10  C   UNL     1      -4.609   1.870   2.887  0.00  0.00    +0.020 A 
ATOM     11  C   UNL     1      -5.931   2.035   3.264  0.00  0.00    +0.042 A 
ATOM     12  C   UNL     1      -6.939   1.445   2.525  0.00  0.00    +0.040 A 
ATOM     13  C   UNL     1      -6.627   0.694   1.406  0.00  0.00    +0.049 A 
ATOM     14 CL   UNL     1      -7.893  -0.043   0.473  0.00  0.00    -0.083 Cl
ATOM     15 CL   UNL     1      -6.322   2.983   4.665  0.00  0.00    -0.083 Cl
ENDBRANCH   2   8
BRANCH   1  17
ATOM     16  C   UNL     1      -1.280  -0.760   0.221  0.00  0.00    +0.138 C 
ATOM     17  N   UNL     1      -2.397  -0.128   0.024  0.00  0.00    -0.183 NA
BRANCH  16  23
ATOM     18  C   UNL     1       0.004   1.360   0.008  0.00  0.00    +0.013 A 
ATOM     19  C   UNL     1       1.198   2.049   0.008  0.00  0.00    +0.050 A 
ATOM     20  C   UNL     1       2.392   1.375   0.218  0.00  0.00    +0.158 A 
ATOM     21  C   UNL     1       2.391  -0.002   0.430  0.00  0.00    +0.159 A 
ATOM     22  C   UNL     1       1.199  -0.700   0.431  0.00  0.00    +0.058 A 
ATOM     23  C   UNL     1      -0.005  -0.021   0.220  0.00  0.00    -0.002 A 
BRANCH  21  24
ATOM     24  O   UNL     1       3.564  -0.660   0.634  0.00  0.00    -0.503 OA
ATOM     25  H   UNL     1       3.826  -0.716   1.563  0.00  0.00    +0.292 HD
ENDBRANCH  21  24
BRANCH  20  26
ATOM     26  O   UNL     1       3.567   2.060   0.216  0.00  0.00    -0.503 OA
ATOM     27  H   UNL     1       3.830   2.392   1.085  0.00  0.00    +0.292 HD
ENDBRANCH  20  26
ENDBRANCH  16  23
ENDBRANCH   1  17
TORSDOF 5
