REMARK  Name = ZINC21319664
REMARK  8 active torsions:
REMARK  status: ('A' for Active; 'I' for Inactive)
REMARK    1  A    between atoms: C_1  and  O_2
REMARK    2  A    between atoms: O_2  and  C_3
REMARK    3  A    between atoms: C_8  and  C_9
REMARK    4  A    between atoms: N_10  and  N_11
REMARK    5  A    between atoms: C_15  and  S_18
REMARK    6  A    between atoms: N_16  and  N_17
REMARK    7  A    between atoms: S_18  and  C_19
REMARK    8  A    between atoms: C_19  and  C_20
REMARK                            x       y       z     vdW  Elec       q    Type
REMARK                         _______ _______ _______ _____ _____    ______ ____
ROOT
ATOM      1  N   UNL     1      -1.438   7.183   2.415  0.00  0.00    -0.204 N 
ATOM      2  C   UNL     1      -1.074   5.997   1.795  0.00  0.00    +0.254 A 
ATOM      3  N   UNL     1      -0.431   5.887   0.658  0.00  0.00    -0.109 NA
ATOM      4  N   UNL     1      -0.263   4.523   0.386  0.00  0.00    -0.119 NA
ATOM      5  C   UNL     1      -0.809   3.844   1.366  0.00  0.00    +0.210 A 
ATOM      6  N   UNL     1      -1.329   4.736   2.260  0.00  0.00    -0.211 N 
ATOM      7  H   UNL     1      -1.978   7.160   3.373  0.00  0.00    +0.177 HD
ENDROOT
BRANCH   6   8
ATOM      8  N   UNL     1      -1.986   4.425   3.416  0.00  0.00    -0.294 N 
ATOM      9  H   UNL     1      -2.137   3.372   3.696  0.00  0.00    +0.163 HD
ATOM     10  H   UNL     1      -2.364   5.226   4.067  0.00  0.00    +0.163 HD
ENDBRANCH   6   8
BRANCH   1  12
ATOM     11  C   UNL     1      -1.456   9.522   2.401  0.00  0.00    +0.142 C 
ATOM     12  N   UNL     1      -1.116   8.411   1.821  0.00  0.00    -0.187 NA
BRANCH  11  18
ATOM     13  C   UNL     1      -0.430  10.847   0.556  0.00  0.00    +0.129 A 
ATOM     14  C   UNL     1      -0.118  12.065  -0.023  0.00  0.00    +0.046 A 
ATOM     15  C   UNL     1      -0.484  13.243   0.601  0.00  0.00    +0.004 A 
ATOM     16  C   UNL     1      -1.164  13.215   1.807  0.00  0.00    +0.001 A 
ATOM     17  C   UNL     1      -1.487  12.010   2.394  0.00  0.00    +0.013 A 
ATOM     18  C   UNL     1      -1.118  10.813   1.776  0.00  0.00    +0.036 A 
BRANCH  13  20
ATOM     19  C   UNL     1       0.628   9.801  -1.298  0.00  0.00    +0.277 C 
ATOM     20  O   UNL     1      -0.070   9.689  -0.056  0.00  0.00    -0.494 OA
ENDBRANCH  13  20
ENDBRANCH  11  18
ENDBRANCH   1  12
BRANCH   5  21
ATOM     21  S   UNL     1      -0.867   2.088   1.503  0.00  0.00    -0.080 S 
BRANCH  21  22
ATOM     22  C   UNL     1      -0.018   1.503   0.010  0.00  0.00    +0.112 C 
BRANCH  22  23
ATOM     23  C   UNL     1       0.002  -0.004   0.002  0.00  0.00    -0.037 A 
ATOM     24  C   UNL     1       1.057  -0.684   0.582  0.00  0.00    +0.007 A 
ATOM     25  C   UNL     1       1.074  -2.066   0.579  0.00  0.00    +0.038 A 
ATOM     26  C   UNL     1       0.040  -2.769  -0.014  0.00  0.00    +0.123 A 
ATOM     27  C   UNL     1      -1.013  -2.087  -0.599  0.00  0.00    +0.038 A 
ATOM     28  C   UNL     1      -1.031  -0.706  -0.591  0.00  0.00    +0.007 A 
ATOM     29  F   UNL     1       0.058  -4.120  -0.021  0.00  0.00    -0.205 F 
ENDBRANCH  22  23
ENDBRANCH  21  22
ENDBRANCH   5  21
TORSDOF 7
