REMARK  Name = ZINC51689717
REMARK  6 active torsions:
REMARK  status: ('A' for Active; 'I' for Inactive)
REMARK    1  A    between atoms: C_1  and  C_2
REMARK    2  A    between atoms: N_5  and  C_11
REMARK    3  A    between atoms: C_7  and  C_10
REMARK    4  A    between atoms: C_14  and  C_18
REMARK    5  A    between atoms: C_18  and  N_19
REMARK    6  A    between atoms: C_26  and  C_29
REMARK                            x       y       z     vdW  Elec       q    Type
REMARK                         _______ _______ _______ _____ _____    ______ ____
ROOT
ATOM      1  C   UNL     1      -4.248  -5.460  -3.271  0.00  0.00    +0.141 C 
ENDROOT
BRANCH   1   2
ATOM      2  N   UNL     1      -4.029  -6.850  -2.861  0.00  0.00    -0.295 N 
ATOM      3  C   UNL     1      -4.617  -7.853  -3.542  0.00  0.00    +0.303 C 
ATOM      4  O   UNL     1      -5.400  -7.604  -4.438  0.00  0.00    -0.253 OA
ATOM      5  N   UNL     1      -4.337  -9.134  -3.229  0.00  0.00    -0.281 N 
ATOM      6  C   UNL     1      -3.488  -9.464  -2.074  0.00  0.00    +0.137 C 
ATOM      7  C   UNL     1      -4.215 -10.510  -1.222  0.00  0.00    +0.180 C 
ATOM      8  O   UNL     1      -4.607 -11.604  -2.054  0.00  0.00    -0.364 OA
ATOM      9  C   UNL     1      -5.532 -11.253  -3.086  0.00  0.00    +0.221 C 
ATOM     10  C   UNL     1      -4.877 -10.245  -4.030  0.00  0.00    +0.150 C 
ATOM     11  H   UNL     1      -3.460  -7.047  -2.101  0.00  0.00    +0.151 HD
BRANCH   9  12
ATOM     12  C   UNL     1      -5.921 -12.489  -3.856  0.00  0.00    +0.241 C 
ATOM     13  O   UNL     1      -5.385 -13.549  -3.611  0.00  0.00    -0.273 OA
ATOM     14  N   UNL     1      -6.864 -12.416  -4.816  0.00  0.00    -0.327 N 
ATOM     15  H   UNL     1      -7.293 -11.568  -5.011  0.00  0.00    +0.145 HD
ATOM     16  H   UNL     1      -7.114 -13.211  -5.311  0.00  0.00    +0.145 HD
ENDBRANCH   9  12
ENDBRANCH   1   2
BRANCH   1  20
ATOM     17  C   UNL     1      -2.080  -2.849  -0.671  0.00  0.00    +0.066 A 
ATOM     18  C   UNL     1      -1.481  -3.339  -1.823  0.00  0.00    +0.026 A 
ATOM     19  C   UNL     1      -2.184  -4.183  -2.661  0.00  0.00    +0.007 A 
ATOM     20  C   UNL     1      -3.484  -4.540  -2.354  0.00  0.00    -0.027 A 
ATOM     21  C   UNL     1      -4.086  -4.054  -1.207  0.00  0.00    +0.045 A 
ATOM     22  C   UNL     1      -3.386  -3.214  -0.361  0.00  0.00    +0.145 A 
ATOM     23  F   UNL     1      -3.971  -2.744   0.762  0.00  0.00    -0.204 F 
BRANCH  17  27
ATOM     24  C   UNL     1       0.002   1.525  -0.014  0.00  0.00    +0.039 C 
ATOM     25  C   UNL     1       0.021  -0.005  -0.021  0.00  0.00    +0.133 C 
ATOM     26  C   UNL     1      -1.417  -0.536  -0.002  0.00  0.00    +0.136 C 
ATOM     27  N   UNL     1      -1.370  -1.995   0.179  0.00  0.00    -0.323 N 
ATOM     28  C   UNL     1      -0.555  -2.530   1.282  0.00  0.00    +0.136 C 
ATOM     29  C   UNL     1       0.841  -1.902   1.200  0.00  0.00    +0.133 C 
ATOM     30  O   UNL     1       0.715  -0.479   1.135  0.00  0.00    -0.371 OA
ATOM     31  C   UNL     1       1.649  -2.289   2.440  0.00  0.00    +0.039 C 
ENDBRANCH  17  27
ENDBRANCH   1  20
TORSDOF 4
