REMARK  Name = ZINC65133520
REMARK  9 active torsions:
REMARK  status: ('A' for Active; 'I' for Inactive)
REMARK    1  A    between atoms: C_1  and  C_2
REMARK    2  A    between atoms: C_2  and  C_3
REMARK    3  A    between atoms: C_2  and  C_4
REMARK    4  A    between atoms: C_4  and  C_5
REMARK    5  A    between atoms: C_5  and  N_6
REMARK    6  A    between atoms: N_9  and  N_10
REMARK    7  A    between atoms: C_11  and  C_13
REMARK    8  A    between atoms: C_16  and  C_18
REMARK    9  A    between atoms: N_21  and  C_23
REMARK                            x       y       z     vdW  Elec       q    Type
REMARK                         _______ _______ _______ _____ _____    ______ ____
ROOT
ATOM      1  N   UNL     1      -5.360  -3.464  -0.087  0.00  0.00    -0.228 N 
ATOM      2  C   UNL     1      -6.624  -3.930  -0.077  0.00  0.00    +0.279 C 
ATOM      3  O   UNL     1      -6.832  -5.125  -0.174  0.00  0.00    -0.267 OA
ATOM      4  H   UNL     1      -5.194  -2.511  -0.010  0.00  0.00    +0.173 HD
ENDROOT
BRANCH   1   8
ATOM      5  N   UNL     1      -2.790  -2.565  -0.111  0.00  0.00    -0.298 N 
ATOM      6  C   UNL     1      -3.021  -3.888  -0.217  0.00  0.00    +0.316 C 
ATOM      7  O   UNL     1      -2.088  -4.662  -0.322  0.00  0.00    -0.251 OA
ATOM      8  N   UNL     1      -4.285  -4.355  -0.208  0.00  0.00    -0.218 N 
ATOM      9  H   UNL     1      -3.534  -1.948  -0.027  0.00  0.00    +0.150 HD
ATOM     10  H   UNL     1      -4.451  -5.307  -0.285  0.00  0.00    +0.174 HD
BRANCH   5  11
ATOM     11  C   UNL     1      -1.416  -2.058  -0.121  0.00  0.00    +0.106 C 
BRANCH  11  12
ATOM     12  C   UNL     1      -1.433  -0.534   0.013  0.00  0.00    +0.022 C 
BRANCH  12  14
ATOM     13  C   UNL     1      -0.019   1.526   0.010  0.00  0.00    +0.007 C 
ATOM     14  C   UNL     1       0.002  -0.004   0.002  0.00  0.00    -0.016 C 
ATOM     15  C   UNL     1       0.742  -0.511   1.242  0.00  0.00    +0.007 C 
ENDBRANCH  12  14
ENDBRANCH  11  12
ENDBRANCH   5  11
ENDBRANCH   1   8
BRANCH   2  16
ATOM     16  C   UNL     1      -7.754  -2.994   0.050  0.00  0.00    +0.135 A 
ATOM     17  C   UNL     1      -9.041  -3.458   0.065  0.00  0.00    +0.080 A 
ATOM     18  S   UNL     1      -9.937  -2.042   0.223  0.00  0.00    -0.075 S 
ATOM     19  C   UNL     1      -8.579  -0.885   0.263  0.00  0.00    +0.112 A 
ATOM     20  N   UNL     1      -7.537  -1.688   0.156  0.00  0.00    -0.234 NA
BRANCH  19  21
ATOM     21  C   UNL     1      -8.612   0.589   0.389  0.00  0.00    +0.045 A 
ATOM     22  C   UNL     1      -7.496   1.450   0.407  0.00  0.00    +0.145 A 
ATOM     23  N   UNL     1      -7.931   2.675   0.530  0.00  0.00    -0.179 NA
ATOM     24  N   UNL     1      -9.329   2.648   0.596  0.00  0.00    -0.274 N 
ATOM     25  C   UNL     1      -9.731   1.366   0.502  0.00  0.00    +0.118 A 
ATOM     26  C   UNL     1     -10.205   3.814   0.736  0.00  0.00    +0.172 C 
ENDBRANCH  19  21
ENDBRANCH   2  16
TORSDOF 6
