REMARK  Name = ZINC43216016
REMARK  9 active torsions:
REMARK  status: ('A' for Active; 'I' for Inactive)
REMARK    1  A    between atoms: C_1  and  C_2
REMARK    2  A    between atoms: C_2  and  C_3
REMARK    3  A    between atoms: C_2  and  C_4
REMARK    4  A    between atoms: C_4  and  C_6
REMARK    5  A    between atoms: C_4  and  N_26
REMARK    6  A    between atoms: C_8  and  C_11
REMARK    7  A    between atoms: N_13  and  C_14
REMARK    8  A    between atoms: C_14  and  C_15
REMARK    9  A    between atoms: C_17  and  C_22
REMARK                            x       y       z     vdW  Elec       q    Type
REMARK                         _______ _______ _______ _____ _____    ______ ____
ROOT
ATOM      1  C   UNL     1      -2.158  -0.772   5.292  0.00  0.00    +0.266 C 
ATOM      2  O   UNL     1      -2.582  -0.033   6.160  0.00  0.00    -0.268 OA
ATOM      3  N   UNL     1      -2.487  -2.079   5.300  0.00  0.00    -0.306 N 
ATOM      4  H   UNL     1      -2.149  -2.668   4.607  0.00  0.00    +0.149 HD
ENDROOT
BRANCH   1   7
ATOM      5  C   UNL     1      -0.030  -0.130   2.478  0.00  0.00    +0.182 A 
ATOM      6  N   UNL     1      -0.738  -0.942   3.204  0.00  0.00    -0.210 NA
ATOM      7  C   UNL     1      -1.284  -0.238   4.232  0.00  0.00    +0.163 A 
ATOM      8  C   UNL     1      -0.871   1.052   4.098  0.00  0.00    +0.230 A 
ATOM      9  O   UNL     1      -0.089   1.101   3.007  0.00  0.00    -0.449 OA
BRANCH   5  10
ATOM     10  C   UNL     1       0.742  -0.511   1.242  0.00  0.00    +0.015 C 
BRANCH  10  11
ATOM     11  N   UNL     1       2.080   0.093   1.294  0.00  0.00    +0.386 N 
ATOM     12  H   UNL     1       1.995   1.097   1.341  0.00  0.00    -0.089 HD
ATOM     13  H   UNL     1       2.568  -0.241   2.111  0.00  0.00    -0.089 HD
ATOM     14  H   UNL     1       2.597  -0.163   0.466  0.00  0.00    -0.089 HD
ENDBRANCH  10  11
BRANCH  10  16
ATOM     15  C   UNL     1      -0.019   1.526   0.010  0.00  0.00    +0.006 C 
ATOM     16  C   UNL     1       0.002  -0.004   0.002  0.00  0.00    -0.023 C 
ATOM     17  C   UNL     1       0.718  -0.497  -1.257  0.00  0.00    +0.006 C 
ENDBRANCH  10  16
ENDBRANCH   5  10
ENDBRANCH   1   7
BRANCH   3  18
ATOM     18  C   UNL     1      -3.356  -2.610   6.353  0.00  0.00    +0.140 C 
BRANCH  18  19
ATOM     19  C   UNL     1      -3.568  -4.085   6.134  0.00  0.00    -0.027 A 
ATOM     20  C   UNL     1      -4.624  -4.523   5.355  0.00  0.00    +0.017 A 
ATOM     21  C   UNL     1      -4.820  -5.877   5.153  0.00  0.00    +0.058 A 
ATOM     22  C   UNL     1      -3.961  -6.794   5.729  0.00  0.00    +0.050 A 
ATOM     23  C   UNL     1      -2.904  -6.356   6.508  0.00  0.00    +0.124 A 
ATOM     24  C   UNL     1      -2.705  -5.000   6.705  0.00  0.00    +0.043 A 
ATOM     25  F   UNL     1      -2.064  -7.251   7.072  0.00  0.00    -0.205 F 
BRANCH  21  26
ATOM     26  C   UNL     1      -5.971  -6.353   4.304  0.00  0.00    +0.418 C 
ATOM     27  F   UNL     1      -5.558  -6.451   2.971  0.00  0.00    -0.166 F 
ATOM     28  F   UNL     1      -6.395  -7.607   4.755  0.00  0.00    -0.166 F 
ATOM     29  F   UNL     1      -7.028  -5.441   4.399  0.00  0.00    -0.166 F 
ENDBRANCH  21  26
ENDBRANCH  18  19
ENDBRANCH   3  18
TORSDOF 7
