REMARK  Name = ZINC35092927
REMARK  10 active torsions:
REMARK  status: ('A' for Active; 'I' for Inactive)
REMARK    1  A    between atoms: C_1  and  O_2
REMARK    2  A    between atoms: O_2  and  C_3
REMARK    3  A    between atoms: C_6  and  C_9
REMARK    4  A    between atoms: C_9  and  C_11
REMARK    5  A    between atoms: C_13  and  C_25
REMARK    6  A    between atoms: C_19  and  C_20
REMARK    7  A    between atoms: C_19  and  O_24
REMARK    8  A    between atoms: C_28  and  O_33
REMARK    9  A    between atoms: C_29  and  O_31
REMARK   10  A    between atoms: O_31  and  C_32
REMARK                            x       y       z     vdW  Elec       q    Type
REMARK                         _______ _______ _______ _____ _____    ______ ____
ROOT
ATOM      1  C   UNL     1      -4.965  -4.551  -0.385  0.00  0.00    +0.144 C 
ATOM      2  C   UNL     1      -6.374  -4.743  -0.958  0.00  0.00    +0.120 C 
ATOM      3  N   UNL     1      -7.316  -3.913  -0.205  0.00  0.00    -0.292 N 
ATOM      4  C   UNL     1      -7.100  -3.607   1.083  0.00  0.00    +0.302 C 
ATOM      5  O   UNL     1      -7.920  -2.922   1.665  0.00  0.00    -0.253 OA
ATOM      6  N   UNL     1      -6.018  -4.026   1.755  0.00  0.00    -0.264 N 
ATOM      7  C   UNL     1      -4.997  -4.865   1.114  0.00  0.00    +0.243 C 
ATOM      8  H   UNL     1      -8.111  -3.576  -0.647  0.00  0.00    +0.151 HD
ATOM      9  H   UNL     1      -5.906  -3.770   2.684  0.00  0.00    +0.153 HD
ENDROOT
BRANCH   2  10
ATOM     10  C   UNL     1      -6.388  -4.335  -2.408  0.00  0.00    -0.023 A 
ATOM     11  C   UNL     1      -6.563  -3.006  -2.749  0.00  0.00    +0.009 A 
ATOM     12  C   UNL     1      -6.577  -2.626  -4.078  0.00  0.00    +0.049 A 
ATOM     13  C   UNL     1      -6.415  -3.578  -5.072  0.00  0.00    +0.158 A 
ATOM     14  C   UNL     1      -6.239  -4.915  -4.729  0.00  0.00    +0.162 A 
ATOM     15  C   UNL     1      -6.221  -5.288  -3.395  0.00  0.00    +0.055 A 
BRANCH  14  16
ATOM     16  O   UNL     1      -6.079  -5.853  -5.701  0.00  0.00    -0.491 OA
ATOM     17  C   UNL     1      -5.903  -7.205  -5.275  0.00  0.00    +0.277 C 
ENDBRANCH  14  16
BRANCH  13  18
ATOM     18  O   UNL     1      -6.429  -3.206  -6.380  0.00  0.00    -0.503 OA
ATOM     19  H   UNL     1      -5.558  -2.976  -6.733  0.00  0.00    +0.292 HD
ENDBRANCH  13  18
ENDBRANCH   2  10
BRANCH   7  20
ATOM     20  C   UNL     1      -3.626  -4.571   1.727  0.00  0.00    +0.436 C 
ATOM     21  F   UNL     1      -3.370  -3.197   1.659  0.00  0.00    -0.166 F 
ATOM     22  F   UNL     1      -3.616  -4.982   3.064  0.00  0.00    -0.166 F 
ATOM     23  F   UNL     1      -2.640  -5.265   1.018  0.00  0.00    -0.166 F 
ENDBRANCH   7  20
BRANCH   1  24
ATOM     24  C   UNL     1      -4.524  -3.126  -0.595  0.00  0.00    +0.173 C 
ATOM     25  O   UNL     1      -5.112  -2.221  -0.042  0.00  0.00    -0.292 OA
BRANCH  24  29
ATOM     26  C   UNL     1      -1.228  -2.280  -3.118  0.00  0.00    +0.120 A 
ATOM     27  C   UNL     1      -1.972  -1.237  -2.576  0.00  0.00    +0.046 A 
ATOM     28  C   UNL     1      -3.040  -1.505  -1.759  0.00  0.00    +0.015 A 
ATOM     29  C   UNL     1      -3.381  -2.833  -1.470  0.00  0.00    +0.018 A 
ATOM     30  C   UNL     1      -2.629  -3.879  -2.018  0.00  0.00    +0.015 A 
ATOM     31  C   UNL     1      -1.566  -3.600  -2.838  0.00  0.00    +0.046 A 
BRANCH  26  33
ATOM     32  C   UNL     1       0.119  -0.632  -4.172  0.00  0.00    +0.277 C 
ATOM     33  O   UNL     1      -0.173  -2.009  -3.926  0.00  0.00    -0.495 OA
ENDBRANCH  26  33
ENDBRANCH  24  29
ENDBRANCH   1  24
BRANCH   7  34
ATOM     34  O   UNL     1      -5.322  -6.243   1.308  0.00  0.00    -0.364 OA
ATOM     35  H   UNL     1      -5.360  -6.512   2.236  0.00  0.00    +0.212 HD
ENDBRANCH   7  34
TORSDOF 8
