REMARK  Name = ZINC09970418
REMARK  16 active torsions:
REMARK  status: ('A' for Active; 'I' for Inactive)
REMARK    1  A    between atoms: C_1  and  C_2
REMARK    2  A    between atoms: C_11  and  O_13
REMARK    3  A    between atoms: O_13  and  P_14
REMARK    4  A    between atoms: P_14  and  O_16
REMARK    5  A    between atoms: O_16  and  C_17
REMARK    6  A    between atoms: C_17  and  C_33
REMARK    7  A    between atoms: C_18  and  C_31
REMARK    8  A    between atoms: C_18  and  O_32
REMARK    9  A    between atoms: C_19  and  C_29
REMARK   10  A    between atoms: C_19  and  O_30
REMARK   11  A    between atoms: C_20  and  C_27
REMARK   12  A    between atoms: C_20  and  O_28
REMARK   13  A    between atoms: C_21  and  C_25
REMARK   14  A    between atoms: C_21  and  O_26
REMARK   15  A    between atoms: C_22  and  C_23
REMARK   16  A    between atoms: C_22  and  O_24
REMARK                            x       y       z     vdW  Elec       q    Type
REMARK                         _______ _______ _______ _____ _____    ______ ____
ROOT
ATOM      1  C   UNL     1      -2.173   1.844  -1.441  0.00  0.00    +0.141 C 
ATOM      2  C   UNL     1      -2.713   2.715  -2.561  0.00  0.00    +0.126 C 
ATOM      3  C   UNL     1      -4.072   2.298  -3.088  0.00  0.00    +0.125 C 
ATOM      4  C   UNL     1      -4.265   0.805  -3.280  0.00  0.00    +0.125 C 
ATOM      5  C   UNL     1      -3.753  -0.024  -2.113  0.00  0.00    +0.125 C 
ATOM      6  C   UNL     1      -2.346   0.354  -1.683  0.00  0.00    +0.126 C 
ATOM      7  C   UNL     1      -2.033  -0.385  -0.364  0.00  0.00    +0.047 C 
ATOM      8  C   UNL     1      -3.747  -1.506  -2.538  0.00  0.00    +0.047 C 
ATOM      9  C   UNL     1      -3.639   0.330  -4.593  0.00  0.00    +0.047 C 
ATOM     10  C   UNL     1      -4.298   2.992  -4.447  0.00  0.00    +0.047 C 
ATOM     11  C   UNL     1      -1.690   2.801  -3.701  0.00  0.00    +0.047 C 
ATOM     12  C   UNL     1      -2.819   2.244  -0.109  0.00  0.00    +0.048 C 
ENDROOT
BRANCH   6  13
ATOM     13  O   UNL     1      -1.396  -0.095  -2.657  0.00  0.00    -0.383 OA
ATOM     14  H   UNL     1      -1.454  -1.039  -2.857  0.00  0.00    +0.210 HD
ENDBRANCH   6  13
BRANCH   5  15
ATOM     15  O   UNL     1      -4.657   0.101  -1.006  0.00  0.00    -0.383 OA
ATOM     16  H   UNL     1      -5.556  -0.199  -1.197  0.00  0.00    +0.210 HD
ENDBRANCH   5  15
BRANCH   4  17
ATOM     17  O   UNL     1      -5.689   0.564  -3.385  0.00  0.00    -0.383 OA
ATOM     18  H   UNL     1      -5.923  -0.366  -3.511  0.00  0.00    +0.210 HD
ENDBRANCH   4  17
BRANCH   3  19
ATOM     19  O   UNL     1      -5.091   2.784  -2.195  0.00  0.00    -0.383 OA
ATOM     20  H   UNL     1      -5.992   2.557  -2.464  0.00  0.00    +0.210 HD
ENDBRANCH   3  19
BRANCH   2  21
ATOM     21  O   UNL     1      -2.851   4.057  -2.031  0.00  0.00    -0.383 OA
ATOM     22  H   UNL     1      -3.191   4.699  -2.669  0.00  0.00    +0.210 HD
ENDBRANCH   2  21
BRANCH   1  23
ATOM     23  O   UNL     1      -0.757   2.108  -1.320  0.00  0.00    -0.263 OA
BRANCH  23  24
ATOM     24  P   UNL     1      -0.169   3.419  -0.594  0.00  0.00    +0.562 P 
ATOM     25  O   UNL     1      -0.723   4.631  -1.237  0.00  0.00    -0.213 OA
ATOM     26  O   UNL     1      -0.583   3.401   0.962  0.00  0.00    -0.105 OA
BRANCH  24  27
ATOM     27  O   UNL     1       1.436   3.429  -0.722  0.00  0.00    -0.402 OA
BRANCH  27  38
ATOM     28  C   UNL     1       4.282   8.140   2.741  0.00  0.00    +0.045 C 
ATOM     29  C   UNL     1       3.848   8.045   1.302  0.00  0.00    -0.033 A 
ATOM     30  C   UNL     1       4.030   9.086   0.448  0.00  0.00    +0.096 A 
ATOM     31  C   UNL     1       3.615   8.973  -0.895  0.00  0.00    +0.337 A 
ATOM     32  O   UNL     1       3.784   9.914  -1.649  0.00  0.00    -0.245 OA
ATOM     33  O   UNL     1       3.038   7.856  -1.363  0.00  0.00    -0.422 OA
ATOM     34  C   UNL     1       2.827   6.785  -0.568  0.00  0.00    +0.143 A 
ATOM     35  C   UNL     1       3.217   6.829   0.784  0.00  0.00    +0.021 A 
ATOM     36  C   UNL     1       3.001   5.722   1.612  0.00  0.00    +0.015 A 
ATOM     37  C   UNL     1       2.411   4.601   1.105  0.00  0.00    +0.047 A 
ATOM     38  C   UNL     1       2.022   4.551  -0.232  0.00  0.00    +0.136 A 
ATOM     39  C   UNL     1       2.234   5.636  -1.068  0.00  0.00    +0.093 A 
ENDBRANCH  27  38
ENDBRANCH  24  27
ENDBRANCH  23  24
ENDBRANCH   1  23
TORSDOF 9
