REMARK  Name = ZINC43384175
REMARK  5 active torsions:
REMARK  status: ('A' for Active; 'I' for Inactive)
REMARK    1  A    between atoms: C_1  and  C_2
REMARK    2  A    between atoms: C_6  and  C_7
REMARK    3  A    between atoms: C_7  and  N_8
REMARK    4  A    between atoms: C_9  and  N_11
REMARK    5  A    between atoms: C_16  and  C_18
REMARK                            x       y       z     vdW  Elec       q    Type
REMARK                         _______ _______ _______ _____ _____    ______ ____
ROOT
ATOM      1  N   UNL     1      -1.349  -0.028   3.053  0.00  0.00    -0.293 N 
ATOM      2  C   UNL     1      -1.589   0.425   4.299  0.00  0.00    +0.326 C 
ATOM      3  O   UNL     1      -0.659   0.710   5.033  0.00  0.00    -0.251 OA
ATOM      4  H   UNL     1      -2.089  -0.255   2.468  0.00  0.00    +0.151 HD
ENDROOT
BRANCH   2   5
ATOM      5  N   UNL     1      -2.846   0.562   4.729  0.00  0.00    -0.139 NA
ATOM      6  C   UNL     1      -3.083   1.010   5.960  0.00  0.00    +0.165 A 
ATOM      7  N   UNL     1      -2.184   1.381   6.913  0.00  0.00    -0.342 N 
ATOM      8  H   UNL     1      -1.232   1.337   6.737  0.00  0.00    +0.167 HD
ATOM      9  C   UNL     1      -2.648   1.814   8.118  0.00  0.00    +0.095 A 
ATOM     10  C   UNL     1      -3.973   1.848   8.289  0.00  0.00    +0.006 A 
ATOM     11  S   UNL     1      -4.566   1.262   6.713  0.00  0.00    -0.058 S 
ATOM     12  C   UNL     1      -4.762   2.275   9.500  0.00  0.00    +0.053 C 
ENDBRANCH   2   5
BRANCH   1  13
ATOM     13  C   UNL     1       0.030  -0.179   2.581  0.00  0.00    +0.148 C 
BRANCH  13  19
ATOM     14  C   UNL     1      -0.018   1.503   0.010  0.00  0.00    +0.044 C 
ATOM     15  C   UNL     1       0.002  -0.004   0.002  0.00  0.00    -0.039 A 
ATOM     16  C   UNL     1       0.006  -0.699  -1.193  0.00  0.00    +0.011 A 
ATOM     17  C   UNL     1       0.024  -2.054  -1.165  0.00  0.00    +0.046 A 
ATOM     18  S   UNL     1       0.037  -2.387   0.589  0.00  0.00    -0.100 S 
ATOM     19  C   UNL     1       0.023  -0.698   1.166  0.00  0.00    +0.010 A 
ENDBRANCH  13  19
ENDBRANCH   1  13
TORSDOF 3
