REMARK  Name = ZINC67103588
REMARK  7 active torsions:
REMARK  status: ('A' for Active; 'I' for Inactive)
REMARK    1  A    between atoms: C_1  and  C_2
REMARK    2  A    between atoms: C_2  and  C_3
REMARK    3  A    between atoms: C_3  and  C_5
REMARK    4  A    between atoms: C_3  and  N_15
REMARK    5  A    between atoms: N_18  and  N_19
REMARK    6  A    between atoms: C_20  and  C_22
REMARK    7  A    between atoms: C_22  and  C_23
REMARK                            x       y       z     vdW  Elec       q    Type
REMARK                         _______ _______ _______ _____ _____    ______ ____
ROOT
ATOM      1  N   UNL     1      -2.105  -0.148  -1.230  0.00  0.00    -0.291 N 
ATOM      2  C   UNL     1      -2.690   1.062  -1.334  0.00  0.00    +0.316 C 
ATOM      3  O   UNL     1      -2.659   1.834  -0.395  0.00  0.00    -0.251 OA
ATOM      4  N   UNL     1      -3.308   1.416  -2.478  0.00  0.00    -0.218 N 
ATOM      5  H   UNL     1      -2.130  -0.764  -1.980  0.00  0.00    +0.151 HD
ATOM      6  H   UNL     1      -3.729   2.287  -2.552  0.00  0.00    +0.174 HD
ENDROOT
BRANCH   4   7
ATOM      7  N   UNL     1      -3.343   0.527  -3.559  0.00  0.00    -0.233 N 
ATOM      8  C   UNL     1      -3.962   0.881  -4.703  0.00  0.00    +0.229 C 
ATOM      9  O   UNL     1      -4.488   1.970  -4.796  0.00  0.00    -0.274 OA
ATOM     10  H   UNL     1      -2.923  -0.344  -3.485  0.00  0.00    +0.173 HD
BRANCH   8  11
ATOM     11  C   UNL     1      -4.000  -0.075  -5.867  0.00  0.00    +0.101 C 
BRANCH  11  12
ATOM     12  C   UNL     1      -4.756   0.568  -7.032  0.00  0.00    -0.002 C 
ATOM     13  C   UNL     1      -6.218   0.780  -6.635  0.00  0.00    +0.004 C 
ATOM     14  C   UNL     1      -6.974   1.424  -7.799  0.00  0.00    +0.000 C 
ATOM     15  C   UNL     1      -6.905   0.505  -9.021  0.00  0.00    +0.000 C 
ATOM     16  C   UNL     1      -5.443   0.292  -9.418  0.00  0.00    +0.000 C 
ATOM     17  C   UNL     1      -4.687  -0.351  -8.253  0.00  0.00    +0.004 C 
ENDBRANCH  11  12
ENDBRANCH   8  11
ENDBRANCH   4   7
BRANCH   1  18
ATOM     18  C   UNL     1      -1.433  -0.534   0.013  0.00  0.00    +0.105 C 
BRANCH  18  19
ATOM     19  C   UNL     1      -1.414  -2.036   0.129  0.00  0.00    -0.023 A 
ATOM     20  C   UNL     1      -1.167  -2.811  -0.990  0.00  0.00    +0.009 A 
ATOM     21  C   UNL     1      -1.149  -4.189  -0.888  0.00  0.00    +0.050 A 
ATOM     22  C   UNL     1      -1.379  -4.798   0.337  0.00  0.00    +0.162 A 
ATOM     23  C   UNL     1      -1.625  -4.019   1.461  0.00  0.00    +0.162 A 
ATOM     24  C   UNL     1      -1.637  -2.637   1.353  0.00  0.00    +0.055 A 
ATOM     25  O   UNL     1      -1.845  -4.597   2.674  0.00  0.00    -0.485 OA
ATOM     26  C   UNL     1      -2.188  -5.987   2.672  0.00  0.00    +0.270 C 
ATOM     27  C   UNL     1      -1.223  -6.719   1.730  0.00  0.00    +0.270 C 
ATOM     28  O   UNL     1      -1.362  -6.157   0.421  0.00  0.00    -0.485 OA
ENDBRANCH  18  19
BRANCH  18  30
ATOM     29  C   UNL     1      -0.019   1.526   0.010  0.00  0.00    +0.006 C 
ATOM     30  C   UNL     1       0.002  -0.004   0.002  0.00  0.00    +0.024 C 
ENDBRANCH  18  30
ENDBRANCH   1  18
TORSDOF 6
