REMARK  Name = ZINC00478273
REMARK  7 active torsions:
REMARK  status: ('A' for Active; 'I' for Inactive)
REMARK    1  A    between atoms: C_1  and  C_2
REMARK    2  A    between atoms: C_3  and  C_12
REMARK    3  A    between atoms: C_4  and  N_11
REMARK    4  A    between atoms: N_5  and  C_7
REMARK    5  A    between atoms: C_7  and  C_8
REMARK    6  A    between atoms: C_7  and  C_9
REMARK    7  A    between atoms: C_7  and  C_10
REMARK                            x       y       z     vdW  Elec       q    Type
REMARK                         _______ _______ _______ _____ _____    ______ ____
ROOT
ATOM      1  C   UNL     1      -5.746   1.521   1.317  0.00  0.00    +0.069 C 
ATOM      2  C   UNL     1      -4.307   1.073   1.300  0.00  0.00    +0.079 A 
ATOM      3  C   UNL     1      -3.856  -0.267   1.288  0.00  0.00    +0.113 A 
ATOM      4  C   UNL     1      -2.464  -0.228   1.274  0.00  0.00    +0.133 A 
ATOM      5  N   UNL     1      -2.103   1.072   1.277  0.00  0.00    -0.244 N 
ATOM      6  N   UNL     1      -3.263   1.854   1.299  0.00  0.00    -0.173 NA
ENDROOT
BRANCH   5   7
ATOM      7  C   UNL     1      -0.729   1.579   1.267  0.00  0.00    +0.057 C 
ATOM      8  C   UNL     1      -0.013   1.086   0.008  0.00  0.00    +0.036 C 
ATOM      9  C   UNL     1       0.011   1.072   2.506  0.00  0.00    +0.036 C 
ATOM     10  C   UNL     1      -0.750   3.109   1.275  0.00  0.00    +0.036 C 
ENDBRANCH   5   7
BRANCH   4  11
ATOM     11  N   UNL     1      -1.613  -1.316   1.258  0.00  0.00    -0.342 N 
ATOM     12  H   UNL     1      -0.652  -1.180   1.249  0.00  0.00    +0.144 HD
ATOM     13  H   UNL     1      -1.975  -2.216   1.257  0.00  0.00    +0.144 HD
ENDBRANCH   4  11
BRANCH   3  14
ATOM     14  C   UNL     1      -4.675  -1.442   1.289  0.00  0.00    +0.104 C 
ATOM     15  N   UNL     1      -5.325  -2.373   1.290  0.00  0.00    -0.191 NA
ENDBRANCH   3  14
TORSDOF 3
