REMARK  Name = ZINC36977062
REMARK  3 active torsions:
REMARK  status: ('A' for Active; 'I' for Inactive)
REMARK    1  A    between atoms: C_2  and  C_12
REMARK    2  A    between atoms: C_12  and  N_13
REMARK    3  A    between atoms: N_13  and  C_14
REMARK                            x       y       z     vdW  Elec       q    Type
REMARK                         _______ _______ _______ _____ _____    ______ ____
ROOT
ATOM      1  C   UNL     1       1.792   3.608   0.164  0.00  0.00    -0.046 C 
ENDROOT
BRANCH   1   3
ATOM      2  C   UNL     1       0.762   1.397  -0.396  0.00  0.00    +0.051 A 
ATOM      3  C   UNL     1       1.816   2.101   0.155  0.00  0.00    -0.060 A 
ATOM      4  C   UNL     1       2.892   1.426   0.699  0.00  0.00    +0.021 A 
ATOM      5  C   UNL     1       2.919   0.043   0.692  0.00  0.00    +0.063 A 
ATOM      6  C   UNL     1       1.864  -0.669   0.139  0.00  0.00    +0.176 A 
ATOM      7  C   UNL     1       0.781   0.011  -0.405  0.00  0.00    +0.163 A 
ATOM      8  O   UNL     1      -0.267  -0.668  -0.946  0.00  0.00    -0.485 OA
ATOM      9  C   UNL     1      -0.043  -2.044  -1.273  0.00  0.00    +0.270 C 
ATOM     10  C   UNL     1       0.666  -2.711  -0.086  0.00  0.00    +0.270 C 
ATOM     11  O   UNL     1       1.906  -2.030   0.135  0.00  0.00    -0.484 OA
ATOM     12 BR   UNL     1       4.394  -0.878   1.435  0.00  0.00    -0.046 Br
ENDBRANCH   1   3
BRANCH   1  13
ATOM     13  N   UNL     1       1.151   4.081   1.398  0.00  0.00    +0.389 N 
ATOM     14  H   UNL     1       0.206   3.729   1.442  0.00  0.00    -0.084 HD
ATOM     15  H   UNL     1       1.671   3.748   2.196  0.00  0.00    -0.084 HD
BRANCH  13  16
ATOM     16  C   UNL     1       1.127   5.550   1.406  0.00  0.00    +0.016 C 
ATOM     17  C   UNL     1      -0.146   6.047   0.717  0.00  0.00    -0.007 C 
ATOM     18  C   UNL     1      -1.307   5.110   0.992  0.00  0.00    +0.000 C 
ATOM     19  C   UNL     1      -1.748   5.089   2.445  0.00  0.00    +0.019 C 
ATOM     20  C   UNL     1      -0.663   4.477   3.334  0.00  0.00    +0.104 C 
ATOM     21  N   UNL     1       0.278   5.538   3.726  0.00  0.00    -0.317 N 
ATOM     22  C   UNL     1       1.133   6.051   2.835  0.00  0.00    +0.199 C 
ATOM     23  O   UNL     1       1.909   6.921   3.167  0.00  0.00    -0.278 OA
ATOM     24  H   UNL     1       0.281   5.866   4.639  0.00  0.00    +0.149 HD
ENDBRANCH  13  16
ENDBRANCH   1  13
TORSDOF 3
