REMARK  Name = ZINC46864834
REMARK  4 active torsions:
REMARK  status: ('A' for Active; 'I' for Inactive)
REMARK    1  A    between atoms: C_3  and  N_14
REMARK    2  A    between atoms: C_5  and  N_7
REMARK    3  A    between atoms: C_15  and  C_17
REMARK    4  A    between atoms: C_20  and  N_24
REMARK                            x       y       z     vdW  Elec       q    Type
REMARK                         _______ _______ _______ _____ _____    ______ ____
ROOT
ATOM      1  N   UNL     1       3.786   2.390  -0.036  0.00  0.00    -0.281 N 
ATOM      2  C   UNL     1       4.901   2.076   0.653  0.00  0.00    +0.250 C 
ATOM      3  O   UNL     1       4.968   1.020   1.251  0.00  0.00    -0.270 OA
ATOM      4  H   UNL     1       3.756   3.203  -0.565  0.00  0.00    +0.155 HD
ENDROOT
BRANCH   2   5
ATOM      5  C   UNL     1       6.042   3.014   0.680  0.00  0.00    +0.055 A 
ATOM      6  C   UNL     1       5.966   4.230  -0.001  0.00  0.00    +0.017 A 
ATOM      7  C   UNL     1       7.034   5.102   0.029  0.00  0.00    +0.033 A 
ATOM      8  C   UNL     1       8.181   4.774   0.732  0.00  0.00    +0.128 A 
ATOM      9  C   UNL     1       8.264   3.571   1.410  0.00  0.00    +0.053 A 
ATOM     10  C   UNL     1       7.199   2.691   1.393  0.00  0.00    +0.055 A 
ATOM     11 CL   UNL     1       7.301   1.185   2.251  0.00  0.00    -0.083 Cl
BRANCH   8  12
ATOM     12  N   UNL     1       9.323   5.714   0.758  0.00  0.00    +0.056 N 
ATOM     13  O   UNL     1       9.254   6.766   0.167  0.00  0.00    -0.126 OA
ATOM     14  O   UNL     1      10.326   5.431   1.372  0.00  0.00    -0.126 OA
ENDBRANCH   8  12
ENDBRANCH   2   5
BRANCH   1  17
ATOM     15  C   UNL     1       0.291   1.247   0.031  0.00  0.00    +0.004 A 
ATOM     16  C   UNL     1       1.391   2.081  -0.015  0.00  0.00    +0.023 A 
ATOM     17  C   UNL     1       2.672   1.545   0.012  0.00  0.00    +0.036 A 
ATOM     18  C   UNL     1       2.846   0.171   0.086  0.00  0.00    +0.049 A 
ATOM     19  C   UNL     1       1.740  -0.664   0.133  0.00  0.00    +0.050 A 
ATOM     20  C   UNL     1       0.461  -0.122   0.105  0.00  0.00    +0.026 A 
BRANCH  19  21
ATOM     21  N   UNL     1       1.911  -2.052   0.207  0.00  0.00    -0.295 N 
ATOM     22  C   UNL     1       2.643  -2.832  -0.677  0.00  0.00    +0.111 A 
ATOM     23  C   UNL     1       2.566  -4.094  -0.268  0.00  0.00    +0.103 A 
ATOM     24  N   UNL     1       1.785  -4.125   0.877  0.00  0.00    -0.340 N 
ATOM     25  H   UNL     1       1.559  -4.916   1.392  0.00  0.00    +0.167 HD
ATOM     26  C   UNL     1       1.398  -2.864   1.153  0.00  0.00    +0.162 A 
ATOM     27  S   UNL     1       0.423  -2.378   2.473  0.00  0.00    -0.013 S 
ENDBRANCH  19  21
ENDBRANCH   1  17
TORSDOF 4
