REMARK  Name = ZINC52095912
REMARK  6 active torsions:
REMARK  status: ('A' for Active; 'I' for Inactive)
REMARK    1  A    between atoms: C_1  and  C_2
REMARK    2  A    between atoms: C_5  and  N_18
REMARK    3  A    between atoms: C_7  and  N_8
REMARK    4  A    between atoms: N_8  and  S_9
REMARK    5  A    between atoms: S_9  and  C_12
REMARK    6  A    between atoms: N_14  and  C_17
REMARK                            x       y       z     vdW  Elec       q    Type
REMARK                         _______ _______ _______ _____ _____    ______ ____
ROOT
ATOM      1  N   UNL     1       0.025  -0.013   2.415  0.00  0.00    -0.096 NA
ENDROOT
BRANCH   1   8
ATOM      2  C   UNL     1      -0.018   1.503   0.010  0.00  0.00    +0.046 C 
ATOM      3  C   UNL     1       0.002  -0.004   0.002  0.00  0.00    -0.026 A 
ATOM      4  C   UNL     1       0.006  -0.688  -1.199  0.00  0.00    +0.007 A 
ATOM      5  C   UNL     1       0.024  -2.069  -1.211  0.00  0.00    +0.023 A 
ATOM      6  C   UNL     1       0.040  -2.776  -0.014  0.00  0.00    +0.026 A 
ATOM      7  C   UNL     1       0.036  -2.092   1.193  0.00  0.00    +0.049 A 
ATOM      8  C   UNL     1       0.023  -0.704   1.202  0.00  0.00    +0.079 A 
BRANCH   6   9
ATOM      9  N   UNL     1       0.058  -4.172  -0.027  0.00  0.00    -0.358 N 
ATOM     10  H   UNL     1       0.060  -4.649  -0.872  0.00  0.00    +0.142 HD
ATOM     11  H   UNL     1       0.069  -4.665   0.808  0.00  0.00    +0.142 HD
ENDBRANCH   6   9
ENDBRANCH   1   8
BRANCH   1  12
ATOM     12  S   UNL     1       0.050  -0.848   3.845  0.00  0.00    +0.108 S 
ATOM     13  O   UNL     1      -1.185  -1.545   3.929  0.00  0.00    -0.147 OA
ATOM     14  O   UNL     1       1.305  -1.512   3.905  0.00  0.00    -0.147 OA
BRANCH  12  15
ATOM     15  C   UNL     1       0.047   0.342   5.144  0.00  0.00    +0.195 A 
ATOM     16  C   UNL     1       1.135   0.895   5.713  0.00  0.00    +0.134 A 
ATOM     17  N   UNL     1       0.683   1.761   6.672  0.00  0.00    -0.340 N 
ATOM     18  C   UNL     1      -0.666   1.707   6.655  0.00  0.00    +0.175 A 
ATOM     19  N   UNL     1      -1.040   0.860   5.735  0.00  0.00    -0.330 N 
ATOM     20  C   UNL     1       1.509   2.592   7.552  0.00  0.00    +0.150 C 
ATOM     21  H   UNL     1      -1.958   0.639   5.515  0.00  0.00    +0.168 HD
ENDBRANCH  12  15
ENDBRANCH   1  12
TORSDOF 4
