REMARK  Name = ZINC35031948
REMARK  6 active torsions:
REMARK  status: ('A' for Active; 'I' for Inactive)
REMARK    1  A    between atoms: C_1  and  C_2
REMARK    2  A    between atoms: C_7  and  C_8
REMARK    3  A    between atoms: N_10  and  C_11
REMARK    4  A    between atoms: C_13  and  C_29
REMARK    5  A    between atoms: C_32  and  O_35
REMARK    6  A    between atoms: O_35  and  C_36
REMARK                            x       y       z     vdW  Elec       q    Type
REMARK                         _______ _______ _______ _____ _____    ______ ____
ROOT
ATOM      1  C   UNL     1       0.350  -0.051   4.758  0.00  0.00    +0.169 C 
ATOM      2  C   UNL     1       0.189  -0.868   6.042  0.00  0.00    +0.076 C 
ATOM      3  C   UNL     1       0.759  -0.063   7.210  0.00  0.00    +0.144 C 
ATOM      4  C   UNL     1       2.232   0.117   6.909  0.00  0.00    +0.123 C 
ATOM      5  N   UNL     1       3.108  -0.193   7.807  0.00  0.00    -0.233 NA
ATOM      6  C   UNL     1       2.769  -0.727   9.021  0.00  0.00    +0.086 A 
ATOM      7  C   UNL     1       3.782  -0.983   9.950  0.00  0.00    +0.029 A 
ATOM      8  C   UNL     1       3.474  -1.533  11.177  0.00  0.00    +0.002 A 
ATOM      9  C   UNL     1       2.163  -1.837  11.498  0.00  0.00    +0.002 A 
ATOM     10  C   UNL     1       1.150  -1.585  10.592  0.00  0.00    +0.025 A 
ATOM     11  C   UNL     1       1.445  -1.026   9.358  0.00  0.00    +0.053 A 
ATOM     12  N   UNL     1       0.385  -0.733   8.463  0.00  0.00    -0.332 N 
ATOM     13  N   UNL     1       2.599   0.561   5.662  0.00  0.00    -0.271 N 
ATOM     14  C   UNL     1       1.752   0.468   4.625  0.00  0.00    +0.239 C 
ATOM     15  O   UNL     1       2.138   0.819   3.531  0.00  0.00    -0.273 OA
ATOM     16  H   UNL     1      -0.536  -0.967   8.655  0.00  0.00    +0.147 HD
ATOM     17  H   UNL     1       3.480   0.945   5.529  0.00  0.00    +0.156 HD
ENDROOT
BRANCH   2  18
ATOM     18  C   UNL     1       0.937  -2.170   5.908  0.00  0.00    -0.040 A 
ATOM     19  C   UNL     1       0.327  -3.356   6.273  0.00  0.00    +0.007 A 
ATOM     20  C   UNL     1       1.011  -4.551   6.152  0.00  0.00    +0.046 A 
ATOM     21  C   UNL     1       2.309  -4.560   5.664  0.00  0.00    +0.120 A 
ATOM     22  C   UNL     1       2.919  -3.368   5.299  0.00  0.00    +0.046 A 
ATOM     23  C   UNL     1       2.229  -2.177   5.417  0.00  0.00    +0.007 A 
BRANCH  21  24
ATOM     24  O   UNL     1       2.984  -5.733   5.545  0.00  0.00    -0.495 OA
ATOM     25  C   UNL     1       4.317  -5.667   5.035  0.00  0.00    +0.277 C 
ENDBRANCH  21  24
ENDBRANCH   2  18
BRANCH   1  28
ATOM     26  C   UNL     1      -0.395  -0.342   2.456  0.00  0.00    +0.245 C 
ATOM     27  O   UNL     1      -0.529   0.864   2.378  0.00  0.00    -0.270 OA
ATOM     28  N   UNL     1       0.039  -0.899   3.604  0.00  0.00    -0.299 N 
ATOM     29  H   UNL     1       0.146  -1.861   3.667  0.00  0.00    +0.150 HD
BRANCH  26  36
ATOM     30  C   UNL     1      -1.609   0.829   0.105  0.00  0.00    +0.044 C 
ATOM     31  C   UNL     1      -1.294  -0.644   0.153  0.00  0.00    -0.038 A 
ATOM     32  C   UNL     1      -1.579  -1.448  -0.932  0.00  0.00    +0.004 A 
ATOM     33  C   UNL     1      -1.291  -2.800  -0.890  0.00  0.00    +0.000 A 
ATOM     34  C   UNL     1      -0.716  -3.357   0.239  0.00  0.00    +0.001 A 
ATOM     35  C   UNL     1      -0.425  -2.564   1.330  0.00  0.00    +0.013 A 
ATOM     36  C   UNL     1      -0.709  -1.198   1.292  0.00  0.00    +0.040 A 
ENDBRANCH  26  36
ENDBRANCH   1  28
TORSDOF 4
