REMARK  Name = ZINC40824367
REMARK  8 active torsions:
REMARK  status: ('A' for Active; 'I' for Inactive)
REMARK    1  A    between atoms: C_1  and  C_2
REMARK    2  A    between atoms: C_2  and  O_3
REMARK    3  A    between atoms: O_3  and  C_4
REMARK    4  A    between atoms: C_4  and  C_6
REMARK    5  A    between atoms: C_9  and  N_12
REMARK    6  A    between atoms: C_13  and  C_15
REMARK    7  A    between atoms: C_16  and  C_29
REMARK    8  A    between atoms: N_24  and  N_25
REMARK                            x       y       z     vdW  Elec       q    Type
REMARK                         _______ _______ _______ _____ _____    ______ ____
ROOT
ATOM      1  C   UNL     1       4.323  -5.760  -7.128  0.00  0.00    +0.193 A 
ATOM      2  C   UNL     1       4.581  -7.082  -7.362  0.00  0.00    +0.009 A 
ATOM      3  C   UNL     1       5.341  -7.130  -8.537  0.00  0.00    +0.042 A 
ATOM      4  C   UNL     1       5.516  -5.837  -8.969  0.00  0.00    +0.115 A 
ATOM      5  O   UNL     1       4.891  -5.030  -8.115  0.00  0.00    -0.454 OA
ATOM      6  C   UNL     1       6.293  -5.486 -10.212  0.00  0.00    +0.075 C 
ATOM      7  C   UNL     1       7.229  -6.643 -10.571  0.00  0.00    +0.014 C 
ATOM      8  C   UNL     1       6.450  -7.960 -10.658  0.00  0.00    +0.058 C 
ATOM      9  C   UNL     1       5.904  -8.283  -9.275  0.00  0.00    +0.070 C 
ATOM     10  N   UNL     1       5.932  -9.481  -8.778  0.00  0.00    -0.183 NA
ATOM     11  C   UNL     1       4.137  -8.252  -6.523  0.00  0.00    +0.048 C 
ENDROOT
BRANCH  10  12
ATOM     12  N   UNL     1       6.478 -10.535  -9.522  0.00  0.00    -0.191 N 
ATOM     13  C   UNL     1       6.506 -11.780  -9.006  0.00  0.00    +0.317 C 
ATOM     14  O   UNL     1       6.980 -12.695  -9.652  0.00  0.00    -0.251 OA
ATOM     15  N   UNL     1       6.009 -12.011  -7.775  0.00  0.00    -0.312 N 
ATOM     16  H   UNL     1       6.836 -10.369 -10.408  0.00  0.00    +0.179 HD
ATOM     17  H   UNL     1       5.631 -11.281  -7.260  0.00  0.00    +0.147 HD
ATOM     18  H   UNL     1       6.030 -12.907  -7.403  0.00  0.00    +0.147 HD
ENDBRANCH  10  12
BRANCH   1  20
ATOM     19  N   UNL     1       3.366  -3.894  -5.884  0.00  0.00    -0.279 N 
ATOM     20  C   UNL     1       3.554  -5.223  -6.000  0.00  0.00    +0.284 C 
ATOM     21  O   UNL     1       3.087  -5.979  -5.168  0.00  0.00    -0.266 OA
ATOM     22  H   UNL     1       3.671  -3.298  -6.586  0.00  0.00    +0.155 HD
BRANCH  19  26
ATOM     23  C   UNL     1       1.469  -2.346  -2.516  0.00  0.00    +0.059 A 
ATOM     24  C   UNL     1       1.298  -1.732  -3.760  0.00  0.00    +0.017 A 
ATOM     25  C   UNL     1       1.926  -2.247  -4.872  0.00  0.00    +0.024 A 
ATOM     26  C   UNL     1       2.732  -3.376  -4.757  0.00  0.00    +0.034 A 
ATOM     27  C   UNL     1       2.905  -3.989  -3.520  0.00  0.00    +0.024 A 
ATOM     28  C   UNL     1       2.284  -3.477  -2.404  0.00  0.00    +0.017 A 
BRANCH  23  29
ATOM     29  C   UNL     1       0.797  -1.798  -1.323  0.00  0.00    +0.339 C 
ATOM     30  O   UNL     1       0.951  -2.329  -0.241  0.00  0.00    -0.245 OA
BRANCH  29  31
ATOM     31  O   UNL     1       0.012  -0.708  -1.433  0.00  0.00    -0.461 OA
BRANCH  31  33
ATOM     32  C   UNL     1      -1.453   1.002  -0.557  0.00  0.00    +0.048 C 
ATOM     33  C   UNL     1      -0.608  -0.232  -0.237  0.00  0.00    +0.229 C 
ENDBRANCH  31  33
ENDBRANCH  29  31
ENDBRANCH  23  29
ENDBRANCH  19  26
ENDBRANCH   1  20
TORSDOF 6
