REMARK  Name = ZINC62961607
REMARK  6 active torsions:
REMARK  status: ('A' for Active; 'I' for Inactive)
REMARK    1  A    between atoms: C_1  and  C_2
REMARK    2  A    between atoms: C_2  and  C_3
REMARK    3  A    between atoms: C_2  and  O_4
REMARK    4  A    between atoms: O_4  and  C_5
REMARK    5  A    between atoms: C_8  and  C_11
REMARK    6  A    between atoms: C_11  and  O_18
REMARK                            x       y       z     vdW  Elec       q    Type
REMARK                         _______ _______ _______ _____ _____    ______ ____
ROOT
ATOM      1  C   UNL     1      -1.965  -0.607  -1.189  0.00  0.00    +0.121 A 
ATOM      2  C   UNL     1      -1.239  -0.487  -2.365  0.00  0.00    +0.046 A 
ATOM      3  C   UNL     1      -1.879  -0.598  -3.584  0.00  0.00    +0.010 A 
ATOM      4  C   UNL     1      -3.241  -0.827  -3.634  0.00  0.00    -0.014 A 
ATOM      5  C   UNL     1      -3.967  -0.946  -2.463  0.00  0.00    +0.010 A 
ATOM      6  C   UNL     1      -3.332  -0.843  -1.241  0.00  0.00    +0.046 A 
ENDROOT
BRANCH   4   7
ATOM      7  C   UNL     1      -3.936  -0.947  -4.965  0.00  0.00    +0.112 C 
ATOM      8  C   UNL     1      -5.065   0.093  -5.057  0.00  0.00    +0.064 C 
ATOM      9  C   UNL     1      -5.980  -0.227  -6.264  0.00  0.00    +0.169 C 
ATOM     10  S   UNL     1      -5.807  -2.050  -6.431  0.00  0.00    -0.028 S 
ATOM     11  O   UNL     1      -5.219  -2.346  -7.690  0.00  0.00    -0.174 OA
ATOM     12  O   UNL     1      -7.036  -2.666  -6.071  0.00  0.00    -0.174 OA
ATOM     13  C   UNL     1      -4.569  -2.362  -5.102  0.00  0.00    +0.205 C 
BRANCH   7  14
ATOM     14  O   UNL     1      -2.997  -0.734  -6.021  0.00  0.00    -0.382 OA
ATOM     15  H   UNL     1      -2.565   0.131  -5.994  0.00  0.00    +0.211 HD
ENDBRANCH   7  14
ENDBRANCH   4   7
BRANCH   1  16
ATOM     16  O   UNL     1      -1.339  -0.499   0.012  0.00  0.00    -0.489 OA
BRANCH  16  18
ATOM     17  C   UNL     1       0.456   1.103  -0.221  0.00  0.00    +0.051 C 
ATOM     18  C   UNL     1       0.084  -0.366  -0.008  0.00  0.00    +0.167 C 
ATOM     19  C   UNL     1       0.661  -0.851   1.323  0.00  0.00    +0.051 C 
ENDBRANCH  16  18
ENDBRANCH   1  16
TORSDOF 4
