REMARK  Name = ZINC39678472
REMARK  6 active torsions:
REMARK  status: ('A' for Active; 'I' for Inactive)
REMARK    1  A    between atoms: C_3  and  C_11
REMARK    2  A    between atoms: C_5  and  O_7
REMARK    3  A    between atoms: O_7  and  C_8
REMARK    4  A    between atoms: C_11  and  N_12
REMARK    5  A    between atoms: C_13  and  C_15
REMARK    6  A    between atoms: C_26  and  C_28
REMARK                            x       y       z     vdW  Elec       q    Type
REMARK                         _______ _______ _______ _____ _____    ______ ____
ROOT
ATOM      1  C   UNL     1       5.390   3.883   2.646  0.00  0.00    +0.100 C 
ATOM      2  C   UNL     1       4.481   4.644   3.637  0.00  0.00    +0.121 C 
ATOM      3  N   UNL     1       5.417   5.416   4.487  0.00  0.00    -0.296 N 
ATOM      4  C   UNL     1       6.461   5.891   3.548  0.00  0.00    +0.115 C 
ATOM      5  C   UNL     1       6.688   4.705   2.590  0.00  0.00    -0.004 C 
ATOM      6  C   UNL     1       7.868   3.862   3.064  0.00  0.00    -0.010 C 
ATOM      7  C   UNL     1       9.156   4.683   2.946  0.00  0.00    -0.082 C 
ATOM      8  N   UNL     1       9.351   5.092   1.550  0.00  0.00    +0.379 N 
ATOM      9  C   UNL     1       8.258   5.978   1.130  0.00  0.00    -0.082 C 
ATOM     10  C   UNL     1       6.933   5.213   1.172  0.00  0.00    -0.010 C 
ATOM     11  C   UNL     1       5.338   5.636   5.815  0.00  0.00    +0.247 C 
ATOM     12  O   UNL     1       4.488   5.070   6.475  0.00  0.00    -0.270 OA
ATOM     13  H   UNL     1      10.229   5.580   1.463  0.00  0.00    -0.086 HD
ATOM     14  H   UNL     1       9.364   4.274   0.959  0.00  0.00    -0.086 HD
ENDROOT
BRANCH  11  15
ATOM     15  C   UNL     1       6.285   6.564   6.468  0.00  0.00    +0.037 A 
ATOM     16  C   UNL     1       6.958   7.525   5.712  0.00  0.00    +0.014 A 
ATOM     17  C   UNL     1       7.840   8.388   6.327  0.00  0.00    +0.016 A 
ATOM     18  C   UNL     1       8.058   8.304   7.691  0.00  0.00    +0.018 A 
ATOM     19  C   UNL     1       7.393   7.353   8.447  0.00  0.00    +0.016 A 
ATOM     20  C   UNL     1       6.504   6.487   7.844  0.00  0.00    +0.014 A 
ATOM     21 BR   UNL     1       9.270   9.491   8.527  0.00  0.00    -0.050 Br
ENDBRANCH  11  15
BRANCH   1  23
ATOM     22  N   UNL     1       4.993   2.780   0.468  0.00  0.00    -0.311 N 
ATOM     23  C   UNL     1       4.747   3.824   1.284  0.00  0.00    +0.218 C 
ATOM     24  O   UNL     1       4.009   4.716   0.922  0.00  0.00    -0.275 OA
ATOM     25  H   UNL     1       5.583   2.067   0.757  0.00  0.00    +0.149 HD
BRANCH  22  26
ATOM     26  C   UNL     1       4.368   2.722  -0.856  0.00  0.00    +0.139 C 
BRANCH  26  29
ATOM     27  C   UNL     1       4.463  -0.854  -2.066  0.00  0.00    +0.004 A 
ATOM     28  C   UNL     1       4.067   0.302  -1.419  0.00  0.00    +0.005 A 
ATOM     29  C   UNL     1       4.803   1.464  -1.562  0.00  0.00    -0.027 A 
ATOM     30  C   UNL     1       5.936   1.472  -2.352  0.00  0.00    +0.051 A 
ATOM     31  C   UNL     1       6.336   0.313  -3.002  0.00  0.00    +0.127 A 
ATOM     32  C   UNL     1       5.595  -0.851  -2.857  0.00  0.00    +0.046 A 
BRANCH  31  33
ATOM     33  O   UNL     1       7.450   0.319  -3.780  0.00  0.00    -0.434 OA
BRANCH  33  34
ATOM     34  C   UNL     1       7.801  -0.910  -4.418  0.00  0.00    +0.541 C 
ATOM     35  F   UNL     1       8.025  -1.893  -3.448  0.00  0.00    -0.166 F 
ATOM     36  F   UNL     1       6.758  -1.314  -5.259  0.00  0.00    -0.166 F 
ENDBRANCH  33  34
ENDBRANCH  31  33
ENDBRANCH  26  29
ENDBRANCH  22  26
ENDBRANCH   1  23
TORSDOF 6
