REMARK  Name = ZINC57029153
REMARK  8 active torsions:
REMARK  status: ('A' for Active; 'I' for Inactive)
REMARK    1  A    between atoms: C_1  and  C_2
REMARK    2  A    between atoms: C_4  and  C_24
REMARK    3  A    between atoms: C_5  and  N_9
REMARK    4  A    between atoms: C_6  and  C_8
REMARK    5  A    between atoms: C_10  and  C_12
REMARK    6  A    between atoms: C_12  and  N_13
REMARK    7  A    between atoms: N_13  and  C_14
REMARK    8  A    between atoms: N_17  and  C_18
REMARK                            x       y       z     vdW  Elec       q    Type
REMARK                         _______ _______ _______ _____ _____    ______ ____
ROOT
ATOM      1  N   UNL     1      -0.052  -4.280  -0.077  0.00  0.00    -0.284 N 
ATOM      2  C   UNL     1       0.345  -4.970   1.011  0.00  0.00    +0.235 C 
ATOM      3  O   UNL     1       0.659  -4.380   2.022  0.00  0.00    -0.274 OA
ATOM      4  H   UNL     1      -0.370  -4.753  -0.862  0.00  0.00    +0.155 HD
ENDROOT
BRANCH   1   9
ATOM      5  C   UNL     1       0.136   1.390  -0.065  0.00  0.00    +0.044 C 
ATOM      6  C   UNL     1       0.086  -0.116  -0.068  0.00  0.00    -0.050 A 
ATOM      7  C   UNL     1       0.759  -0.827  -1.045  0.00  0.00    +0.008 A 
ATOM      8  C   UNL     1       0.715  -2.207  -1.051  0.00  0.00    -0.029 A 
ATOM      9  C   UNL     1      -0.005  -2.882  -0.074  0.00  0.00    +0.039 A 
ATOM     10  C   UNL     1      -0.679  -2.165   0.906  0.00  0.00    -0.029 A 
ATOM     11  C   UNL     1      -0.628  -0.785   0.909  0.00  0.00    +0.008 A 
ATOM     12  C   UNL     1      -1.463  -2.893   1.968  0.00  0.00    +0.045 C 
ATOM     13  C   UNL     1       1.448  -2.981  -2.116  0.00  0.00    +0.045 C 
ENDBRANCH   1   9
BRANCH   2  14
ATOM     14  C   UNL     1       0.399  -6.476   0.969  0.00  0.00    +0.205 C 
BRANCH  14  15
ATOM     15  N   UNL     1       0.858  -6.983   2.265  0.00  0.00    -0.280 N 
ATOM     16  C   UNL     1      -0.114  -7.292   3.317  0.00  0.00    +0.134 C 
ATOM     17  C   UNL     1       2.174  -7.167   2.489  0.00  0.00    +0.307 C 
ATOM     18  O   UNL     1       2.981  -6.911   1.615  0.00  0.00    -0.252 OA
ATOM     19  N   UNL     1       2.596  -7.634   3.680  0.00  0.00    -0.267 N 
ATOM     20  H   UNL     1       1.953  -7.838   4.377  0.00  0.00    +0.156 HD
BRANCH  19  21
ATOM     21  C   UNL     1       3.972  -7.826   3.914  0.00  0.00    +0.072 A 
ATOM     22  C   UNL     1       4.530  -8.293   5.060  0.00  0.00    +0.128 A 
ATOM     23  N   UNL     1       5.876  -8.329   4.875  0.00  0.00    -0.283 N 
ATOM     24  H   UNL     1       6.534  -8.620   5.526  0.00  0.00    +0.188 HD
ATOM     25  N   UNL     1       6.144  -7.870   3.579  0.00  0.00    -0.180 NA
ATOM     26  C   UNL     1       5.008  -7.575   3.003  0.00  0.00    +0.157 A 
ENDBRANCH  19  21
ENDBRANCH  14  15
ENDBRANCH   2  14
TORSDOF 4
