REMARK  Name = ZINC44793078
REMARK  5 active torsions:
REMARK  status: ('A' for Active; 'I' for Inactive)
REMARK    1  A    between atoms: C_4  and  C_6
REMARK    2  A    between atoms: C_4  and  C_10
REMARK    3  A    between atoms: N_7  and  O_8
REMARK    4  A    between atoms: N_12  and  C_13
REMARK    5  A    between atoms: N_17  and  C_19
REMARK                            x       y       z     vdW  Elec       q    Type
REMARK                         _______ _______ _______ _____ _____    ______ ____
ROOT
ATOM      1  C   UNL     1       2.094  -1.433   0.339  0.00  0.00    +0.227 C 
ATOM      2  O   UNL     1       3.093  -0.976   0.852  0.00  0.00    -0.275 OA
ATOM      3  N   UNL     1       1.659  -2.661   0.687  0.00  0.00    -0.313 N 
ATOM      4  H   UNL     1       0.904  -3.057   0.225  0.00  0.00    +0.149 HD
ENDROOT
BRANCH   3   5
ATOM      5  C   UNL     1       2.328  -3.397   1.762  0.00  0.00    +0.055 C 
ATOM      6  C   UNL     1       3.510  -4.217   1.197  0.00  0.00    +0.002 C 
ATOM      7  C   UNL     1       3.431  -5.539   2.001  0.00  0.00    -0.077 C 
ATOM      8  N   UNL     1       1.970  -5.770   2.133  0.00  0.00    +0.383 N 
ATOM      9  C   UNL     1       1.371  -4.437   2.374  0.00  0.00    -0.056 C 
ATOM     10  H   UNL     1       1.602  -6.169   1.282  0.00  0.00    -0.081 HD
BRANCH   8  11
ATOM     11  C   UNL     1       1.698  -6.659   3.271  0.00  0.00    -0.069 C 
ATOM     12  C   UNL     1       1.141  -8.050   2.962  0.00  0.00    -0.017 C 
ATOM     13  C   UNL     1       0.235  -6.983   3.580  0.00  0.00    -0.017 C 
ENDBRANCH   8  11
ENDBRANCH   3   5
BRANCH   1  17
ATOM     14  C   UNL     1      -0.120   1.280  -0.111  0.00  0.00    +0.001 C 
ATOM     15  C   UNL     1       1.363   1.721  -0.036  0.00  0.00    +0.001 C 
ATOM     16  C   UNL     1       2.071   0.700  -0.961  0.00  0.00    +0.024 C 
ATOM     17  C   UNL     1       1.338  -0.629  -0.687  0.00  0.00    +0.105 C 
ATOM     18  C   UNL     1      -0.055  -0.261  -0.147  0.00  0.00    +0.024 C 
BRANCH  17  19
ATOM     19  C   UNL     1       1.204  -1.417  -1.965  0.00  0.00    +0.147 C 
ATOM     20  N   UNL     1       0.465  -0.970  -2.925  0.00  0.00    -0.076 NA
ATOM     21  N   UNL     1       1.870  -2.614  -2.108  0.00  0.00    -0.343 N 
ATOM     22  H   UNL     1       2.491  -2.909  -1.424  0.00  0.00    +0.144 HD
ATOM     23  H   UNL     1       1.718  -3.163  -2.894  0.00  0.00    +0.144 HD
BRANCH  20  24
ATOM     24  O   UNL     1      -0.117   0.317  -2.830  0.00  0.00    -0.408 OA
ATOM     25  H   UNL     1      -0.652   0.564  -3.596  0.00  0.00    +0.328 HD
ENDBRANCH  20  24
ENDBRANCH  17  19
ENDBRANCH   1  17
TORSDOF 5
