REMARK  Name = ZINC04177670
REMARK  11 active torsions:
REMARK  status: ('A' for Active; 'I' for Inactive)
REMARK    1  A    between atoms: C_1  and  C_2
REMARK    2  A    between atoms: C_2  and  C_3
REMARK    3  A    between atoms: C_2  and  C_4
REMARK    4  A    between atoms: C_4  and  C_5
REMARK    5  A    between atoms: N_7  and  C_8
REMARK    6  A    between atoms: C_8  and  C_10
REMARK    7  A    between atoms: C_8  and  N_14
REMARK    8  A    between atoms: N_14  and  C_15
REMARK    9  A    between atoms: C_15  and  N_17
REMARK   10  A    between atoms: N_17  and  C_18
REMARK   11  A    between atoms: C_19  and  C_27
REMARK                            x       y       z     vdW  Elec       q    Type
REMARK                         _______ _______ _______ _____ _____    ______ ____
ROOT
ATOM      1  C   UNL     1      -2.993   0.085   2.159  0.00  0.00    +0.136 C 
ATOM      2  S   UNL     1      -2.229  -1.347   1.615  0.00  0.00    -0.019 S 
ENDROOT
BRANCH   1   3
ATOM      3  N   UNL     1      -3.045   1.167   1.357  0.00  0.00    -0.305 N 
ATOM      4  H   UNL     1      -3.478   1.979   1.665  0.00  0.00    +0.150 HD
BRANCH   3   5
ATOM      5  C   UNL     1      -2.449   1.117   0.020  0.00  0.00    +0.211 C 
BRANCH   5   8
ATOM      6  C   UNL     1      -0.014   1.209   0.009  0.00  0.00    +0.215 C 
ATOM      7  O   UNL     1       0.002  -0.004   0.002  0.00  0.00    -0.276 OA
ATOM      8  N   UNL     1      -1.191   1.867   0.018  0.00  0.00    -0.294 N 
ATOM      9  H   UNL     1      -1.204   2.837   0.023  0.00  0.00    +0.151 HD
BRANCH   6  10
ATOM     10  C   UNL     1       1.280   1.980   0.001  0.00  0.00    +0.098 C 
BRANCH  10  12
ATOM     11  C   UNL     1       3.766   1.781  -0.150  0.00  0.00    +0.008 C 
ATOM     12  C   UNL     1       2.457   1.002  -0.016  0.00  0.00    -0.008 C 
ATOM     13  C   UNL     1       2.471   0.200   1.287  0.00  0.00    +0.008 C 
ENDBRANCH  10  12
ENDBRANCH   6  10
ENDBRANCH   5   8
BRANCH   5  14
ATOM     14  C   UNL     1      -3.414   1.738  -0.992  0.00  0.00    +0.225 C 
ATOM     15 CL   UNL     1      -2.680   1.676  -2.638  0.00  0.00    -0.080 Cl
ATOM     16 CL   UNL     1      -4.963   0.815  -0.990  0.00  0.00    -0.080 Cl
ATOM     17 CL   UNL     1      -3.736   3.454  -0.541  0.00  0.00    -0.080 Cl
ENDBRANCH   5  14
ENDBRANCH   3   5
ENDBRANCH   1   3
BRANCH   1  18
ATOM     18  N   UNL     1      -3.541   0.131   3.389  0.00  0.00    -0.291 N 
ATOM     19  H   UNL     1      -3.974   0.943   3.698  0.00  0.00    +0.154 HD
BRANCH  18  20
ATOM     20  C   UNL     1      -3.487  -0.981   4.214  0.00  0.00    +0.084 A 
ATOM     21  C   UNL     1      -3.984  -1.125   5.502  0.00  0.00    +0.068 A 
ATOM     22  C   UNL     1      -3.799  -2.410   6.154  0.00  0.00    -0.023 A 
ATOM     23  C   UNL     1      -3.140  -3.336   5.423  0.00  0.00    -0.004 A 
ATOM     24  S   UNL     1      -2.776  -2.528   3.891  0.00  0.00    -0.077 S 
ATOM     25  C   UNL     1      -2.800  -4.736   5.833  0.00  0.00    +0.043 C 
ATOM     26  C   UNL     1      -2.981  -4.852   7.354  0.00  0.00    +0.005 C 
ATOM     27  C   UNL     1      -4.333  -4.246   7.738  0.00  0.00    +0.005 C 
ATOM     28  C   UNL     1      -4.292  -2.727   7.561  0.00  0.00    +0.037 C 
BRANCH  21  29
ATOM     29  C   UNL     1      -4.674  -0.022   6.178  0.00  0.00    +0.244 C 
ATOM     30  O   UNL     1      -5.880   0.100   6.067  0.00  0.00    -0.270 OA
ATOM     31  N   UNL     1      -3.973   0.856   6.923  0.00  0.00    -0.325 N 
ATOM     32  H   UNL     1      -3.012   0.758   7.011  0.00  0.00    +0.145 HD
ATOM     33  H   UNL     1      -4.430   1.585   7.370  0.00  0.00    +0.145 HD
ENDBRANCH  21  29
ENDBRANCH  18  20
ENDBRANCH   1  18
TORSDOF 9
