REMARK  Name = ZINC02051265
REMARK  8 active torsions:
REMARK  status: ('A' for Active; 'I' for Inactive)
REMARK    1  A    between atoms: C_1  and  C_2
REMARK    2  A    between atoms: C_2  and  C_3
REMARK    3  A    between atoms: C_3  and  N_4
REMARK    4  A    between atoms: C_11  and  C_23
REMARK    5  A    between atoms: C_13  and  C_19
REMARK    6  A    between atoms: C_13  and  C_21
REMARK    7  A    between atoms: C_14  and  N_18
REMARK    8  A    between atoms: C_15  and  C_16
REMARK                            x       y       z     vdW  Elec       q    Type
REMARK                         _______ _______ _______ _____ _____    ______ ____
ROOT
ATOM      1  N   UNL     1       1.792   3.285   3.270  0.00  0.00    -0.298 NA
ATOM      2  C   UNL     1       2.682   2.205   3.733  0.00  0.00    +0.112 C 
ATOM      3  C   UNL     1       3.212   1.496   2.512  0.00  0.00    -0.007 C 
ATOM      4  C   UNL     1       3.429   2.172   1.399  0.00  0.00    -0.026 C 
ATOM      5  C   UNL     1       3.223   3.656   1.291  0.00  0.00    +0.044 C 
ATOM      6  C   UNL     1       2.554   4.271   2.499  0.00  0.00    +0.093 C 
ATOM      7  C   UNL     1       2.452   3.936   0.000  0.00  0.00    +0.069 C 
ATOM      8  C   UNL     1       3.304   3.494  -1.190  0.00  0.00    +0.188 C 
ATOM      9  C   UNL     1       3.816   2.096  -1.021  0.00  0.00    +0.054 C 
ATOM     10  C   UNL     1       3.894   1.465   0.179  0.00  0.00    +0.074 C 
ENDROOT
BRANCH   7  11
ATOM     11  C   UNL     1       1.157   3.165   0.008  0.00  0.00    -0.023 A 
ATOM     12  C   UNL     1       1.155   1.815  -0.287  0.00  0.00    +0.005 A 
ATOM     13  C   UNL     1      -0.033   1.107  -0.280  0.00  0.00    +0.000 A 
ATOM     14  C   UNL     1      -1.220   1.752   0.017  0.00  0.00    +0.001 A 
ATOM     15  C   UNL     1      -1.218   3.100   0.318  0.00  0.00    +0.020 A 
ATOM     16  C   UNL     1      -0.029   3.809   0.311  0.00  0.00    +0.045 A 
ATOM     17 CL   UNL     1      -0.027   5.505   0.681  0.00  0.00    -0.083 Cl
ENDBRANCH   7  11
BRANCH   9  18
ATOM     18  N   UNL     1       4.226   1.418  -2.134  0.00  0.00    -0.358 N 
ATOM     19  H   UNL     1       4.607   0.390  -2.043  0.00  0.00    +0.142 HD
ATOM     20  H   UNL     1       4.176   1.901  -3.122  0.00  0.00    +0.142 HD
ENDBRANCH   9  18
BRANCH  10  21
ATOM     21  C   UNL     1       4.418   0.135   0.267  0.00  0.00    +0.101 C 
ATOM     22  N   UNL     1       4.833  -0.919   0.337  0.00  0.00    -0.191 NA
ENDBRANCH  10  21
BRANCH   8  23
ATOM     23  C   UNL     1       2.489   3.561  -2.414  0.00  0.00    +0.091 C 
ATOM     24  N   UNL     1       1.860   3.612  -3.359  0.00  0.00    -0.194 NA
ENDBRANCH   8  23
BRANCH   8  25
ATOM     25  C   UNL     1       4.448   4.410  -1.327  0.00  0.00    +0.091 C 
ATOM     26  N   UNL     1       5.331   5.117  -1.433  0.00  0.00    -0.194 NA
ENDBRANCH   8  25
BRANCH   1  27
ATOM     27  C   UNL     1       1.102   3.920   4.400  0.00  0.00    +0.084 C 
BRANCH  27  29
ATOM     28  C   UNL     1      -0.592   3.582   6.206  0.00  0.00    +0.005 C 
ATOM     29  C   UNL     1       0.128   2.921   5.029  0.00  0.00    +0.012 C 
ENDBRANCH  27  29
ENDBRANCH   1  27
TORSDOF 7
