REMARK  Name = ZINC56205152
REMARK  15 active torsions:
REMARK  status: ('A' for Active; 'I' for Inactive)
REMARK    1  A    between atoms: C_1  and  C_2
REMARK    2  A    between atoms: C_2  and  C_3
REMARK    3  A    between atoms: C_3  and  C_4
REMARK    4  A    between atoms: C_3  and  C_5
REMARK    5  A    between atoms: C_3  and  N_6
REMARK    6  A    between atoms: C_7  and  C_9
REMARK    7  A    between atoms: C_9  and  C_11
REMARK    8  A    between atoms: C_9  and  N_12
REMARK    9  A    between atoms: N_12  and  C_13
REMARK   10  A    between atoms: C_16  and  N_21
REMARK   11  A    between atoms: C_17  and  O_19
REMARK   12  A    between atoms: O_19  and  C_20
REMARK   13  A    between atoms: N_21  and  S_22
REMARK   14  A    between atoms: S_22  and  C_25
REMARK   15  A    between atoms: C_25  and  C_26
REMARK                            x       y       z     vdW  Elec       q    Type
REMARK                         _______ _______ _______ _____ _____    ______ ____
ROOT
ATOM      1  C   UNL     1       3.265  -5.682   3.538  0.00  0.00    +0.031 A 
ATOM      2  C   UNL     1       3.062  -6.421   2.381  0.00  0.00    +0.025 A 
ATOM      3  C   UNL     1       3.474  -7.739   2.318  0.00  0.00    +0.030 A 
ATOM      4  C   UNL     1       4.092  -8.325   3.412  0.00  0.00    +0.089 A 
ATOM      5  C   UNL     1       4.297  -7.586   4.574  0.00  0.00    +0.144 A 
ATOM      6  C   UNL     1       3.889  -6.264   4.633  0.00  0.00    +0.070 A 
ENDROOT
BRANCH   1   7
ATOM      7  N   UNL     1       2.847  -4.348   3.599  0.00  0.00    -0.333 N 
ATOM      8  H   UNL     1       2.993  -3.830   4.407  0.00  0.00    +0.147 HD
BRANCH   7   9
ATOM      9  C   UNL     1       2.188  -3.733   2.444  0.00  0.00    +0.154 C 
ATOM     10  C   UNL     1       0.692  -4.051   2.481  0.00  0.00    +0.038 C 
BRANCH   9  12
ATOM     11  N   UNL     1       1.864  -1.461   1.521  0.00  0.00    -0.309 N 
ATOM     12  C   UNL     1       2.386  -2.240   2.489  0.00  0.00    +0.233 C 
ATOM     13  O   UNL     1       3.015  -1.738   3.397  0.00  0.00    -0.274 OA
ATOM     14  H   UNL     1       1.361  -1.862   0.794  0.00  0.00    +0.149 HD
BRANCH  11  15
ATOM     15  C   UNL     1       2.056  -0.009   1.565  0.00  0.00    +0.029 C 
ATOM     16  C   UNL     1       3.553   0.308   1.528  0.00  0.00    +0.031 C 
ATOM     17  C   UNL     1       1.448   0.547   2.854  0.00  0.00    +0.031 C 
BRANCH  15  19
ATOM     18  C   UNL     1       1.570   2.149   0.404  0.00  0.00    +0.006 C 
ATOM     19  C   UNL     1       1.369   0.633   0.358  0.00  0.00    +0.022 C 
ENDBRANCH  15  19
ENDBRANCH  11  15
ENDBRANCH   9  12
ENDBRANCH   7   9
ENDBRANCH   1   7
BRANCH   5  20
ATOM     20  O   UNL     1       4.903  -8.161   5.648  0.00  0.00    -0.493 OA
ATOM     21  C   UNL     1       5.081  -7.343   6.807  0.00  0.00    +0.277 C 
ENDBRANCH   5  20
BRANCH   4  22
ATOM     22  N   UNL     1       4.509  -9.663   3.348  0.00  0.00    -0.217 N 
ATOM     23  H   UNL     1       4.454 -10.227   4.135  0.00  0.00    +0.173 HD
BRANCH  22  24
ATOM     24  S   UNL     1       5.097 -10.280   1.928  0.00  0.00    +0.043 S 
ATOM     25  O   UNL     1       5.501 -11.605   2.248  0.00  0.00    -0.155 OA
ATOM     26  O   UNL     1       4.068 -10.046   0.977  0.00  0.00    -0.155 OA
BRANCH  24  27
ATOM     27  C   UNL     1       6.548  -9.261   1.542  0.00  0.00    +0.185 C 
ATOM     28  C   UNL     1       7.179  -9.746   0.236  0.00  0.00    +0.030 C 
ENDBRANCH  24  27
ENDBRANCH  22  24
ENDBRANCH   4  22
TORSDOF 9
