REMARK  Name = ZINC06816390
REMARK  8 active torsions:
REMARK  status: ('A' for Active; 'I' for Inactive)
REMARK    1  A    between atoms: C_4  and  O_7
REMARK    2  A    between atoms: O_7  and  C_8
REMARK    3  A    between atoms: C_8  and  C_9
REMARK    4  A    between atoms: N_11  and  C_12
REMARK    5  A    between atoms: C_12  and  N_14
REMARK    6  A    between atoms: N_14  and  C_15
REMARK    7  A    between atoms: C_18  and  N_22
REMARK    8  A    between atoms: C_20  and  O_21
REMARK                            x       y       z     vdW  Elec       q    Type
REMARK                         _______ _______ _______ _____ _____    ______ ____
ROOT
ATOM      1  C   UNL     1      -0.025   1.751  -0.234  0.00  0.00    +0.141 C 
ATOM      2  S   UNL     1       0.005   0.074  -0.576  0.00  0.00    -0.018 S 
ENDROOT
BRANCH   1   5
ATOM      3  C   UNL     1       2.294   1.843  -0.485  0.00  0.00    +0.256 C 
ATOM      4  O   UNL     1       2.315   0.656  -0.727  0.00  0.00    -0.272 OA
ATOM      5  N   UNL     1       1.122   2.457  -0.225  0.00  0.00    -0.265 N 
ATOM      6  H   UNL     1       1.105   3.408  -0.031  0.00  0.00    +0.157 HD
BRANCH   3   7
ATOM      7  C   UNL     1       3.577   2.633  -0.474  0.00  0.00    +0.324 C 
BRANCH   7   8
ATOM      8  O   UNL     1       4.672   1.767  -0.776  0.00  0.00    -0.483 OA
BRANCH   8  12
ATOM      9  C   UNL     1       8.432   3.463  -0.871  0.00  0.00    +0.000 A 
ATOM     10  C   UNL     1       8.277   2.113  -1.125  0.00  0.00    +0.004 A 
ATOM     11  C   UNL     1       7.019   1.542  -1.094  0.00  0.00    +0.045 A 
ATOM     12  C   UNL     1       5.911   2.325  -0.807  0.00  0.00    +0.121 A 
ATOM     13  C   UNL     1       6.068   3.681  -0.558  0.00  0.00    +0.045 A 
ATOM     14  C   UNL     1       7.328   4.245  -0.585  0.00  0.00    +0.004 A 
ENDBRANCH   8  12
ENDBRANCH   7   8
ENDBRANCH   3   7
ENDBRANCH   1   5
BRANCH   1  15
ATOM     15  N   UNL     1      -1.197   2.366   0.021  0.00  0.00    -0.294 N 
ATOM     16  H   UNL     1      -1.209   3.301   0.276  0.00  0.00    +0.154 HD
BRANCH  15  17
ATOM     17  C   UNL     1      -2.399   1.653  -0.083  0.00  0.00    +0.075 A 
ATOM     18  C   UNL     1      -2.518   0.401   0.501  0.00  0.00    +0.029 A 
ATOM     19  C   UNL     1      -3.705  -0.300   0.397  0.00  0.00    +0.035 A 
ATOM     20  C   UNL     1      -4.775   0.244  -0.288  0.00  0.00    +0.130 A 
ATOM     21  C   UNL     1      -4.665   1.492  -0.873  0.00  0.00    +0.080 A 
ATOM     22  C   UNL     1      -3.480   2.204  -0.769  0.00  0.00    +0.140 A 
BRANCH  20  23
ATOM     23  N   UNL     1      -6.044  -0.511  -0.395  0.00  0.00    +0.057 N 
ATOM     24  O   UNL     1      -6.144  -1.610   0.119  0.00  0.00    -0.126 OA
ATOM     25  O   UNL     1      -6.988  -0.033  -0.998  0.00  0.00    -0.126 OA
ENDBRANCH  20  23
BRANCH  22  26
ATOM     26  O   UNL     1      -3.371   3.433  -1.338  0.00  0.00    -0.505 OA
ATOM     27  H   UNL     1      -3.054   3.417  -2.252  0.00  0.00    +0.292 HD
ENDBRANCH  22  26
ENDBRANCH  15  17
ENDBRANCH   1  15
TORSDOF 8
