REMARK  Name = ZINC13041953
REMARK  8 active torsions:
REMARK  status: ('A' for Active; 'I' for Inactive)
REMARK    1  A    between atoms: C_1  and  C_2
REMARK    2  A    between atoms: C_2  and  N_55
REMARK    3  A    between atoms: C_3  and  C_4
REMARK    4  A    between atoms: C_3  and  N_55
REMARK    5  A    between atoms: C_5  and  C_7
REMARK    6  A    between atoms: C_5  and  C_22
REMARK    7  A    between atoms: C_5  and  N_55
REMARK    8  A    between atoms: C_7  and  N_8
REMARK                            x       y       z     vdW  Elec       q    Type
REMARK                         _______ _______ _______ _____ _____    ______ ____
ROOT
ATOM      1  C   UNL     1      -5.291  -0.193  -3.942  0.00  0.00    +0.092 C 
ENDROOT
BRANCH   1   2
ATOM      2  N   UNL     1      -4.500   0.399  -2.860  0.00  0.00    -0.330 N 
ATOM      3  C   UNL     1      -5.102   0.707  -1.653  0.00  0.00    +0.130 A 
ATOM      4  C   UNL     1      -4.381   1.304  -0.579  0.00  0.00    +0.051 A 
ATOM      5  C   UNL     1      -2.975   1.673  -0.563  0.00  0.00    -0.025 A 
ATOM      6  C   UNL     1      -2.506   2.229   0.577  0.00  0.00    -0.004 A 
ATOM      7  S   UNL     1      -3.900   2.290   1.675  0.00  0.00    -0.073 S 
ATOM      8  C   UNL     1      -5.107   1.571   0.609  0.00  0.00    +0.114 A 
ATOM      9  N   UNL     1      -6.388   1.295   0.752  0.00  0.00    -0.228 NA
ATOM     10  C   UNL     1      -7.000   0.739  -0.287  0.00  0.00    +0.224 A 
ATOM     11  N   UNL     1      -6.390   0.462  -1.422  0.00  0.00    -0.220 NA
ATOM     12  C   UNL     1      -1.106   2.694   0.855  0.00  0.00    +0.043 C 
ATOM     13  C   UNL     1      -0.182   2.110  -0.223  0.00  0.00    +0.005 C 
ATOM     14  C   UNL     1      -0.816   2.345  -1.597  0.00  0.00    +0.005 C 
ATOM     15  C   UNL     1      -2.049   1.456  -1.757  0.00  0.00    +0.037 C 
ATOM     16  H   UNL     1      -3.556   0.576  -2.990  0.00  0.00    +0.147 HD
ENDBRANCH   1   2
BRANCH   1  17
ATOM     17  C   UNL     1      -4.365  -0.578  -5.098  0.00  0.00    -0.019 C 
BRANCH  17  18
ATOM     18  C   UNL     1      -5.170  -0.699  -6.367  0.00  0.00    -0.041 A 
ATOM     19  C   UNL     1      -5.832  -1.877  -6.655  0.00  0.00    +0.003 A 
ATOM     20  C   UNL     1      -6.574  -1.987  -7.816  0.00  0.00    +0.000 A 
ATOM     21  C   UNL     1      -6.645  -0.922  -8.695  0.00  0.00    +0.001 A 
ATOM     22  C   UNL     1      -5.979   0.255  -8.410  0.00  0.00    +0.020 A 
ATOM     23  C   UNL     1      -5.240   0.367  -7.246  0.00  0.00    +0.043 A 
ATOM     24 CL   UNL     1      -4.402   1.845  -6.888  0.00  0.00    -0.083 Cl
ENDBRANCH  17  18
BRANCH  17  25
ATOM     25  N   UNL     1      -3.739  -1.885  -4.806  0.00  0.00    +0.385 N 
ATOM     26  H   UNL     1      -4.434  -2.627  -4.950  0.00  0.00    -0.081 HD
BRANCH  25  28
ATOM     27  C   UNL     1      -3.139  -2.564  -7.076  0.00  0.00    -0.017 C 
ATOM     28  C   UNL     1      -2.598  -2.113  -5.718  0.00  0.00    -0.081 C 
ENDBRANCH  25  28
BRANCH  25  29
ATOM     29  C   UNL     1      -3.280  -1.923  -3.402  0.00  0.00    -0.081 C 
ATOM     30  C   UNL     1      -4.365  -2.590  -2.554  0.00  0.00    -0.017 C 
ENDBRANCH  25  29
ENDBRANCH  17  25
ENDBRANCH   1  17
TORSDOF 6
