REMARK  Name = ZINC42142811
REMARK  7 active torsions:
REMARK  status: ('A' for Active; 'I' for Inactive)
REMARK    1  A    between atoms: C_1  and  C_2
REMARK    2  A    between atoms: C_2  and  N_3
REMARK    3  A    between atoms: C_7  and  C_9
REMARK    4  A    between atoms: C_9  and  C_11
REMARK    5  A    between atoms: C_9  and  S_12
REMARK    6  A    between atoms: S_12  and  C_13
REMARK    7  A    between atoms: C_18  and  N_22
REMARK                            x       y       z     vdW  Elec       q    Type
REMARK                         _______ _______ _______ _____ _____    ______ ____
ROOT
ATOM      1  S   UNL     1       3.050  -5.736   3.581  0.00  0.00    -0.055 S 
ENDROOT
BRANCH   1   2
ATOM      2  C   UNL     1       3.984  -6.113   5.026  0.00  0.00    +0.259 A 
ATOM      3  N   UNL     1       4.110  -5.326   6.064  0.00  0.00    -0.203 NA
ATOM      4  C   UNL     1       4.901  -5.943   6.987  0.00  0.00    +0.111 A 
ATOM      5  C   UNL     1       5.363  -5.582   8.253  0.00  0.00    +0.033 A 
ATOM      6  C   UNL     1       6.171  -6.445   8.959  0.00  0.00    +0.025 A 
ATOM      7  C   UNL     1       6.529  -7.676   8.416  0.00  0.00    +0.028 A 
ATOM      8  C   UNL     1       6.075  -8.045   7.159  0.00  0.00    +0.071 A 
ATOM      9  C   UNL     1       5.262  -7.184   6.440  0.00  0.00    +0.158 A 
ATOM     10  O   UNL     1       4.669  -7.254   5.226  0.00  0.00    -0.431 OA
BRANCH   7  11
ATOM     11  N   UNL     1       7.350  -8.546   9.142  0.00  0.00    -0.358 N 
ATOM     12  H   UNL     1       7.669  -8.290  10.022  0.00  0.00    +0.142 HD
ATOM     13  H   UNL     1       7.600  -9.404   8.766  0.00  0.00    +0.142 HD
ENDBRANCH   7  11
ENDBRANCH   1   2
BRANCH   1  14
ATOM     14  C   UNL     1       2.378  -4.084   3.911  0.00  0.00    +0.139 C 
ATOM     15  C   UNL     1       1.407  -4.155   5.091  0.00  0.00    +0.029 C 
BRANCH  14  20
ATOM     16  N   UNL     1       0.711  -0.489   1.189  0.00  0.00    -0.299 N 
ATOM     17  C   UNL     1       0.854  -1.814   1.394  0.00  0.00    +0.306 C 
ATOM     18  O   UNL     1       0.395  -2.606   0.594  0.00  0.00    -0.252 OA
ATOM     19  N   UNL     1       1.506  -2.260   2.486  0.00  0.00    -0.239 N 
ATOM     20  C   UNL     1       1.649  -3.585   2.690  0.00  0.00    +0.234 C 
ATOM     21  O   UNL     1       1.191  -4.374   1.893  0.00  0.00    -0.274 OA
ATOM     22  H   UNL     1       1.077   0.142   1.827  0.00  0.00    +0.150 HD
ATOM     23  H   UNL     1       1.872  -1.628   3.124  0.00  0.00    +0.159 HD
BRANCH  16  25
ATOM     24  C   UNL     1      -0.019   1.526   0.010  0.00  0.00    +0.024 C 
ATOM     25  C   UNL     1       0.002  -0.004   0.002  0.00  0.00    +0.102 C 
ENDBRANCH  16  25
ENDBRANCH  14  20
ENDBRANCH   1  14
TORSDOF 5
