REMARK  Name = ZINC24704559
REMARK  9 active torsions:
REMARK  status: ('A' for Active; 'I' for Inactive)
REMARK    1  A    between atoms: C_1  and  C_2
REMARK    2  A    between atoms: C_2  and  C_3
REMARK    3  A    between atoms: C_2  and  C_4
REMARK    4  A    between atoms: C_2  and  C_5
REMARK    5  A    between atoms: C_12  and  C_14
REMARK    6  A    between atoms: N_16  and  N_17
REMARK    7  A    between atoms: C_18  and  C_20
REMARK    8  A    between atoms: C_20  and  C_21
REMARK    9  A    between atoms: C_21  and  N_22
REMARK                            x       y       z     vdW  Elec       q    Type
REMARK                         _______ _______ _______ _____ _____    ______ ____
ROOT
ATOM      1  N   UNL     1       2.555   4.187   0.000  0.00  0.00    -0.234 N 
ATOM      2  C   UNL     1       1.397   3.497   0.007  0.00  0.00    +0.231 C 
ATOM      3  O   UNL     1       0.339   4.089   0.021  0.00  0.00    -0.274 OA
ATOM      4  H   UNL     1       3.515   3.650  -0.012  0.00  0.00    +0.173 HD
ENDROOT
BRANCH   1   7
ATOM      5  C   UNL     1       3.694   6.277   0.001  0.00  0.00    +0.267 C 
ATOM      6  O   UNL     1       4.756   5.683  -0.013  0.00  0.00    -0.268 OA
ATOM      7  N   UNL     1       2.536   5.588   0.008  0.00  0.00    -0.230 N 
ATOM      8  H   UNL     1       1.576   6.125   0.020  0.00  0.00    +0.173 HD
BRANCH   5  15
ATOM      9  C   UNL     1       4.931  12.382  -0.441  0.00  0.00    -0.001 C 
ATOM     10  C   UNL     1       3.702  12.704   0.413  0.00  0.00    +0.009 C 
ATOM     11  C   UNL     1       2.574  11.730   0.042  0.00  0.00    +0.043 C 
ATOM     12  C   UNL     1       3.135  10.341   0.028  0.00  0.00    -0.006 A 
ATOM     13  C   UNL     1       4.454   9.986   0.013  0.00  0.00    -0.036 A 
ATOM     14  C   UNL     1       4.735   8.630   0.003  0.00  0.00    +0.024 A 
ATOM     15  C   UNL     1       3.674   7.743   0.009  0.00  0.00    +0.076 A 
ATOM     16  S   UNL     1       2.274   8.850   0.020  0.00  0.00    -0.088 S 
ATOM     17  C   UNL     1       5.544  11.055   0.008  0.00  0.00    +0.040 C 
BRANCH   9  19
ATOM     18  C   UNL     1       7.190  13.184  -1.146  0.00  0.00    +0.011 C 
ATOM     19  C   UNL     1       5.965  13.498  -0.284  0.00  0.00    -0.035 C 
ATOM     20  C   UNL     1       5.354  14.827  -0.733  0.00  0.00    +0.011 C 
ATOM     21  C   UNL     1       6.387  13.601   1.183  0.00  0.00    +0.011 C 
ENDBRANCH   9  19
ENDBRANCH   5  15
ENDBRANCH   1   7
BRANCH   2  22
ATOM     22  C   UNL     1       1.418   1.990  -0.001  0.00  0.00    +0.117 C 
BRANCH  22  23
ATOM     23  C   UNL     1      -0.018   1.461   0.010  0.00  0.00    +0.127 C 
BRANCH  23  24
ATOM     24  N   UNL     1       0.002  -0.004   0.002  0.00  0.00    -0.224 N 
ATOM     25  C   UNL     1       0.023  -0.769   1.115  0.00  0.00    +0.247 C 
ATOM     26  O   UNL     1       0.029  -0.392   2.267  0.00  0.00    -0.273 OA
ATOM     27  C   UNL     1       0.037  -2.192   0.618  0.00  0.00    +0.113 C 
ATOM     28  C   UNL     1      -1.188  -2.965   1.123  0.00  0.00    +0.035 C 
ATOM     29  C   UNL     1      -0.655  -4.403   1.357  0.00  0.00    +0.003 C 
ATOM     30  C   UNL     1       0.773  -4.156   1.906  0.00  0.00    +0.003 C 
ATOM     31  C   UNL     1       1.283  -2.938   1.104  0.00  0.00    +0.035 C 
ATOM     32  N   UNL     1       0.022  -2.072  -0.841  0.00  0.00    -0.285 N 
ATOM     33  C   UNL     1      -0.004  -0.751  -1.110  0.00  0.00    +0.309 C 
ATOM     34  O   UNL     1      -0.027  -0.290  -2.234  0.00  0.00    -0.252 OA
ATOM     35  H   UNL     1       0.033  -2.976  -1.468  0.00  0.00    +0.151 HD
ENDBRANCH  23  24
ENDBRANCH  22  23
ENDBRANCH   2  22
TORSDOF 6
