REMARK  Name = ZINC10841467
REMARK  6 active torsions:
REMARK  status: ('A' for Active; 'I' for Inactive)
REMARK    1  A    between atoms: C_4  and  N_10
REMARK    2  A    between atoms: C_5  and  C_7
REMARK    3  A    between atoms: N_10  and  C_11
REMARK    4  A    between atoms: C_11  and  C_12
REMARK    5  A    between atoms: C_15  and  C_27
REMARK    6  A    between atoms: C_18  and  C_20
REMARK                            x       y       z     vdW  Elec       q    Type
REMARK                         _______ _______ _______ _____ _____    ______ ____
ROOT
ATOM      1  C   UNL     1      -1.079  -0.805   0.072  0.00  0.00    +0.252 C 
ATOM      2  O   UNL     1      -2.189  -0.317   0.072  0.00  0.00    -0.272 OA
ATOM      3  N   UNL     1       0.008  -0.007   0.091  0.00  0.00    -0.181 N 
ATOM      4  C   UNL     1      -0.011   1.464   0.112  0.00  0.00    +0.173 C 
ATOM      5  C   UNL     1       1.483   1.844   0.126  0.00  0.00    +0.090 C 
ATOM      6  C   UNL     1       2.198   0.512   0.111  0.00  0.00    +0.069 C 
ATOM      7  N   UNL     1       1.332  -0.441   0.092  0.00  0.00    -0.181 NA
ENDROOT
BRANCH   6   8
ATOM      8  C   UNL     1       3.662   0.332   0.118  0.00  0.00    -0.002 A 
ATOM      9  C   UNL     1       4.505   1.445   0.134  0.00  0.00    +0.011 A 
ATOM     10  C   UNL     1       5.873   1.269   0.146  0.00  0.00    +0.020 A 
ATOM     11  C   UNL     1       6.411  -0.007   0.131  0.00  0.00    +0.041 A 
ATOM     12  C   UNL     1       5.580  -1.115   0.110  0.00  0.00    +0.020 A 
ATOM     13  C   UNL     1       4.210  -0.953   0.104  0.00  0.00    +0.011 A 
ATOM     14 CL   UNL     1       8.134  -0.220   0.139  0.00  0.00    -0.084 Cl
ENDBRANCH   6   8
BRANCH   4  15
ATOM     15  C   UNL     1      -0.683   2.003  -1.124  0.00  0.00    +0.128 A 
ATOM     16  C   UNL     1      -1.502   3.070  -1.172  0.00  0.00    +0.046 A 
ATOM     17  C   UNL     1      -1.903   3.218  -2.520  0.00  0.00    +0.041 A 
ATOM     18  C   UNL     1      -1.304   2.234  -3.215  0.00  0.00    +0.195 A 
ATOM     19  O   UNL     1      -0.563   1.505  -2.365  0.00  0.00    -0.466 OA
ENDBRANCH   4  15
BRANCH   1  20
ATOM     20  C   UNL     1      -0.913  -2.303   0.052  0.00  0.00    +0.199 C 
BRANCH  20  21
ATOM     21  N   UNL     1      -2.233  -2.939   0.034  0.00  0.00    -0.335 N 
ATOM     22  H   UNL     1      -3.035  -2.393   0.037  0.00  0.00    +0.147 HD
BRANCH  21  26
ATOM     23  C   UNL     1      -2.539  -7.094  -0.026  0.00  0.00    +0.001 A 
ATOM     24  C   UNL     1      -1.299  -6.483  -0.125  0.00  0.00    +0.002 A 
ATOM     25  C   UNL     1      -1.194  -5.107  -0.106  0.00  0.00    +0.024 A 
ATOM     26  C   UNL     1      -2.336  -4.324   0.014  0.00  0.00    +0.040 A 
ATOM     27  C   UNL     1      -3.592  -4.940   0.119  0.00  0.00    +0.057 A 
ATOM     28  C   UNL     1      -3.682  -6.334   0.092  0.00  0.00    +0.015 A 
BRANCH  27  29
ATOM     29  C   UNL     1      -4.811  -4.121   0.252  0.00  0.00    +0.243 C 
ATOM     30  O   UNL     1      -4.742  -2.910   0.167  0.00  0.00    -0.270 OA
ATOM     31  N   UNL     1      -6.002  -4.714   0.467  0.00  0.00    -0.325 N 
ATOM     32  H   UNL     1      -6.057  -5.680   0.535  0.00  0.00    +0.145 HD
ATOM     33  H   UNL     1      -6.803  -4.175   0.555  0.00  0.00    +0.145 HD
ENDBRANCH  27  29
ENDBRANCH  21  26
ENDBRANCH  20  21
ENDBRANCH   1  20
TORSDOF 6
