REMARK  Name = ZINC43560194
REMARK  5 active torsions:
REMARK  status: ('A' for Active; 'I' for Inactive)
REMARK    1  A    between atoms: C_1  and  C_2
REMARK    2  A    between atoms: C_7  and  C_8
REMARK    3  A    between atoms: C_8  and  C_9
REMARK    4  A    between atoms: C_11  and  C_14
REMARK    5  A    between atoms: C_15  and  N_19
REMARK                            x       y       z     vdW  Elec       q    Type
REMARK                         _______ _______ _______ _____ _____    ______ ____
ROOT
ATOM      1  C   UNL     1      -1.391   0.382   2.893  0.00  0.00    +0.176 A 
ATOM      2  N   UNL     1      -2.042   1.494   2.550  0.00  0.00    -0.191 NA
ATOM      3  C   UNL     1      -3.263   1.474   3.054  0.00  0.00    +0.267 A 
ATOM      4  O   UNL     1      -3.409   0.323   3.739  0.00  0.00    -0.332 OA
ATOM      5  N   UNL     1      -2.176  -0.370   3.612  0.00  0.00    -0.061 NA
ENDROOT
BRANCH   3   6
ATOM      6  C   UNL     1      -4.276   2.517   2.896  0.00  0.00    +0.097 A 
ATOM      7  C   UNL     1      -5.573   2.563   3.401  0.00  0.00    +0.044 A 
ATOM      8  C   UNL     1      -6.296   3.696   3.076  0.00  0.00    +0.031 A 
ATOM      9  C   UNL     1      -5.715   4.651   2.315  0.00  0.00    +0.048 A 
ATOM     10  S   UNL     1      -4.171   4.062   2.014  0.00  0.00    -0.090 S 
BRANCH   7  11
ATOM     11  N   UNL     1      -6.107   1.536   4.181  0.00  0.00    -0.357 N 
ATOM     12  H   UNL     1      -5.570   0.756   4.389  0.00  0.00    +0.142 HD
ATOM     13  H   UNL     1      -7.015   1.603   4.516  0.00  0.00    +0.142 HD
ENDBRANCH   7  11
ENDBRANCH   3   6
BRANCH   1  14
ATOM     14  C   UNL     1       0.025   0.045   2.504  0.00  0.00    +0.115 C 
BRANCH  14  21
ATOM     15  C   UNL     1      -0.018   1.503   0.010  0.00  0.00    +0.044 C 
ATOM     16  C   UNL     1       0.002  -0.004   0.002  0.00  0.00    -0.047 A 
ATOM     17  C   UNL     1       0.006  -0.689  -1.199  0.00  0.00    +0.003 A 
ATOM     18  C   UNL     1       0.025  -2.071  -1.207  0.00  0.00    +0.000 A 
ATOM     19  C   UNL     1       0.040  -2.768  -0.013  0.00  0.00    +0.000 A 
ATOM     20  C   UNL     1       0.037  -2.084   1.188  0.00  0.00    +0.004 A 
ATOM     21  C   UNL     1       0.023  -0.702   1.195  0.00  0.00    -0.037 A 
ENDBRANCH  14  21
ENDBRANCH   1  14
TORSDOF 4
