REMARK  Name = ZINC20153323
REMARK  11 active torsions:
REMARK  status: ('A' for Active; 'I' for Inactive)
REMARK    1  A    between atoms: C_1  and  O_2
REMARK    2  A    between atoms: O_2  and  C_3
REMARK    3  A    between atoms: C_6  and  C_30
REMARK    4  A    between atoms: C_8  and  N_9
REMARK    5  A    between atoms: N_9  and  C_10
REMARK    6  A    between atoms: C_10  and  N_12
REMARK    7  A    between atoms: C_13  and  C_15
REMARK    8  A    between atoms: C_17  and  N_27
REMARK    9  A    between atoms: C_20  and  N_21
REMARK   10  A    between atoms: C_33  and  C_35
REMARK   11  A    between atoms: C_35  and  O_36
REMARK                            x       y       z     vdW  Elec       q    Type
REMARK                         _______ _______ _______ _____ _____    ______ ____
ROOT
ATOM      1  C   UNL     1       0.055  -4.117  -0.222  0.00  0.00    +0.141 C 
ATOM      2  S   UNL     1       0.814  -4.883  -1.552  0.00  0.00    -0.018 S 
ENDROOT
BRANCH   1   3
ATOM      3  N   UNL     1      -0.579  -4.856   0.709  0.00  0.00    -0.264 N 
ATOM      4  C   UNL     1      -0.617  -6.198   0.594  0.00  0.00    +0.251 C 
ATOM      5  O   UNL     1      -0.078  -6.742  -0.351  0.00  0.00    -0.270 OA
ATOM      6  H   UNL     1      -1.009  -4.422   1.463  0.00  0.00    +0.157 HD
BRANCH   4   7
ATOM      7  C   UNL     1      -1.310  -7.006   1.612  0.00  0.00    +0.060 A 
ATOM      8  C   UNL     1      -1.936  -6.385   2.697  0.00  0.00    +0.047 A 
ATOM      9  C   UNL     1      -2.582  -7.146   3.645  0.00  0.00    +0.127 A 
ATOM     10  C   UNL     1      -2.616  -8.527   3.531  0.00  0.00    +0.034 A 
ATOM     11  C   UNL     1      -2.004  -9.156   2.466  0.00  0.00    +0.026 A 
ATOM     12  C   UNL     1      -1.352  -8.405   1.496  0.00  0.00    +0.042 A 
BRANCH  12  13
ATOM     13  N   UNL     1      -0.740  -9.034   0.420  0.00  0.00    -0.325 N 
ATOM     14  C   UNL     1       0.663  -9.470   0.496  0.00  0.00    +0.133 C 
ATOM     15  C   UNL     1       0.739 -10.936   0.052  0.00  0.00    +0.178 C 
ATOM     16  O   UNL     1       0.098 -11.077  -1.217  0.00  0.00    -0.377 OA
ATOM     17  C   UNL     1      -1.296 -10.761  -1.208  0.00  0.00    +0.178 C 
ATOM     18  C   UNL     1      -1.478  -9.291  -0.827  0.00  0.00    +0.133 C 
ENDBRANCH  12  13
BRANCH   9  19
ATOM     19  N   UNL     1      -3.244  -6.486   4.793  0.00  0.00    +0.056 N 
ATOM     20  O   UNL     1      -3.216  -5.282   4.896  0.00  0.00    -0.126 OA
ATOM     21  O   UNL     1      -3.812  -7.151   5.627  0.00  0.00    -0.126 OA
ENDBRANCH   9  19
ENDBRANCH   4   7
ENDBRANCH   1   3
BRANCH   1  22
ATOM     22  N   UNL     1       0.093  -2.774  -0.106  0.00  0.00    -0.294 N 
ATOM     23  H   UNL     1      -0.282  -2.345   0.678  0.00  0.00    +0.154 HD
BRANCH  22  29
ATOM     24  C   UNL     1       0.004  -0.880  -1.612  0.00  0.00    +0.141 A 
ATOM     25  C   UNL     1       0.579  -0.109  -2.610  0.00  0.00    +0.048 A 
ATOM     26  C   UNL     1       1.813  -0.448  -3.125  0.00  0.00    +0.015 A 
ATOM     27  C   UNL     1       2.487  -1.571  -2.641  0.00  0.00    +0.019 A 
ATOM     28  C   UNL     1       1.909  -2.349  -1.636  0.00  0.00    +0.038 A 
ATOM     29  C   UNL     1       0.673  -2.000  -1.119  0.00  0.00    +0.076 A 
BRANCH  27  30
ATOM     30  C   UNL     1       3.808  -1.936  -3.192  0.00  0.00    +0.135 A 
ATOM     31  C   UNL     1       4.480  -1.264  -4.165  0.00  0.00    +0.050 A 
ATOM     32  C   UNL     1       5.688  -1.958  -4.377  0.00  0.00    +0.047 A 
ATOM     33  C   UNL     1       5.694  -3.008  -3.533  0.00  0.00    +0.131 A 
ATOM     34  O   UNL     1       4.559  -2.988  -2.814  0.00  0.00    -0.457 OA
BRANCH  33  35
ATOM     35  C   UNL     1       6.794  -4.032  -3.411  0.00  0.00    +0.230 C 
BRANCH  35  36
ATOM     36  O   UNL     1       7.742  -3.597  -2.434  0.00  0.00    -0.387 OA
ATOM     37  H   UNL     1       8.479  -4.209  -2.302  0.00  0.00    +0.210 HD
ENDBRANCH  35  36
ENDBRANCH  33  35
ENDBRANCH  27  30
BRANCH  24  39
ATOM     38  C   UNL     1      -1.843   0.617  -1.658  0.00  0.00    +0.277 C 
ATOM     39  O   UNL     1      -1.213  -0.541  -1.108  0.00  0.00    -0.493 OA
ENDBRANCH  24  39
ENDBRANCH  22  29
ENDBRANCH   1  22
TORSDOF 10
