REMARK  Name = ZINC16024696
REMARK  8 active torsions:
REMARK  status: ('A' for Active; 'I' for Inactive)
REMARK    1  A    between atoms: C_1  and  C_2
REMARK    2  A    between atoms: C_2  and  C_3
REMARK    3  A    between atoms: C_3  and  C_5
REMARK    4  A    between atoms: C_3  and  N_6
REMARK    5  A    between atoms: C_11  and  C_29
REMARK    6  A    between atoms: C_29  and  C_30
REMARK    7  A    between atoms: C_33  and  O_37
REMARK    8  A    between atoms: C_34  and  O_36
REMARK                            x       y       z     vdW  Elec       q    Type
REMARK                         _______ _______ _______ _____ _____    ______ ____
ROOT
ATOM      1  N   UNL     1      -0.055  -0.114  -2.441  0.00  0.00    -0.239 N 
ATOM      2  C   UNL     1      -1.315  -0.515  -2.643  0.00  0.00    +0.227 C 
ATOM      3  O   UNL     1      -1.954  -1.222  -1.894  0.00  0.00    -0.275 OA
ATOM      4  C   UNL     1      -1.819   0.051  -3.951  0.00  0.00    +0.107 C 
ATOM      5  C   UNL     1      -2.006  -1.100  -4.962  0.00  0.00    +0.072 C 
ATOM      6  N   UNL     1      -1.386  -0.608  -6.221  0.00  0.00    -0.295 NA
ATOM      7  C   UNL     1      -0.190   0.129  -5.771  0.00  0.00    +0.136 C 
ATOM      8  C   UNL     1      -0.608   0.871  -4.477  0.00  0.00    +0.122 C 
ATOM      9  C   UNL     1       0.440   0.671  -3.405  0.00  0.00    +0.228 C 
ATOM     10  O   UNL     1       1.555   1.146  -3.418  0.00  0.00    -0.275 OA
ATOM     11  C   UNL     1       0.290   1.091  -6.820  0.00  0.00    +0.006 A 
ATOM     12  C   UNL     1      -0.291   2.163  -7.459  0.00  0.00    +0.046 A 
ATOM     13  C   UNL     1       0.424   2.874  -8.409  0.00  0.00    +0.124 A 
ATOM     14  C   UNL     1       1.724   2.503  -8.713  0.00  0.00    +0.040 A 
ATOM     15  C   UNL     1       2.308   1.429  -8.073  0.00  0.00    +0.026 A 
ATOM     16  C   UNL     1       1.595   0.709  -7.118  0.00  0.00    +0.039 A 
ATOM     17  N   UNL     1       1.962  -0.398  -6.347  0.00  0.00    -0.283 N 
ATOM     18  C   UNL     1       0.969  -0.800  -5.531  0.00  0.00    +0.243 C 
ATOM     19  O   UNL     1       1.002  -1.730  -4.753  0.00  0.00    -0.273 OA
ATOM     20  F   UNL     1      -0.144   3.927  -9.038  0.00  0.00    -0.205 F 
ATOM     21  H   UNL     1      -1.133  -1.376  -6.824  0.00  0.00    +0.124 HD
ATOM     22  H   UNL     1       2.831  -0.827  -6.395  0.00  0.00    +0.155 HD
ENDROOT
BRANCH   1  23
ATOM     23  C   UNL     1       0.718  -0.497  -1.257  0.00  0.00    +0.081 C 
ATOM     24  C   UNL     1       0.849  -2.021  -1.205  0.00  0.00    +0.028 C 
BRANCH  23  26
ATOM     25  C   UNL     1      -0.019   1.526   0.010  0.00  0.00    +0.006 C 
ATOM     26  C   UNL     1       0.002  -0.004   0.002  0.00  0.00    +0.019 C 
ENDBRANCH  23  26
ENDBRANCH   1  23
BRANCH   5  27
ATOM     27  C   UNL     1      -3.494  -1.386  -5.175  0.00  0.00    +0.054 C 
BRANCH  27  28
ATOM     28  C   UNL     1      -3.652  -2.590  -6.067  0.00  0.00    -0.042 A 
ATOM     29  C   UNL     1      -3.718  -2.428  -7.439  0.00  0.00    +0.007 A 
ATOM     30  C   UNL     1      -3.863  -3.529  -8.262  0.00  0.00    +0.049 A 
ATOM     31  C   UNL     1      -3.942  -4.799  -7.713  0.00  0.00    +0.158 A 
ATOM     32  C   UNL     1      -3.875  -4.962  -6.332  0.00  0.00    +0.158 A 
ATOM     33  C   UNL     1      -3.725  -3.854  -5.513  0.00  0.00    +0.052 A 
BRANCH  32  34
ATOM     34  O   UNL     1      -3.952  -6.206  -5.788  0.00  0.00    -0.503 OA
ATOM     35  H   UNL     1      -3.096  -6.643  -5.683  0.00  0.00    +0.292 HD
ENDBRANCH  32  34
BRANCH  31  36
ATOM     36  O   UNL     1      -4.085  -5.883  -8.521  0.00  0.00    -0.503 OA
ATOM     37  H   UNL     1      -3.248  -6.274  -8.806  0.00  0.00    +0.292 HD
ENDBRANCH  31  36
ENDBRANCH  27  28
ENDBRANCH   5  27
TORSDOF 6
