REMARK  Name = ZINC40608704
REMARK  3 active torsions:
REMARK  status: ('A' for Active; 'I' for Inactive)
REMARK    1  A    between atoms: C_3  and  N_8
REMARK    2  A    between atoms: C_10  and  N_16
REMARK    3  A    between atoms: C_11  and  N_15
REMARK                            x       y       z     vdW  Elec       q    Type
REMARK                         _______ _______ _______ _____ _____    ______ ____
ROOT
ATOM      1  N   UNL     1       3.595   2.001  -0.021  0.00  0.00    -0.282 N 
ATOM      2  C   UNL     1       3.628   3.385  -0.119  0.00  0.00    +0.160 A 
ATOM      3  C   UNL     1       4.842   4.056  -0.238  0.00  0.00    +0.205 A 
ATOM      4  C   UNL     1       4.821   5.444  -0.333  0.00  0.00    +0.152 A 
ATOM      5  N   UNL     1       3.649   6.076  -0.306  0.00  0.00    -0.219 NA
ATOM      6  C   UNL     1       2.521   5.405  -0.192  0.00  0.00    +0.225 A 
ATOM      7  N   UNL     1       2.499   4.090  -0.106  0.00  0.00    -0.218 NA
ATOM      8  H   UNL     1       4.423   1.499   0.039  0.00  0.00    +0.155 HD
ENDROOT
BRANCH   1  11
ATOM      9  C   UNL     1       1.129  -0.709  -0.009  0.00  0.00    +0.020 A 
ATOM     10  C   UNL     1       2.349  -0.058  -0.021  0.00  0.00    +0.045 A 
ATOM     11  C   UNL     1       2.374   1.333  -0.010  0.00  0.00    +0.124 A 
ATOM     12  N   UNL     1       1.247   2.027   0.012  0.00  0.00    -0.239 NA
ATOM     13  C   UNL     1       0.069   1.433   0.024  0.00  0.00    +0.128 A 
ATOM     14  C   UNL     1      -0.030   0.055   0.013  0.00  0.00    +0.036 A 
ATOM     15 BR   UNL     1      -1.726  -0.781   0.029  0.00  0.00    -0.049 Br
ENDBRANCH   1  11
BRANCH   4  16
ATOM     16  N   UNL     1       6.003   6.158  -0.453  0.00  0.00    -0.341 N 
ATOM     17  H   UNL     1       6.853   5.691  -0.471  0.00  0.00    +0.144 HD
ATOM     18  H   UNL     1       5.980   7.126  -0.518  0.00  0.00    +0.144 HD
ENDBRANCH   4  16
BRANCH   3  19
ATOM     19  N   UNL     1       6.121   3.312  -0.263  0.00  0.00    +0.063 N 
ATOM     20  O   UNL     1       6.582   2.936  -1.316  0.00  0.00    -0.126 OA
ATOM     21  O   UNL     1       6.706   3.080   0.769  0.00  0.00    -0.126 OA
ENDBRANCH   3  19
TORSDOF 3
