REMARK  Name = ZINC41495137
REMARK  7 active torsions:
REMARK  status: ('A' for Active; 'I' for Inactive)
REMARK    1  A    between atoms: C_1  and  C_2
REMARK    2  A    between atoms: C_3  and  C_23
REMARK    3  A    between atoms: C_4  and  N_12
REMARK    4  A    between atoms: N_12  and  C_13
REMARK    5  A    between atoms: C_17  and  N_19
REMARK    6  A    between atoms: C_20  and  C_22
REMARK    7  A    between atoms: C_23  and  C_24
REMARK                            x       y       z     vdW  Elec       q    Type
REMARK                         _______ _______ _______ _____ _____    ______ ____
ROOT
ATOM      1  C   UNL     1      -3.508  -0.278   0.687  0.00  0.00    +0.063 C 
ATOM      2  C   UNL     1      -2.023  -0.495   0.542  0.00  0.00    +0.019 A 
ATOM      3  C   UNL     1      -1.552  -1.245  -0.527  0.00  0.00    +0.004 A 
ATOM      4  C   UNL     1      -0.190  -1.453  -0.672  0.00  0.00    +0.046 A 
ATOM      5  C   UNL     1       0.674  -0.881   0.292  0.00  0.00    +0.020 A 
ATOM      6  C   UNL     1       2.064  -1.044   0.215  0.00  0.00    +0.012 A 
ATOM      7  C   UNL     1       2.862  -0.477   1.163  0.00  0.00    +0.001 A 
ATOM      8  C   UNL     1       2.314   0.263   2.208  0.00  0.00    +0.002 A 
ATOM      9  C   UNL     1       0.969   0.440   2.312  0.00  0.00    +0.026 A 
ATOM     10  C   UNL     1       0.114  -0.129   1.353  0.00  0.00    +0.048 A 
ATOM     11  N   UNL     1      -1.212   0.035   1.428  0.00  0.00    -0.358 N 
ATOM     12  H   UNL     1      -1.583   0.555   2.157  0.00  0.00    +0.166 HD
ENDROOT
BRANCH   4  13
ATOM     13  N   UNL     1       0.312  -2.198  -1.729  0.00  0.00    -0.314 N 
ATOM     14  H   UNL     1       0.319  -3.167  -1.679  0.00  0.00    +0.152 HD
BRANCH  13  15
ATOM     15  C   UNL     1       0.807  -1.554  -2.866  0.00  0.00    +0.033 A 
ATOM     16  C   UNL     1       1.271  -0.246  -2.777  0.00  0.00    +0.023 A 
ATOM     17  C   UNL     1       1.761   0.391  -3.901  0.00  0.00    +0.004 A 
ATOM     18  C   UNL     1       1.791  -0.268  -5.115  0.00  0.00    +0.023 A 
ATOM     19  C   UNL     1       1.328  -1.574  -5.210  0.00  0.00    +0.035 A 
ATOM     20  C   UNL     1       0.841  -2.220  -4.083  0.00  0.00    +0.046 A 
BRANCH  19  21
ATOM     21  N   UNL     1       1.357  -2.240  -6.441  0.00  0.00    -0.286 N 
ATOM     22  C   UNL     1       2.342  -1.980  -7.324  0.00  0.00    +0.214 C 
ATOM     23  O   UNL     1       3.254  -1.242  -7.016  0.00  0.00    -0.276 OA
ATOM     24  C   UNL     1       2.309  -2.606  -8.694  0.00  0.00    +0.109 C 
ATOM     25  H   UNL     1       0.670  -2.888  -6.658  0.00  0.00    +0.155 HD
ENDBRANCH  19  21
ENDBRANCH  13  15
ENDBRANCH   4  13
BRANCH   3  26
ATOM     26  C   UNL     1      -2.518  -1.832  -1.524  0.00  0.00    +0.163 C 
BRANCH  26  27
ATOM     27  C   UNL     1      -3.090  -0.729  -2.377  0.00  0.00    +0.360 C 
ATOM     28  O   UNL     1      -2.618   0.394  -2.320  0.00  0.00    -0.246 OA
ATOM     29  O   UNL     1      -4.025  -0.960  -3.125  0.00  0.00    -0.246 OA
ENDBRANCH  26  27
ENDBRANCH   3  26
TORSDOF 5
