REMARK  Name = ZINC66121711
REMARK  6 active torsions:
REMARK  status: ('A' for Active; 'I' for Inactive)
REMARK    1  A    between atoms: C_4  and  C_6
REMARK    2  A    between atoms: C_6  and  N_7
REMARK    3  A    between atoms: C_10  and  N_13
REMARK    4  A    between atoms: C_20  and  C_23
REMARK    5  A    between atoms: C_23  and  C_24
REMARK    6  A    between atoms: C_24  and  C_25
REMARK                            x       y       z     vdW  Elec       q    Type
REMARK                         _______ _______ _______ _____ _____    ______ ____
ROOT
ATOM      1  N   UNL     1      -1.613  -6.138  -1.296  0.00  0.00    -0.297 N 
ATOM      2  C   UNL     1      -2.159  -7.002  -2.174  0.00  0.00    +0.302 C 
ATOM      3  O   UNL     1      -2.238  -6.705  -3.350  0.00  0.00    -0.253 OA
ATOM      4  N   UNL     1      -2.619  -8.195  -1.748  0.00  0.00    -0.285 N 
ATOM      5  C   UNL     1      -2.442  -8.609  -0.349  0.00  0.00    +0.109 C 
ATOM      6  C   UNL     1      -1.763  -9.982  -0.324  0.00  0.00    +0.019 C 
ATOM      7  C   UNL     1      -2.574 -10.964  -1.173  0.00  0.00    +0.006 C 
ATOM      8  C   UNL     1      -2.617 -10.474  -2.622  0.00  0.00    +0.007 C 
ATOM      9  C   UNL     1      -3.311  -9.104  -2.672  0.00  0.00    +0.112 C 
ATOM     10  H   UNL     1      -1.484  -6.402  -0.371  0.00  0.00    +0.151 HD
ENDROOT
BRANCH   1  14
ATOM     11  N   UNL     1       0.637  -2.581  -1.520  0.00  0.00    +0.380 N 
ATOM     12  C   UNL     1      -0.728  -2.466  -0.993  0.00  0.00    -0.077 C 
ATOM     13  C   UNL     1      -1.222  -3.842  -0.542  0.00  0.00    +0.004 C 
ATOM     14  C   UNL     1      -1.213  -4.799  -1.737  0.00  0.00    +0.071 C 
ATOM     15  C   UNL     1       0.200  -4.854  -2.324  0.00  0.00    +0.004 C 
ATOM     16  C   UNL     1       0.642  -3.441  -2.709  0.00  0.00    -0.077 C 
ATOM     17  H   UNL     1       1.235  -2.983  -0.813  0.00  0.00    -0.082 HD
BRANCH  11  18
ATOM     18  C   UNL     1       1.136  -1.247  -1.879  0.00  0.00    -0.075 C 
BRANCH  18  22
ATOM     19  C   UNL     1       3.137   1.179  -0.234  0.00  0.00    +0.000 C 
ATOM     20  C   UNL     1       3.042   0.193   0.957  0.00  0.00    +0.000 C 
ATOM     21  C   UNL     1       2.312  -1.023   0.335  0.00  0.00    +0.002 C 
ATOM     22  C   UNL     1       1.272  -0.395  -0.616  0.00  0.00    -0.028 C 
ATOM     23  C   UNL     1       1.797   1.005  -0.978  0.00  0.00    +0.002 C 
ENDBRANCH  18  22
ENDBRANCH  11  18
ENDBRANCH   1  14
BRANCH   8  24
ATOM     24  C   UNL     1      -3.399 -11.473  -3.476  0.00  0.00    +0.014 C 
BRANCH  24  25
ATOM     25  C   UNL     1      -3.336 -11.048  -4.944  0.00  0.00    +0.096 C 
BRANCH  25  26
ATOM     26  C   UNL     1      -4.106 -12.032  -5.786  0.00  0.00    +0.210 C 
ATOM     27  O   UNL     1      -4.652 -12.980  -5.263  0.00  0.00    -0.276 OA
ATOM     28  N   UNL     1      -4.188 -11.858  -7.120  0.00  0.00    -0.329 N 
ATOM     29  H   UNL     1      -3.752 -11.100  -7.538  0.00  0.00    +0.145 HD
ATOM     30  H   UNL     1      -4.684 -12.492  -7.662  0.00  0.00    +0.145 HD
ENDBRANCH  25  26
ENDBRANCH  24  25
ENDBRANCH   8  24
TORSDOF 6
