REMARK  Name = ZINC06239670
REMARK  9 active torsions:
REMARK  status: ('A' for Active; 'I' for Inactive)
REMARK    1  A    between atoms: C_1  and  O_2
REMARK    2  A    between atoms: O_2  and  C_3
REMARK    3  A    between atoms: C_6  and  O_33
REMARK    4  A    between atoms: C_7  and  C_9
REMARK    5  A    between atoms: C_16  and  N_32
REMARK    6  A    between atoms: C_17  and  C_30
REMARK    7  A    between atoms: C_18  and  C_20
REMARK    8  A    between atoms: C_23  and  C_26
REMARK    9  A    between atoms: O_33  and  C_34
REMARK                            x       y       z     vdW  Elec       q    Type
REMARK                         _______ _______ _______ _____ _____    ______ ____
ROOT
ATOM      1  C   UNL     1       1.288  -4.009  -2.293  0.00  0.00    +0.104 A 
ATOM      2  C   UNL     1       0.876  -4.937  -1.331  0.00  0.00    +0.054 A 
ATOM      3  C   UNL     1       1.121  -6.188  -1.819  0.00  0.00    +0.223 A 
ATOM      4  N   UNL     1       1.670  -6.051  -3.044  0.00  0.00    -0.246 N 
ATOM      5  H   UNL     1       1.949  -6.773  -3.628  0.00  0.00    +0.192 HD
ATOM      6  N   UNL     1       1.762  -4.679  -3.327  0.00  0.00    -0.170 NA
ATOM      7  O   UNL     1       0.830  -7.315  -1.123  0.00  0.00    -0.423 OA
ATOM      8  C   UNL     1       0.034  -7.193  -0.041  0.00  0.00    +0.200 C 
ATOM      9  C   UNL     1      -0.271  -6.011   0.538  0.00  0.00    +0.098 C 
ATOM     10  C   UNL     1       0.263  -4.697   0.024  0.00  0.00    +0.102 C 
ENDROOT
BRANCH   1  15
ATOM     11  C   UNL     1      -0.051  -0.555  -1.631  0.00  0.00    +0.121 A 
ATOM     12  C   UNL     1       1.047   0.229  -1.954  0.00  0.00    +0.049 A 
ATOM     13  C   UNL     1       2.220  -0.360  -2.386  0.00  0.00    +0.050 A 
ATOM     14  C   UNL     1       2.306  -1.738  -2.498  0.00  0.00    +0.130 A 
ATOM     15  C   UNL     1       1.203  -2.533  -2.174  0.00  0.00    +0.048 A 
ATOM     16  C   UNL     1       0.025  -1.934  -1.735  0.00  0.00    +0.059 A 
BRANCH  11  18
ATOM     17  C   UNL     1      -1.212   1.457  -1.123  0.00  0.00    +0.277 C 
ATOM     18  O   UNL     1      -1.203   0.031  -1.207  0.00  0.00    -0.495 OA
ENDBRANCH  11  18
BRANCH  14  19
ATOM     19  O   UNL     1       3.460  -2.316  -2.923  0.00  0.00    -0.494 OA
ATOM     20  C   UNL     1       4.546  -1.442  -3.237  0.00  0.00    +0.277 C 
ENDBRANCH  14  19
ENDBRANCH   1  15
BRANCH  10  21
ATOM     21  C   UNL     1       1.311  -4.168   0.970  0.00  0.00    -0.035 A 
ATOM     22  C   UNL     1       2.469  -4.890   1.192  0.00  0.00    +0.005 A 
ATOM     23  C   UNL     1       3.430  -4.404   2.059  0.00  0.00    +0.012 A 
ATOM     24  C   UNL     1       3.233  -3.197   2.703  0.00  0.00    +0.055 A 
ATOM     25  C   UNL     1       2.075  -2.476   2.480  0.00  0.00    +0.012 A 
ATOM     26  C   UNL     1       1.116  -2.959   1.610  0.00  0.00    +0.005 A 
BRANCH  24  27
ATOM     27  C   UNL     1       4.280  -2.669   3.649  0.00  0.00    +0.417 C 
ATOM     28  F   UNL     1       5.190  -1.876   2.942  0.00  0.00    -0.166 F 
ATOM     29  F   UNL     1       3.665  -1.900   4.643  0.00  0.00    -0.166 F 
ATOM     30  F   UNL     1       4.958  -3.740   4.241  0.00  0.00    -0.166 F 
ENDBRANCH  24  27
ENDBRANCH  10  21
BRANCH   8  31
ATOM     31  N   UNL     1      -0.497  -8.336   0.503  0.00  0.00    -0.328 N 
ATOM     32  H   UNL     1      -0.296  -9.200   0.109  0.00  0.00    +0.145 HD
ATOM     33  H   UNL     1      -1.073  -8.280   1.282  0.00  0.00    +0.145 HD
ENDBRANCH   8  31
BRANCH   9  34
ATOM     34  C   UNL     1      -1.131  -6.005   1.683  0.00  0.00    +0.101 C 
ATOM     35  N   UNL     1      -1.815  -6.001   2.591  0.00  0.00    -0.191 NA
ENDBRANCH   9  34
TORSDOF 7
