REMARK  Name = ZINC39630751
REMARK  13 active torsions:
REMARK  status: ('A' for Active; 'I' for Inactive)
REMARK    1  A    between atoms: C_1  and  C_2
REMARK    2  A    between atoms: C_2  and  C_4
REMARK    3  A    between atoms: C_2  and  O_28
REMARK    4  A    between atoms: C_8  and  C_17
REMARK    5  A    between atoms: N_19  and  C_20
REMARK    6  A    between atoms: C_20  and  C_21
REMARK    7  A    between atoms: C_21  and  C_22
REMARK    8  A    between atoms: C_21  and  C_23
REMARK    9  A    between atoms: C_21  and  C_24
REMARK   10  A    between atoms: C_24  and  N_25
REMARK   11  A    between atoms: N_25  and  C_26
REMARK   12  A    between atoms: N_25  and  C_27
REMARK   13  A    between atoms: O_28  and  C_29
REMARK                            x       y       z     vdW  Elec       q    Type
REMARK                         _______ _______ _______ _____ _____    ______ ____
ROOT
ATOM      1  C   UNL     1      -1.080   1.366   1.496  0.00  0.00    +0.256 C 
ATOM      2  O   UNL     1      -1.861   0.985   2.343  0.00  0.00    -0.272 OA
ATOM      3  N   UNL     1       0.242   1.379   1.756  0.00  0.00    -0.297 N 
ATOM      4  C   UNL     1       1.347   1.717   0.828  0.00  0.00    +0.121 C 
ATOM      5  C   UNL     1       2.346   2.525   1.687  0.00  0.00    +0.100 C 
ATOM      6  C   UNL     1       2.062   2.088   3.134  0.00  0.00    -0.004 C 
ATOM      7  C   UNL     1       0.920   1.066   3.038  0.00  0.00    +0.115 C 
ATOM      8  C   UNL     1       1.621   3.286   3.970  0.00  0.00    -0.010 C 
ATOM      9  C   UNL     1       1.399   2.838   5.418  0.00  0.00    -0.082 C 
ATOM     10  N   UNL     1       2.644   2.273   5.953  0.00  0.00    +0.379 N 
ATOM     11  C   UNL     1       3.012   1.068   5.201  0.00  0.00    -0.082 C 
ATOM     12  C   UNL     1       3.301   1.441   3.744  0.00  0.00    -0.010 C 
ATOM     13  H   UNL     1       3.383   2.956   5.873  0.00  0.00    -0.086 HD
ATOM     14  H   UNL     1       2.514   2.035   6.925  0.00  0.00    -0.086 HD
ENDROOT
BRANCH   5  15
ATOM     15  C   UNL     1       3.763   2.186   1.302  0.00  0.00    +0.218 C 
ATOM     16  O   UNL     1       4.016   1.107   0.808  0.00  0.00    -0.275 OA
ATOM     17  N   UNL     1       4.749   3.081   1.508  0.00  0.00    -0.315 N 
ATOM     18  H   UNL     1       4.547   3.943   1.903  0.00  0.00    +0.149 HD
BRANCH  17  19
ATOM     19  C   UNL     1       6.127   2.751   1.134  0.00  0.00    +0.108 C 
BRANCH  19  20
ATOM     20  C   UNL     1       7.043   3.930   1.470  0.00  0.00    -0.034 C 
ATOM     21  C   UNL     1       6.586   5.168   0.695  0.00  0.00    +0.010 C 
ATOM     22  C   UNL     1       6.976   4.215   2.972  0.00  0.00    +0.010 C 
BRANCH  20  23
ATOM     23  C   UNL     1       8.481   3.586   1.080  0.00  0.00    -0.072 C 
BRANCH  23  24
ATOM     24  N   UNL     1       9.375   4.677   1.492  0.00  0.00    +0.376 N 
ATOM     25  C   UNL     1       9.769   4.484   2.894  0.00  0.00    -0.097 C 
ATOM     26  C   UNL     1      10.573   4.676   0.642  0.00  0.00    -0.097 C 
ATOM     27  H   UNL     1       8.895   5.559   1.396  0.00  0.00    -0.083 HD
ENDBRANCH  23  24
ENDBRANCH  20  23
ENDBRANCH  19  20
ENDBRANCH  17  19
ENDBRANCH   5  15
BRANCH   1  29
ATOM     28  C   UNL     1      -1.415   3.340   0.033  0.00  0.00    +0.062 C 
ATOM     29  C   UNL     1      -1.589   1.824   0.154  0.00  0.00    +0.256 C 
BRANCH  29  30
ATOM     30  O   UNL     1      -2.973   1.492   0.030  0.00  0.00    -0.480 OA
BRANCH  30  31
ATOM     31  C   UNL     1      -3.435   1.226  -1.220  0.00  0.00    +0.122 A 
ATOM     32  C   UNL     1      -2.599   1.382  -2.316  0.00  0.00    +0.045 A 
ATOM     33  C   UNL     1      -3.071   1.111  -3.586  0.00  0.00    +0.004 A 
ATOM     34  C   UNL     1      -4.374   0.685  -3.765  0.00  0.00    +0.000 A 
ATOM     35  C   UNL     1      -5.209   0.529  -2.673  0.00  0.00    +0.004 A 
ATOM     36  C   UNL     1      -4.740   0.793  -1.401  0.00  0.00    +0.045 A 
ENDBRANCH  30  31
ENDBRANCH  29  30
ENDBRANCH   1  29
TORSDOF 8
