REMARK  Name = ZINC37324693
REMARK  6 active torsions:
REMARK  status: ('A' for Active; 'I' for Inactive)
REMARK    1  A    between atoms: C_1  and  C_2
REMARK    2  A    between atoms: N_5  and  C_11
REMARK    3  A    between atoms: C_7  and  C_10
REMARK    4  A    between atoms: C_11  and  C_13
REMARK    5  A    between atoms: C_11  and  C_15
REMARK    6  A    between atoms: C_13  and  N_14
REMARK                            x       y       z     vdW  Elec       q    Type
REMARK                         _______ _______ _______ _____ _____    ______ ____
ROOT
ATOM      1  C   UNL     1       1.661  -2.416  -2.835  0.00  0.00    +0.070 C 
ENDROOT
BRANCH   1   2
ATOM      2  C   UNL     1       1.645  -3.917  -2.973  0.00  0.00    -0.027 A 
ATOM      3  C   UNL     1       1.826  -4.497  -4.215  0.00  0.00    +0.054 A 
ATOM      4  C   UNL     1       1.812  -5.877  -4.344  0.00  0.00    +0.168 A 
ATOM      5  C   UNL     1       1.615  -6.676  -3.220  0.00  0.00    +0.180 A 
ATOM      6  C   UNL     1       1.434  -6.087  -1.979  0.00  0.00    +0.064 A 
ATOM      7  C   UNL     1       1.455  -4.709  -1.857  0.00  0.00    +0.024 A 
ATOM      8 BR   UNL     1       1.166  -7.168  -0.451  0.00  0.00    -0.046 Br
ATOM      9  O   UNL     1       1.643  -7.985  -3.606  0.00  0.00    -0.451 OA
ATOM     10  C   UNL     1       1.450  -7.970  -5.033  0.00  0.00    +0.466 C 
ATOM     11  O   UNL     1       1.963  -6.685  -5.433  0.00  0.00    -0.453 OA
ENDBRANCH   1   2
BRANCH   1  15
ATOM     12  C   UNL     1      -3.189  -3.154  -2.441  0.00  0.00    +0.039 C 
ATOM     13  C   UNL     1      -1.996  -2.340  -1.935  0.00  0.00    +0.130 C 
ATOM     14  C   UNL     1      -0.722  -2.804  -2.648  0.00  0.00    +0.116 C 
ATOM     15  N   UNL     1       0.407  -1.968  -2.216  0.00  0.00    -0.292 NA
ATOM     16  C   UNL     1       0.150  -0.551  -2.513  0.00  0.00    +0.116 C 
ATOM     17  C   UNL     1      -1.132  -0.110  -1.801  0.00  0.00    +0.130 C 
ATOM     18  O   UNL     1      -2.213  -0.954  -2.209  0.00  0.00    -0.371 OA
ATOM     19  C   UNL     1      -0.940  -0.222  -0.287  0.00  0.00    +0.039 C 
ENDBRANCH   1  15
BRANCH   1  20
ATOM     20  C   UNL     1       2.842  -1.997  -1.957  0.00  0.00    -0.063 C 
BRANCH  20  21
ATOM     21  N   UNL     1       2.785  -0.549  -1.718  0.00  0.00    +0.379 N 
ATOM     22  H   UNL     1       2.040  -0.344  -1.070  0.00  0.00    -0.090 HD
ATOM     23  H   UNL     1       3.663  -0.237  -1.331  0.00  0.00    -0.090 HD
ATOM     24  H   UNL     1       2.613  -0.071  -2.590  0.00  0.00    -0.090 HD
ENDBRANCH  20  21
ENDBRANCH   1  20
TORSDOF 4
