REMARK  Name = ZINC65470717
REMARK  2 active torsions:
REMARK  status: ('A' for Active; 'I' for Inactive)
REMARK    1  A    between atoms: N_7  and  C_11
REMARK    2  A    between atoms: C_11  and  C_12
REMARK                            x       y       z     vdW  Elec       q    Type
REMARK                         _______ _______ _______ _____ _____    ______ ____
ROOT
ATOM      1  C   UNL     1       0.258  -3.660  -1.418  0.00  0.00    +0.056 C 
ATOM      2  C   UNL     1      -0.869  -4.674  -1.296  0.00  0.00    +0.106 C 
ATOM      3  C   UNL     1      -1.349  -5.093  -2.652  0.00  0.00    +0.214 C 
ATOM      4  O   UNL     1      -2.461  -4.763  -3.007  0.00  0.00    -0.276 OA
ATOM      5  N   UNL     1      -0.601  -5.815  -3.480  0.00  0.00    -0.310 N 
ATOM      6  C   UNL     1       0.648  -6.427  -3.057  0.00  0.00    +0.160 C 
ATOM      7  C   UNL     1       1.699  -5.386  -2.725  0.00  0.00    +0.071 A 
ATOM      8  C   UNL     1       1.474  -4.241  -2.062  0.00  0.00    +0.021 A 
ATOM      9  S   UNL     1       3.079  -3.462  -2.092  0.00  0.00    -0.057 S 
ATOM     10  C   UNL     1       3.909  -4.691  -2.885  0.00  0.00    +0.156 A 
ATOM     11  N   UNL     1       2.975  -5.576  -3.106  0.00  0.00    -0.228 NA
ATOM     12  N   UNL     1       5.252  -4.749  -3.223  0.00  0.00    -0.338 N 
ATOM     13  H   UNL     1      -0.897  -5.938  -4.395  0.00  0.00    +0.149 HD
ATOM     14  H   UNL     1       5.841  -4.011  -2.998  0.00  0.00    +0.144 HD
ATOM     15  H   UNL     1       5.603  -5.527  -3.684  0.00  0.00    +0.144 HD
ENDROOT
BRANCH   1  16
ATOM     16  C   UNL     1       0.628  -3.160  -0.020  0.00  0.00    +0.138 C 
BRANCH  16  23
ATOM     17  C   UNL     1      -2.648  -4.599   2.842  0.00  0.00    +0.002 A 
ATOM     18  C   UNL     1      -3.561  -3.608   3.158  0.00  0.00    +0.004 A 
ATOM     19  C   UNL     1      -3.427  -2.342   2.622  0.00  0.00    +0.048 A 
ATOM     20  C   UNL     1      -2.375  -2.061   1.765  0.00  0.00    +0.157 A 
ATOM     21  C   UNL     1      -1.455  -3.061   1.448  0.00  0.00    +0.090 A 
ATOM     22  C   UNL     1      -1.596  -4.329   1.989  0.00  0.00    +0.030 A 
ATOM     23  N   UNL     1      -0.527  -2.488   0.580  0.00  0.00    -0.274 N 
ATOM     24  C   UNL     1      -0.886  -1.202   0.393  0.00  0.00    +0.421 A 
ATOM     25  O   UNL     1      -0.297  -0.403  -0.309  0.00  0.00    -0.223 OA
ATOM     26  O   UNL     1      -1.995  -0.941   1.103  0.00  0.00    -0.407 OA
ENDBRANCH  16  23
ENDBRANCH   1  16
TORSDOF 2
