REMARK  Name = ZINC63383756
REMARK  7 active torsions:
REMARK  status: ('A' for Active; 'I' for Inactive)
REMARK    1  A    between atoms: C_1  and  O_2
REMARK    2  A    between atoms: O_2  and  C_3
REMARK    3  A    between atoms: C_3  and  C_4
REMARK    4  A    between atoms: C_4  and  C_5
REMARK    5  A    between atoms: C_5  and  N_6
REMARK    6  A    between atoms: C_11  and  C_29
REMARK    7  A    between atoms: C_29  and  C_30
REMARK                            x       y       z     vdW  Elec       q    Type
REMARK                         _______ _______ _______ _____ _____    ______ ____
ROOT
ATOM      1  N   UNL     1      -2.408  -4.226   0.002  0.00  0.00    -0.241 N 
ATOM      2  C   UNL     1      -2.346  -4.940  -1.128  0.00  0.00    +0.227 C 
ATOM      3  O   UNL     1      -2.395  -4.482  -2.249  0.00  0.00    -0.275 OA
ATOM      4  C   UNL     1      -2.204  -6.406  -0.788  0.00  0.00    +0.107 C 
ATOM      5  C   UNL     1      -3.486  -7.154  -1.209  0.00  0.00    +0.072 C 
ATOM      6  N   UNL     1      -4.403  -7.024  -0.046  0.00  0.00    -0.295 NA
ATOM      7  C   UNL     1      -3.520  -7.158   1.127  0.00  0.00    +0.136 C 
ATOM      8  C   UNL     1      -2.208  -6.417   0.766  0.00  0.00    +0.122 C 
ATOM      9  C   UNL     1      -2.330  -4.953   1.123  0.00  0.00    +0.228 C 
ATOM     10  O   UNL     1      -2.356  -4.507   2.250  0.00  0.00    -0.275 OA
ATOM     11  C   UNL     1      -3.259  -8.599   1.459  0.00  0.00    +0.005 A 
ATOM     12  C   UNL     1      -2.704  -9.648   0.760  0.00  0.00    +0.027 A 
ATOM     13  C   UNL     1      -2.596 -10.895   1.352  0.00  0.00    +0.041 A 
ATOM     14  C   UNL     1      -3.047 -11.084   2.647  0.00  0.00    +0.022 A 
ATOM     15  C   UNL     1      -3.603 -10.036   3.350  0.00  0.00    +0.025 A 
ATOM     16  C   UNL     1      -3.715  -8.778   2.762  0.00  0.00    +0.039 A 
ATOM     17  N   UNL     1      -4.232  -7.580   3.261  0.00  0.00    -0.283 N 
ATOM     18  C   UNL     1      -4.155  -6.580   2.362  0.00  0.00    +0.243 C 
ATOM     19  O   UNL     1      -4.526  -5.436   2.518  0.00  0.00    -0.273 OA
ATOM     20 CL   UNL     1      -1.899 -12.219   0.471  0.00  0.00    -0.084 Cl
ATOM     21  H   UNL     1      -4.867  -6.128  -0.050  0.00  0.00    +0.124 HD
ATOM     22  H   UNL     1      -4.603  -7.480   4.152  0.00  0.00    +0.155 HD
ENDROOT
BRANCH   1  23
ATOM     23  C   UNL     1      -2.543  -2.768   0.011  0.00  0.00    +0.118 C 
BRANCH  23  24
ATOM     24  C   UNL     1      -1.154  -2.126   0.002  0.00  0.00    +0.047 C 
BRANCH  24  25
ATOM     25  C   UNL     1      -1.295  -0.603   0.011  0.00  0.00    +0.161 C 
BRANCH  25  27
ATOM     26  C   UNL     1      -0.017   1.425   0.010  0.00  0.00    +0.193 C 
ATOM     27  O   UNL     1       0.002  -0.004   0.002  0.00  0.00    -0.383 OA
ENDBRANCH  25  27
ENDBRANCH  24  25
ENDBRANCH  23  24
ENDBRANCH   1  23
BRANCH   5  28
ATOM     28  C   UNL     1      -4.100  -6.502  -2.450  0.00  0.00    +0.052 C 
BRANCH  28  29
ATOM     29  C   UNL     1      -5.278  -7.318  -2.915  0.00  0.00    -0.040 C 
ATOM     30  C   UNL     1      -6.580  -7.112  -2.613  0.00  0.00    -0.001 A 
ATOM     31  C   UNL     1      -7.263  -6.106  -1.791  0.00  0.00    +0.010 A 
ATOM     32  C   UNL     1      -8.609  -6.159  -1.673  0.00  0.00    +0.001 A 
ATOM     33  C   UNL     1      -9.367  -7.148  -2.315  0.00  0.00    +0.002 A 
ATOM     34  C   UNL     1      -8.812  -8.106  -3.087  0.00  0.00    +0.026 A 
ATOM     35  C   UNL     1      -7.403  -8.146  -3.281  0.00  0.00    +0.043 A 
ATOM     36  N   UNL     1      -6.639  -8.959  -3.970  0.00  0.00    -0.380 N 
ATOM     37  C   UNL     1      -5.245  -8.529  -3.821  0.00  0.00    +0.144 C 
ATOM     38  H   UNL     1      -6.946  -9.716  -4.493  0.00  0.00    +0.160 HD
ENDBRANCH  28  29
ENDBRANCH   5  28
TORSDOF 6
