REMARK  Name = ZINC01601201
REMARK  2 active torsions:
REMARK  status: ('A' for Active; 'I' for Inactive)
REMARK    1  A    between atoms: C_4  and  N_8
REMARK    2  A    between atoms: N_8  and  C_11
REMARK                            x       y       z     vdW  Elec       q    Type
REMARK                         _______ _______ _______ _____ _____    ______ ____
ROOT
ATOM      1  C   UNL     1       4.701  -0.661   0.256  0.00  0.00    +0.225 A 
ATOM      2  N   UNL     1       4.292  -0.242  -0.926  0.00  0.00    -0.219 NA
ATOM      3  C   UNL     1       3.080   0.280  -1.080  0.00  0.00    +0.142 A 
ATOM      4  C   UNL     1       2.239   0.380   0.035  0.00  0.00    +0.113 A 
ATOM      5  C   UNL     1       2.716  -0.069   1.259  0.00  0.00    +0.156 A 
ATOM      6  N   UNL     1       3.938  -0.583   1.326  0.00  0.00    -0.222 NA
ATOM      7 CL   UNL     1       1.725   0.033   2.681  0.00  0.00    -0.060 Cl
ATOM      8  N   UNL     1       2.656   0.720  -2.326  0.00  0.00    -0.342 N 
ATOM      9  H   UNL     1       1.864   1.275  -2.400  0.00  0.00    +0.144 HD
ATOM     10  H   UNL     1       3.150   0.472  -3.122  0.00  0.00    +0.144 HD
ENDROOT
BRANCH   4  11
ATOM     11  N   UNL     1       0.952   0.925  -0.080  0.00  0.00    -0.266 N 
ATOM     12  C   UNL     1       0.760   2.246   0.105  0.00  0.00    +0.333 C 
ATOM     13  O   UNL     1      -0.363   2.704   0.096  0.00  0.00    -0.279 OA
BRANCH  11  14
ATOM     14  C   UNL     1      -0.185   0.058  -0.400  0.00  0.00    +0.081 C 
ATOM     15  C   UNL     1       0.007  -0.570  -1.796  0.00  0.00    +0.023 C 
ATOM     16  C   UNL     1       0.633  -1.958  -1.504  0.00  0.00    +0.002 C 
ATOM     17  C   UNL     1      -0.108  -2.405  -0.220  0.00  0.00    +0.002 C 
ATOM     18  C   UNL     1      -0.257  -1.108   0.602  0.00  0.00    +0.023 C 
ENDBRANCH  11  14
ENDBRANCH   4  11
TORSDOF 2
