REMARK  Name = ZINC00050404
REMARK  8 active torsions:
REMARK  status: ('A' for Active; 'I' for Inactive)
REMARK    1  A    between atoms: C_1  and  C_2
REMARK    2  A    between atoms: C_2  and  C_4
REMARK    3  A    between atoms: C_4  and  C_24
REMARK    4  A    between atoms: C_5  and  C_20
REMARK    5  A    between atoms: C_5  and  C_22
REMARK    6  A    between atoms: C_6  and  C_14
REMARK    7  A    between atoms: C_8  and  C_12
REMARK    8  A    between atoms: C_9  and  N_11
REMARK                            x       y       z     vdW  Elec       q    Type
REMARK                         _______ _______ _______ _____ _____    ______ ____
ROOT
ATOM      1  C   UNL     1      -0.000  -0.750  -1.307  0.00  0.00    +0.198 C 
ATOM      2  C   UNL     1       0.655  -2.125  -1.118  0.00  0.00    +0.200 C 
ATOM      3  C   UNL     1       2.061  -1.914  -0.548  0.00  0.00    +0.103 C 
ATOM      4  C   UNL     1       2.764  -0.843  -1.337  0.00  0.00    +0.096 C 
ATOM      5  C   UNL     1       2.091   0.021  -2.129  0.00  0.00    +0.193 C 
ATOM      6  O   UNL     1       0.753  -0.020  -2.278  0.00  0.00    -0.462 OA
ATOM      7  C   UNL     1      -1.439  -0.925  -1.797  0.00  0.00    +0.067 C 
ENDROOT
BRANCH   3   8
ATOM      8  C   UNL     1       2.840  -3.201  -0.642  0.00  0.00    -0.036 A 
ATOM      9  C   UNL     1       3.069  -3.782  -1.875  0.00  0.00    +0.004 A 
ATOM     10  C   UNL     1       3.783  -4.962  -1.961  0.00  0.00    +0.000 A 
ATOM     11  C   UNL     1       4.269  -5.561  -0.814  0.00  0.00    +0.000 A 
ATOM     12  C   UNL     1       4.041  -4.980   0.419  0.00  0.00    +0.000 A 
ATOM     13  C   UNL     1       3.330  -3.797   0.505  0.00  0.00    +0.004 A 
ENDBRANCH   3   8
BRANCH   1  15
ATOM     14  C   UNL     1      -0.018   1.503   0.010  0.00  0.00    +0.090 C 
ATOM     15  C   UNL     1       0.002  -0.004   0.002  0.00  0.00    +0.176 C 
ATOM     16  O   UNL     1       0.020  -0.613   1.044  0.00  0.00    -0.293 OA
ENDBRANCH   1  15
BRANCH   5  17
ATOM     17  N   UNL     1       2.799   0.979  -2.810  0.00  0.00    -0.329 N 
ATOM     18  H   UNL     1       3.763   1.027  -2.716  0.00  0.00    +0.145 HD
ATOM     19  H   UNL     1       2.336   1.609  -3.384  0.00  0.00    +0.145 HD
ENDBRANCH   5  17
BRANCH   4  20
ATOM     20  C   UNL     1       4.190  -0.735  -1.246  0.00  0.00    +0.101 C 
ATOM     21  N   UNL     1       5.320  -0.649  -1.173  0.00  0.00    -0.191 NA
ENDBRANCH   4  20
BRANCH   2  22
ATOM     22  C   UNL     1       0.744  -2.815  -2.416  0.00  0.00    +0.090 C 
ATOM     23  N   UNL     1       0.813  -3.347  -3.417  0.00  0.00    -0.195 NA
ENDBRANCH   2  22
BRANCH   2  24
ATOM     24  C   UNL     1      -0.145  -2.931  -0.181  0.00  0.00    +0.090 C 
ATOM     25  N   UNL     1      -0.762  -3.553   0.542  0.00  0.00    -0.195 NA
ENDBRANCH   2  24
TORSDOF 6
