REMARK  Name = ZINC25154371
REMARK  11 active torsions:
REMARK  status: ('A' for Active; 'I' for Inactive)
REMARK    1  A    between atoms: C_1  and  O_2
REMARK    2  A    between atoms: O_2  and  C_3
REMARK    3  A    between atoms: C_7  and  C_10
REMARK    4  A    between atoms: C_8  and  O_9
REMARK    5  A    between atoms: C_15  and  C_19
REMARK    6  A    between atoms: C_22  and  O_29
REMARK    7  A    between atoms: C_23  and  O_27
REMARK    8  A    between atoms: C_24  and  O_25
REMARK    9  A    between atoms: O_25  and  C_26
REMARK   10  A    between atoms: O_27  and  C_28
REMARK   11  A    between atoms: O_29  and  C_30
REMARK                            x       y       z     vdW  Elec       q    Type
REMARK                         _______ _______ _______ _____ _____    ______ ____
ROOT
ATOM      1  C   UNL     1       3.261   2.609   0.247  0.00  0.00    +0.233 A 
ATOM      2  N   UNL     1       2.541   1.525   0.101  0.00  0.00    -0.209 NA
ATOM      3  C   UNL     1       1.229   1.873   0.066  0.00  0.00    +0.110 A 
ATOM      4  C   UNL     1       0.043   1.145  -0.070  0.00  0.00    +0.032 A 
ATOM      5  C   UNL     1      -1.158   1.791  -0.075  0.00  0.00    +0.011 A 
ATOM      6  C   UNL     1      -1.215   3.182   0.064  0.00  0.00    -0.011 A 
ATOM      7  C   UNL     1      -0.043   3.920   0.201  0.00  0.00    +0.057 A 
ATOM      8  C   UNL     1       1.179   3.271   0.202  0.00  0.00    +0.156 A 
ATOM      9  O   UNL     1       2.460   3.690   0.312  0.00  0.00    -0.435 OA
ENDROOT
BRANCH   1  14
ATOM     10  C   UNL     1       6.856   1.495   0.329  0.00  0.00    +0.162 A 
ATOM     11  C   UNL     1       7.505   2.710   0.484  0.00  0.00    +0.050 A 
ATOM     12  C   UNL     1       6.779   3.886   0.562  0.00  0.00    +0.020 A 
ATOM     13  C   UNL     1       5.402   3.860   0.480  0.00  0.00    +0.034 A 
ATOM     14  C   UNL     1       4.734   2.642   0.329  0.00  0.00    +0.096 A 
ATOM     15  C   UNL     1       5.469   1.453   0.251  0.00  0.00    +0.172 A 
ATOM     16 BR   UNL     1       4.419   5.472   0.579  0.00  0.00    -0.049 Br
BRANCH  10  18
ATOM     17  C   UNL     1       8.998   0.462   0.341  0.00  0.00    +0.277 C 
ATOM     18  O   UNL     1       7.577   0.344   0.253  0.00  0.00    -0.491 OA
ENDBRANCH  10  18
BRANCH  15  19
ATOM     19  O   UNL     1       4.830   0.264   0.099  0.00  0.00    -0.503 OA
ATOM     20  H   UNL     1       3.732   0.234   0.037  0.00  0.00    +0.292 HD
ENDBRANCH  15  19
ENDBRANCH   1  14
BRANCH   6  21
ATOM     21  C   UNL     1      -2.527   3.871   0.062  0.00  0.00    +0.028 A 
ATOM     22  C   UNL     1      -2.779   4.892  -0.854  0.00  0.00    +0.016 A 
ATOM     23  C   UNL     1      -4.000   5.533  -0.856  0.00  0.00    +0.050 A 
ATOM     24  C   UNL     1      -4.983   5.166   0.053  0.00  0.00    +0.165 A 
ATOM     25  C   UNL     1      -4.742   4.150   0.971  0.00  0.00    +0.204 A 
ATOM     26  C   UNL     1      -3.517   3.497   0.975  0.00  0.00    +0.173 A 
BRANCH  26  27
ATOM     27  O   UNL     1      -3.280   2.499   1.867  0.00  0.00    -0.491 OA
ATOM     28  C   UNL     1      -2.797   2.883   3.157  0.00  0.00    +0.277 C 
ENDBRANCH  26  27
BRANCH  25  29
ATOM     29  O   UNL     1      -5.707   3.793   1.861  0.00  0.00    -0.488 OA
ATOM     30  C   UNL     1      -6.615   2.767   1.455  0.00  0.00    +0.277 C 
ENDBRANCH  25  29
BRANCH  24  31
ATOM     31  O   UNL     1      -6.185   5.802   0.046  0.00  0.00    -0.491 OA
ATOM     32  C   UNL     1      -6.365   6.837  -0.923  0.00  0.00    +0.277 C 
ENDBRANCH  24  31
ENDBRANCH   6  21
TORSDOF 7
