REMARK  Name = ZINC20517366
REMARK  8 active torsions:
REMARK  status: ('A' for Active; 'I' for Inactive)
REMARK    1  A    between atoms: C_1  and  C_2
REMARK    2  A    between atoms: C_5  and  O_12
REMARK    3  A    between atoms: C_8  and  C_10
REMARK    4  A    between atoms: C_8  and  C_11
REMARK    5  A    between atoms: O_12  and  C_13
REMARK    6  A    between atoms: C_16  and  N_21
REMARK    7  A    between atoms: C_18  and  C_19
REMARK    8  A    between atoms: C_19  and  O_20
REMARK                            x       y       z     vdW  Elec       q    Type
REMARK                         _______ _______ _______ _____ _____    ______ ____
ROOT
ATOM      1  C   UNL     1      -1.254   3.135   0.242  0.00  0.00    +0.126 A 
ATOM      2  C   UNL     1      -1.264   1.763   0.447  0.00  0.00    +0.048 A 
ATOM      3  C   UNL     1      -0.076   1.088   0.654  0.00  0.00    +0.036 A 
ATOM      4  C   UNL     1       1.123   1.778   0.646  0.00  0.00    +0.127 A 
ATOM      5  C   UNL     1       1.135   3.144   0.437  0.00  0.00    +0.042 A 
ATOM      6  C   UNL     1      -0.050   3.825   0.235  0.00  0.00    +0.022 A 
ENDROOT
BRANCH   4   7
ATOM      7  N   UNL     1       2.394   1.052   0.861  0.00  0.00    +0.056 N 
ATOM      8  O   UNL     1       2.384  -0.152   1.045  0.00  0.00    -0.126 OA
ATOM      9  O   UNL     1       3.450   1.658   0.855  0.00  0.00    -0.126 OA
ENDBRANCH   4   7
BRANCH   1  10
ATOM     10  O   UNL     1      -2.421   3.802   0.044  0.00  0.00    -0.488 OA
BRANCH  10  14
ATOM     11  C   UNL     1      -5.964   1.584   2.630  0.00  0.00    +0.007 C 
ATOM     12  C   UNL     1      -5.422   1.877   1.230  0.00  0.00    -0.010 C 
ATOM     13  C   UNL     1      -4.151   2.721   1.341  0.00  0.00    +0.048 C 
ATOM     14  C   UNL     1      -3.609   3.014  -0.060  0.00  0.00    +0.174 C 
ATOM     15  C   UNL     1      -4.661   3.781  -0.863  0.00  0.00    +0.051 C 
ATOM     16  C   UNL     1      -5.933   2.937  -0.974  0.00  0.00    -0.031 C 
ATOM     17  C   UNL     1      -6.474   2.644   0.426  0.00  0.00    +0.010 C 
ATOM     18  C   UNL     1      -6.985   3.704  -1.778  0.00  0.00    +0.011 C 
ATOM     19  C   UNL     1      -5.611   1.620  -1.683  0.00  0.00    +0.011 C 
ENDBRANCH  10  14
ENDBRANCH   1  10
BRANCH   6  20
ATOM     20  C   UNL     1      -0.036   5.314   0.008  0.00  0.00    +0.194 C 
BRANCH  20  21
ATOM     21  O   UNL     1       1.312   5.789   0.045  0.00  0.00    -0.390 OA
ATOM     22  H   UNL     1       1.522   6.859  -0.101  0.00  0.00    +0.210 HD
ENDBRANCH  20  21
ENDBRANCH   6  20
TORSDOF 5
