REMARK  Name = ZINC06195277
REMARK  6 active torsions:
REMARK  status: ('A' for Active; 'I' for Inactive)
REMARK    1  A    between atoms: C_1  and  C_2
REMARK    2  A    between atoms: C_5  and  N_9
REMARK    3  A    between atoms: C_6  and  C_8
REMARK    4  A    between atoms: N_12  and  C_13
REMARK    5  A    between atoms: C_15  and  C_24
REMARK    6  A    between atoms: C_17  and  N_19
REMARK                            x       y       z     vdW  Elec       q    Type
REMARK                         _______ _______ _______ _____ _____    ______ ____
ROOT
ATOM      1  N   UNL     1       0.106  -4.151  -0.034  0.00  0.00    -0.326 N 
ATOM      2  C   UNL     1       0.030  -4.845  -1.213  0.00  0.00    +0.203 C 
ATOM      3  N   UNL     1      -0.238  -4.183  -2.381  0.00  0.00    -0.369 N 
ATOM      4  N   UNL     1       0.217  -6.149  -1.223  0.00  0.00    -0.177 NA
ATOM      5  H   UNL     1       0.724  -4.435   0.657  0.00  0.00    +0.169 HD
ATOM      6  H   UNL     1      -0.052  -3.234  -2.455  0.00  0.00    +0.159 HD
ATOM      7  H   UNL     1      -0.615  -4.664  -3.135  0.00  0.00    +0.159 HD
ENDROOT
BRANCH   1  12
ATOM      8  C   UNL     1      -3.202   0.380   0.806  0.00  0.00    +0.044 C 
ATOM      9  C   UNL     1      -2.323  -0.824   0.583  0.00  0.00    -0.050 A 
ATOM     10  C   UNL     1      -2.557  -1.659  -0.494  0.00  0.00    +0.005 A 
ATOM     11  C   UNL     1      -1.754  -2.763  -0.702  0.00  0.00    +0.026 A 
ATOM     12  C   UNL     1      -0.710  -3.034   0.173  0.00  0.00    +0.045 A 
ATOM     13  C   UNL     1      -0.477  -2.193   1.254  0.00  0.00    -0.027 A 
ATOM     14  C   UNL     1      -1.281  -1.088   1.452  0.00  0.00    +0.008 A 
ATOM     15  C   UNL     1       0.655  -2.483   2.205  0.00  0.00    +0.046 C 
ENDBRANCH   1  12
BRANCH   4  16
ATOM     16  C   UNL     1       0.326  -6.829  -0.050  0.00  0.00    +0.255 A 
ATOM     17  N   UNL     1       0.062  -6.201   1.093  0.00  0.00    -0.216 NA
ATOM     18  C   UNL     1       0.158  -6.832   2.253  0.00  0.00    +0.045 A 
ATOM     19  C   UNL     1       0.537  -8.161   2.272  0.00  0.00    +0.066 A 
ATOM     20  C   UNL     1       0.809  -8.796   1.058  0.00  0.00    +0.127 A 
ATOM     21  N   UNL     1       0.689  -8.109  -0.072  0.00  0.00    -0.196 NA
ATOM     22  C   UNL     1      -0.144  -6.108   3.540  0.00  0.00    +0.066 C 
BRANCH  20  23
ATOM     23  N   UNL     1       1.192 -10.127   1.033  0.00  0.00    -0.315 N 
ATOM     24  C   UNL     1       1.610 -10.876  -0.161  0.00  0.00    +0.106 C 
ATOM     25  C   UNL     1       1.917 -12.320   0.287  0.00  0.00    +0.020 C 
ATOM     26  C   UNL     1       1.113 -12.452   1.608  0.00  0.00    +0.020 C 
ATOM     27  C   UNL     1       1.255 -11.026   2.200  0.00  0.00    +0.106 C 
ENDBRANCH  20  23
ENDBRANCH   4  16
TORSDOF 3
