REMARK  Name = ZINC08384635
REMARK  10 active torsions:
REMARK  status: ('A' for Active; 'I' for Inactive)
REMARK    1  A    between atoms: C_1  and  C_2
REMARK    2  A    between atoms: C_2  and  O_3
REMARK    3  A    between atoms: O_3  and  C_4
REMARK    4  A    between atoms: C_8  and  C_11
REMARK    5  A    between atoms: C_9  and  O_10
REMARK    6  A    between atoms: N_12  and  N_13
REMARK    7  A    between atoms: C_14  and  C_16
REMARK    8  A    between atoms: C_16  and  N_24
REMARK    9  A    between atoms: C_17  and  C_18
REMARK   10  A    between atoms: C_25  and  C_27
REMARK                            x       y       z     vdW  Elec       q    Type
REMARK                         _______ _______ _______ _____ _____    ______ ____
ROOT
ATOM      1  N   UNL     1      -2.083  -4.253  -0.372  0.00  0.00    -0.202 N 
ATOM      2  C   UNL     1      -2.185  -2.910  -0.312  0.00  0.00    +0.277 C 
ATOM      3  O   UNL     1      -3.279  -2.380  -0.366  0.00  0.00    -0.267 OA
ATOM      4  H   UNL     1      -1.211  -4.675  -0.329  0.00  0.00    +0.178 HD
ENDROOT
BRANCH   1   6
ATOM      5  C   UNL     1      -3.138  -6.332  -0.553  0.00  0.00    +0.142 C 
ATOM      6  N   UNL     1      -3.236  -5.038  -0.496  0.00  0.00    -0.187 NA
BRANCH   5  11
ATOM      7  C   UNL     1      -6.750  -7.339  -0.869  0.00  0.00    +0.163 A 
ATOM      8  C   UNL     1      -6.634  -8.719  -0.930  0.00  0.00    +0.064 A 
ATOM      9  C   UNL     1      -5.388  -9.320  -0.868  0.00  0.00    +0.022 A 
ATOM     10  C   UNL     1      -4.250  -8.550  -0.746  0.00  0.00    +0.028 A 
ATOM     11  C   UNL     1      -4.351  -7.158  -0.684  0.00  0.00    +0.041 A 
ATOM     12  C   UNL     1      -5.612  -6.551  -0.741  0.00  0.00    +0.167 A 
ATOM     13 BR   UNL     1      -5.246 -11.204  -0.952  0.00  0.00    -0.050 Br
BRANCH  12  14
ATOM     14  O   UNL     1      -5.723  -5.198  -0.676  0.00  0.00    -0.503 OA
ATOM     15  H   UNL     1      -5.693  -4.759  -1.537  0.00  0.00    +0.292 HD
ENDBRANCH  12  14
BRANCH   7  16
ATOM     16  O   UNL     1      -7.977  -6.756  -0.929  0.00  0.00    -0.489 OA
BRANCH  16  18
ATOM     17  C   UNL     1     -10.387  -6.796  -1.108  0.00  0.00    +0.048 C 
ATOM     18  C   UNL     1      -9.103  -7.627  -1.056  0.00  0.00    +0.226 C 
ENDBRANCH  16  18
ENDBRANCH   7  16
ENDBRANCH   5  11
ENDBRANCH   1   6
BRANCH   2  19
ATOM     19  C   UNL     1      -0.975  -2.087  -0.182  0.00  0.00    +0.098 C 
ATOM     20  C   UNL     1       0.242  -2.676  -0.122  0.00  0.00    +0.036 C 
BRANCH  20  21
ATOM     21  C   UNL     1       1.460  -1.853  -0.148  0.00  0.00    -0.023 A 
ATOM     22  C   UNL     1       1.427  -0.565  -0.694  0.00  0.00    +0.008 A 
ATOM     23  C   UNL     1       2.572   0.203  -0.709  0.00  0.00    +0.001 A 
ATOM     24  C   UNL     1       3.755  -0.301  -0.198  0.00  0.00    +0.000 A 
ATOM     25  C   UNL     1       3.798  -1.577   0.339  0.00  0.00    +0.001 A 
ATOM     26  C   UNL     1       2.660  -2.355   0.367  0.00  0.00    +0.008 A 
ENDBRANCH  20  21
BRANCH  19  27
ATOM     27  N   UNL     1      -1.081  -0.694  -0.120  0.00  0.00    -0.277 N 
ATOM     28  C   UNL     1      -1.692  -0.020  -1.114  0.00  0.00    +0.248 C 
ATOM     29  O   UNL     1      -2.234  -0.628  -2.017  0.00  0.00    -0.270 OA
ATOM     30  H   UNL     1      -0.713  -0.213   0.638  0.00  0.00    +0.155 HD
BRANCH  28  31
ATOM     31  C   UNL     1      -1.705   1.458  -1.106  0.00  0.00    +0.037 A 
ATOM     32  C   UNL     1      -1.186   2.157  -0.015  0.00  0.00    +0.013 A 
ATOM     33  C   UNL     1      -1.197   3.537  -0.016  0.00  0.00    +0.001 A 
ATOM     34  C   UNL     1      -1.729   4.227  -1.090  0.00  0.00    +0.000 A 
ATOM     35  C   UNL     1      -2.250   3.540  -2.172  0.00  0.00    +0.001 A 
ATOM     36  C   UNL     1      -2.241   2.160  -2.186  0.00  0.00    +0.013 A 
ENDBRANCH  28  31
ENDBRANCH  19  27
ENDBRANCH   2  19
TORSDOF 9
