REMARK  Name = ZINC03846493
REMARK  4 active torsions:
REMARK  status: ('A' for Active; 'I' for Inactive)
REMARK    1  A    between atoms: C_1  and  N_2
REMARK    2  A    between atoms: C_9  and  O_10
REMARK    3  A    between atoms: C_11  and  C_12
REMARK    4  A    between atoms: C_14  and  C_21
REMARK                            x       y       z     vdW  Elec       q    Type
REMARK                         _______ _______ _______ _____ _____    ______ ____
ROOT
ATOM      1  C   UNL     1       2.583  -2.840  -0.092  0.00  0.00    +0.049 C 
ATOM      2  C   UNL     1       3.642  -2.027  -0.157  0.00  0.00    +0.022 C 
ATOM      3  C   UNL     1       5.022  -2.613  -0.109  0.00  0.00    +0.134 C 
ATOM      4  N   UNL     1       5.251  -3.509  -1.224  0.00  0.00    -0.228 NA
ATOM      5  N   UNL     1       4.707  -4.724  -1.141  0.00  0.00    -0.234 N 
ATOM      6  C   UNL     1       3.535  -5.016  -0.588  0.00  0.00    +0.318 C 
ATOM      7  O   UNL     1       3.217  -6.189  -0.624  0.00  0.00    -0.251 OA
ATOM      8  N   UNL     1       2.669  -4.210  -0.001  0.00  0.00    -0.268 N 
ATOM      9  H   UNL     1       6.233  -3.567  -1.446  0.00  0.00    +0.145 HD
ATOM     10  H   UNL     1       5.213  -5.460  -1.519  0.00  0.00    +0.171 HD
ATOM     11  H   UNL     1       2.006  -4.638   0.563  0.00  0.00    +0.156 HD
ENDROOT
BRANCH   1  21
ATOM     12  C   UNL     1      -1.748  -2.104   2.142  0.00  0.00    +0.152 C 
ATOM     13  N   UNL     1      -0.875  -1.876   0.987  0.00  0.00    -0.310 N 
ATOM     14  C   UNL     1      -1.335  -1.109  -0.064  0.00  0.00    +0.055 A 
ATOM     15  C   UNL     1      -2.611  -0.555  -0.036  0.00  0.00    +0.026 A 
ATOM     16  C   UNL     1      -3.050   0.208  -1.096  0.00  0.00    +0.002 A 
ATOM     17  C   UNL     1      -2.232   0.431  -2.195  0.00  0.00    +0.001 A 
ATOM     18  C   UNL     1      -0.975  -0.103  -2.245  0.00  0.00    +0.013 A 
ATOM     19  C   UNL     1      -0.509  -0.880  -1.180  0.00  0.00    +0.041 A 
ATOM     20  C   UNL     1       0.835  -1.467  -1.203  0.00  0.00    +0.140 A 
ATOM     21  C   UNL     1       1.238  -2.229  -0.114  0.00  0.00    +0.102 A 
ATOM     22  C   UNL     1       0.356  -2.413   0.978  0.00  0.00    +0.264 A 
ATOM     23  O   UNL     1       0.721  -3.080   1.931  0.00  0.00    -0.267 OA
BRANCH  20  24
ATOM     24  O   UNL     1       1.660  -1.270  -2.257  0.00  0.00    -0.505 OA
ATOM     25  H   UNL     1       1.279  -0.724  -2.958  0.00  0.00    +0.292 HD
ENDBRANCH  20  24
ENDBRANCH   1  21
BRANCH   3  26
ATOM     26  C   UNL     1       5.189  -3.377   1.180  0.00  0.00    +0.012 A 
ATOM     27  C   UNL     1       6.052  -4.381   1.470  0.00  0.00    +0.013 A 
ATOM     28  C   UNL     1       6.028  -4.940   2.735  0.00  0.00    +0.008 A 
ATOM     29  C   UNL     1       5.143  -4.467   3.646  0.00  0.00    +0.045 A 
ATOM     30  S   UNL     1       4.308  -3.189   2.721  0.00  0.00    -0.100 S 
ENDBRANCH   3  26
TORSDOF 3
