REMARK  Name = ZINC06321573
REMARK  3 active torsions:
REMARK  status: ('A' for Active; 'I' for Inactive)
REMARK    1  A    between atoms: C_3  and  C_8
REMARK    2  A    between atoms: C_11  and  C_13
REMARK    3  A    between atoms: N_14  and  C_15
REMARK                            x       y       z     vdW  Elec       q    Type
REMARK                         _______ _______ _______ _____ _____    ______ ____
ROOT
ATOM      1  C   UNL     1       3.655   2.161  -0.022  0.00  0.00    +0.136 A 
ATOM      2  C   UNL     1       4.906   1.611  -0.042  0.00  0.00    +0.050 A 
ATOM      3  C   UNL     1       5.820   2.668  -0.044  0.00  0.00    +0.051 A 
ATOM      4  C   UNL     1       5.079   3.836  -0.024  0.00  0.00    +0.147 A 
ATOM      5  O   UNL     1       3.772   3.500  -0.017  0.00  0.00    -0.454 OA
ENDROOT
BRANCH   1   8
ATOM      6  C   UNL     1      -0.017   1.379   0.010  0.00  0.00    +0.002 A 
ATOM      7  C   UNL     1       1.166   2.089   0.002  0.00  0.00    +0.011 A 
ATOM      8  C   UNL     1       2.386   1.408  -0.013  0.00  0.00    +0.019 A 
ATOM      9  C   UNL     1       2.398   0.011  -0.021  0.00  0.00    +0.031 A 
ATOM     10  C   UNL     1       1.207  -0.687  -0.013  0.00  0.00    +0.042 A 
ATOM     11  C   UNL     1       0.002  -0.004   0.002  0.00  0.00    +0.020 A 
ATOM     12 CL   UNL     1       1.220  -2.422  -0.023  0.00  0.00    -0.084 Cl
ENDBRANCH   1   8
BRANCH   4  13
ATOM     13  C   UNL     1       5.600   5.149  -0.019  0.00  0.00    +0.160 C 
ATOM     14  N   UNL     1       4.785   6.178   0.000  0.00  0.00    -0.216 NA
BRANCH  14  15
ATOM     15  C   UNL     1       5.285   7.440   0.005  0.00  0.00    +0.248 A 
ATOM     16  N   UNL     1       6.565   7.772  -0.013  0.00  0.00    -0.177 NA
ATOM     17  C   UNL     1       6.684   9.100  -0.001  0.00  0.00    +0.233 A 
ATOM     18  N   UNL     1       5.489   9.642   0.026  0.00  0.00    -0.135 NA
ATOM     19  N   UNL     1       4.559   8.591   0.025  0.00  0.00    -0.242 N 
ATOM     20  N   UNL     1       7.890   9.803  -0.014  0.00  0.00    -0.326 N 
ATOM     21  H   UNL     1       8.732   9.322  -0.034  0.00  0.00    +0.145 HD
ATOM     22  H   UNL     1       7.886  10.773  -0.004  0.00  0.00    +0.145 HD
ATOM     23  H   UNL     1       3.592   8.669   0.037  0.00  0.00    +0.192 HD
ENDBRANCH  14  15
ENDBRANCH   4  13
TORSDOF 3
