REMARK  Name = ZINC13661781
REMARK  4 active torsions:
REMARK  status: ('A' for Active; 'I' for Inactive)
REMARK    1  A    between atoms: C_4  and  N_7
REMARK    2  A    between atoms: C_8  and  C_30
REMARK    3  A    between atoms: N_17  and  C_20
REMARK    4  A    between atoms: C_33  and  O_36
REMARK                            x       y       z     vdW  Elec       q    Type
REMARK                         _______ _______ _______ _____ _____    ______ ____
ROOT
ATOM      1  N   UNL     1       3.724  -0.640  -0.079  0.00  0.00    -0.244 N 
ATOM      2  C   UNL     1       3.798  -2.131  -0.052  0.00  0.00    +0.157 C 
ATOM      3  C   UNL     1       5.282  -2.408   0.147  0.00  0.00    +0.145 C 
ATOM      4  C   UNL     1       5.825  -1.132  -0.605  0.00  0.00    +0.249 C 
ATOM      5  O   UNL     1       5.079  -0.125  -0.062  0.00  0.00    -0.257 OA
ATOM      6  C   UNL     1       7.207  -1.509  -0.838  0.00  0.00    +0.259 C 
ATOM      7  O   UNL     1       8.176  -0.780  -0.851  0.00  0.00    -0.272 OA
ATOM      8  N   UNL     1       7.183  -2.865  -1.039  0.00  0.00    -0.207 N 
ATOM      9  C   UNL     1       5.988  -3.443  -0.670  0.00  0.00    +0.235 C 
ATOM     10  O   UNL     1       5.585  -4.552  -0.949  0.00  0.00    -0.274 OA
ENDROOT
BRANCH   8  11
ATOM     11  C   UNL     1       8.262  -3.591  -1.554  0.00  0.00    +0.052 A 
ATOM     12  C   UNL     1       9.207  -4.128  -0.706  0.00  0.00    +0.024 A 
ATOM     13  C   UNL     1      10.284  -4.852  -1.208  0.00  0.00    +0.002 A 
ATOM     14  C   UNL     1      10.435  -5.051  -2.546  0.00  0.00    +0.008 A 
ATOM     15  C   UNL     1       9.494  -4.520  -3.445  0.00  0.00    -0.016 A 
ATOM     16  C   UNL     1       8.390  -3.785  -2.945  0.00  0.00    +0.004 A 
ATOM     17  C   UNL     1       7.448  -3.260  -3.843  0.00  0.00    +0.010 A 
ATOM     18  C   UNL     1       7.603  -3.467  -5.180  0.00  0.00    +0.001 A 
ATOM     19  C   UNL     1       8.685  -4.194  -5.672  0.00  0.00    +0.001 A 
ATOM     20  C   UNL     1       9.624  -4.708  -4.832  0.00  0.00    +0.008 A 
ENDBRANCH   8  11
BRANCH   1  24
ATOM     21  C   UNL     1       0.241   1.637  -0.200  0.00  0.00    +0.000 A 
ATOM     22  C   UNL     1       1.474   2.263  -0.187  0.00  0.00    +0.002 A 
ATOM     23  C   UNL     1       2.631   1.510  -0.147  0.00  0.00    +0.028 A 
ATOM     24  C   UNL     1       2.556   0.124  -0.119  0.00  0.00    +0.065 A 
ATOM     25  C   UNL     1       1.315  -0.502  -0.132  0.00  0.00    +0.028 A 
ATOM     26  C   UNL     1       0.162   0.257  -0.173  0.00  0.00    +0.002 A 
ENDBRANCH   1  24
BRANCH   2  27
ATOM     27  C   UNL     1       3.316  -2.709  -1.357  0.00  0.00    -0.022 A 
ATOM     28  C   UNL     1       2.705  -3.950  -1.379  0.00  0.00    +0.009 A 
ATOM     29  C   UNL     1       2.263  -4.483  -2.574  0.00  0.00    +0.046 A 
ATOM     30  C   UNL     1       2.432  -3.772  -3.753  0.00  0.00    +0.117 A 
ATOM     31  C   UNL     1       3.045  -2.528  -3.729  0.00  0.00    +0.046 A 
ATOM     32  C   UNL     1       3.481  -1.997  -2.531  0.00  0.00    +0.009 A 
BRANCH  30  33
ATOM     33  O   UNL     1       1.998  -4.295  -4.931  0.00  0.00    -0.507 OA
ATOM     34  H   UNL     1       1.087  -4.062  -5.152  0.00  0.00    +0.292 HD
ENDBRANCH  30  33
ENDBRANCH   2  27
TORSDOF 4
