REMARK  Name = ZINC39964314
REMARK  5 active torsions:
REMARK  status: ('A' for Active; 'I' for Inactive)
REMARK    1  A    between atoms: C_1  and  C_2
REMARK    2  A    between atoms: C_7  and  S_12
REMARK    3  A    between atoms: S_12  and  C_13
REMARK    4  A    between atoms: C_13  and  C_14
REMARK    5  A    between atoms: C_16  and  C_27
REMARK                            x       y       z     vdW  Elec       q    Type
REMARK                         _______ _______ _______ _____ _____    ______ ____
ROOT
ATOM      1  C   UNL     1      -6.265   4.364  -7.191  0.00  0.00    +0.149 C 
ATOM      2  C   UNL     1      -5.830   4.674  -8.639  0.00  0.00    +0.265 C 
ATOM      3  N   UNL     1      -6.133   6.103  -8.801  0.00  0.00    -0.154 NA
ATOM      4  N   UNL     1      -6.615   6.575  -7.777  0.00  0.00    -0.076 NA
ATOM      5  N   UNL     1      -6.763   5.670  -6.720  0.00  0.00    -0.177 N 
ATOM      6  C   UNL     1      -7.284   5.947  -5.457  0.00  0.00    +0.228 A 
ATOM      7  C   UNL     1      -7.782   7.249  -5.001  0.00  0.00    +0.204 A 
ATOM      8  N   UNL     1      -8.188   7.123  -3.768  0.00  0.00    -0.032 NA
ATOM      9  O   UNL     1      -7.979   5.777  -3.377  0.00  0.00    -0.239 OA
ATOM     10  N   UNL     1      -7.416   5.092  -4.482  0.00  0.00    -0.030 NA
ATOM     11  N   UNL     1      -7.816   8.417  -5.754  0.00  0.00    -0.338 N 
ATOM     12  H   UNL     1      -7.491   8.415  -6.668  0.00  0.00    +0.144 HD
ATOM     13  H   UNL     1      -8.166   9.234  -5.366  0.00  0.00    +0.144 HD
ENDROOT
BRANCH   2  14
ATOM     14  C   UNL     1      -4.355   4.420  -8.814  0.00  0.00    +0.384 C 
ATOM     15  O   UNL     1      -3.963   3.319  -9.161  0.00  0.00    -0.244 OA
ATOM     16  O   UNL     1      -3.554   5.316  -8.610  0.00  0.00    -0.244 OA
ENDBRANCH   2  14
BRANCH   1  17
ATOM     17  C   UNL     1      -5.071   3.902  -6.352  0.00  0.00    +0.104 C 
BRANCH  17  18
ATOM     18  S   UNL     1      -5.634   3.484  -4.679  0.00  0.00    -0.086 S 
BRANCH  18  25
ATOM     19  C   UNL     1      -0.013   1.086   0.008  0.00  0.00    +0.044 C 
ATOM     20  C   UNL     1      -0.742   1.585  -1.213  0.00  0.00    -0.048 A 
ATOM     21  C   UNL     1      -0.039   1.825  -2.384  0.00  0.00    +0.005 A 
ATOM     22  C   UNL     1      -0.690   2.281  -3.509  0.00  0.00    +0.030 A 
ATOM     23  C   UNL     1      -2.069   2.504  -3.470  0.00  0.00    +0.090 A 
ATOM     24  N   UNL     1      -2.970   2.940  -4.388  0.00  0.00    -0.222 NA
ATOM     25  C   UNL     1      -4.165   2.978  -3.850  0.00  0.00    +0.167 A 
ATOM     26  H   UNL     1      -4.842   2.502  -1.927  0.00  0.00    +0.168 HD
ATOM     27  N   UNL     1      -4.099   2.566  -2.548  0.00  0.00    -0.333 N 
ATOM     28  C   UNL     1      -2.776   2.259  -2.281  0.00  0.00    +0.067 A 
ATOM     29  C   UNL     1      -2.104   1.795  -1.160  0.00  0.00    +0.031 A 
ENDBRANCH  18  25
ENDBRANCH  17  18
ENDBRANCH   1  17
TORSDOF 4
