REMARK  Name = ZINC50361555
REMARK  6 active torsions:
REMARK  status: ('A' for Active; 'I' for Inactive)
REMARK    1  A    between atoms: C_1  and  C_2
REMARK    2  A    between atoms: N_5  and  C_11
REMARK    3  A    between atoms: C_7  and  C_10
REMARK    4  A    between atoms: C_11  and  C_13
REMARK    5  A    between atoms: C_11  and  C_15
REMARK    6  A    between atoms: C_13  and  N_14
REMARK                            x       y       z     vdW  Elec       q    Type
REMARK                         _______ _______ _______ _____ _____    ______ ____
ROOT
ATOM      1  C   UNL     1      -3.744  -0.531   1.381  0.00  0.00    +0.106 C 
ENDROOT
BRANCH   1   5
ATOM      2  C   UNL     1       0.132   1.215   1.398  0.00  0.00    +0.039 C 
ATOM      3  C   UNL     1       0.012  -0.298   1.207  0.00  0.00    +0.130 C 
ATOM      4  C   UNL     1      -1.408  -0.645   0.750  0.00  0.00    +0.116 C 
ATOM      5  N   UNL     1      -2.362  -0.267   1.803  0.00  0.00    -0.289 NA
ATOM      6  C   UNL     1      -2.052  -0.964   3.061  0.00  0.00    +0.116 C 
ATOM      7  C   UNL     1      -0.626  -0.614   3.494  0.00  0.00    +0.130 C 
ATOM      8  O   UNL     1       0.284  -0.959   2.446  0.00  0.00    -0.371 OA
ATOM      9  C   UNL     1      -0.270  -1.397   4.759  0.00  0.00    +0.039 C 
ENDBRANCH   1   5
BRANCH   1  10
ATOM     10  C   UNL     1      -3.924  -2.009   1.149  0.00  0.00    +0.123 A 
ATOM     11  C   UNL     1      -4.931  -2.763   1.625  0.00  0.00    +0.062 A 
ATOM     12  C   UNL     1      -4.707  -4.083   1.167  0.00  0.00    +0.070 A 
ATOM     13  C   UNL     1      -3.576  -4.055   0.437  0.00  0.00    +0.184 A 
ATOM     14  O   UNL     1      -3.109  -2.796   0.425  0.00  0.00    -0.450 OA
ATOM     15 BR   UNL     1      -2.784  -5.537  -0.431  0.00  0.00    -0.007 Br
ATOM     16 BR   UNL     1      -5.789  -5.594   1.513  0.00  0.00    -0.046 Br
ENDBRANCH   1  10
BRANCH   1  17
ATOM     17  C   UNL     1      -4.035   0.228   0.086  0.00  0.00    -0.059 C 
BRANCH  17  18
ATOM     18  N   UNL     1      -3.784   1.661   0.291  0.00  0.00    +0.379 N 
ATOM     19  H   UNL     1      -4.315   1.985   1.085  0.00  0.00    -0.090 HD
ATOM     20  H   UNL     1      -2.801   1.809   0.460  0.00  0.00    -0.090 HD
ATOM     21  H   UNL     1      -4.065   2.173  -0.532  0.00  0.00    -0.090 HD
ENDBRANCH  17  18
ENDBRANCH   1  17
TORSDOF 4
