REMARK  Name = ZINC66717039
REMARK  9 active torsions:
REMARK  status: ('A' for Active; 'I' for Inactive)
REMARK    1  A    between atoms: C_1  and  C_2
REMARK    2  A    between atoms: C_5  and  C_9
REMARK    3  A    between atoms: C_6  and  C_8
REMARK    4  A    between atoms: C_9  and  C_10
REMARK    5  A    between atoms: C_10  and  C_12
REMARK    6  A    between atoms: C_10  and  N_13
REMARK    7  A    between atoms: N_16  and  N_17
REMARK    8  A    between atoms: N_17  and  C_18
REMARK    9  A    between atoms: C_18  and  C_25
REMARK                            x       y       z     vdW  Elec       q    Type
REMARK                         _______ _______ _______ _____ _____    ______ ____
ROOT
ATOM      1  N   UNL     1      -2.608  -4.327   1.752  0.00  0.00    -0.296 N 
ATOM      2  C   UNL     1      -3.910  -3.978   1.726  0.00  0.00    +0.314 C 
ATOM      3  O   UNL     1      -4.575  -4.187   0.730  0.00  0.00    -0.252 OA
ATOM      4  N   UNL     1      -4.474  -3.399   2.804  0.00  0.00    -0.234 N 
ATOM      5  H   UNL     1      -2.077  -4.161   2.547  0.00  0.00    +0.151 HD
ATOM      6  H   UNL     1      -5.410  -3.148   2.785  0.00  0.00    +0.171 HD
ENDROOT
BRANCH   1   7
ATOM      7  C   UNL     1      -1.995  -4.957   0.580  0.00  0.00    +0.076 C 
ATOM      8  C   UNL     1      -2.224  -6.469   0.636  0.00  0.00    +0.028 C 
BRANCH   7   9
ATOM      9  C   UNL     1      -0.493  -4.669   0.574  0.00  0.00    +0.057 C 
BRANCH   9  14
ATOM     10  C   UNL     1       0.381   1.000  -0.131  0.00  0.00    +0.044 C 
ATOM     11  C   UNL     1       0.153  -0.479   0.053  0.00  0.00    -0.050 A 
ATOM     12  C   UNL     1       0.239  -1.040   1.313  0.00  0.00    +0.003 A 
ATOM     13  C   UNL     1       0.030  -2.396   1.482  0.00  0.00    +0.004 A 
ATOM     14  C   UNL     1      -0.266  -3.191   0.390  0.00  0.00    -0.043 A 
ATOM     15  C   UNL     1      -0.352  -2.629  -0.870  0.00  0.00    -0.047 A 
ATOM     16  C   UNL     1      -0.147  -1.272  -1.038  0.00  0.00    +0.007 A 
ATOM     17  C   UNL     1      -0.674  -3.496  -2.061  0.00  0.00    +0.044 C 
ENDBRANCH   9  14
ENDBRANCH   7   9
ENDBRANCH   1   7
BRANCH   4  18
ATOM     18  N   UNL     1      -3.726  -3.164   3.923  0.00  0.00    -0.232 NA
ATOM     19  H   UNL     1      -2.913  -2.607   3.705  0.00  0.00    +0.145 HD
BRANCH  18  20
ATOM     20  C   UNL     1      -4.534  -2.529   4.973  0.00  0.00    +0.054 C 
ATOM     21  C   UNL     1      -5.149  -1.249   4.409  0.00  0.00    +0.047 C 
ATOM     22  C   UNL     1      -5.388  -0.218   5.548  0.00  0.00    +0.168 C 
ATOM     23  S   UNL     1      -3.850  -0.490   6.535  0.00  0.00    -0.029 S 
ATOM     24  O   UNL     1      -4.140  -0.297   7.912  0.00  0.00    -0.174 OA
ATOM     25  O   UNL     1      -2.778   0.223   5.935  0.00  0.00    -0.174 OA
ATOM     26  C   UNL     1      -3.641  -2.289   6.206  0.00  0.00    +0.189 C 
ATOM     27  C   UNL     1      -5.665  -3.482   5.363  0.00  0.00    +0.031 C 
ENDBRANCH  18  20
ENDBRANCH   4  18
TORSDOF 5
