REMARK  Name = ZINC35057429
REMARK  4 active torsions:
REMARK  status: ('A' for Active; 'I' for Inactive)
REMARK    1  A    between atoms: C_1  and  C_2
REMARK    2  A    between atoms: N_8  and  C_9
REMARK    3  A    between atoms: C_14  and  O_15
REMARK    4  A    between atoms: O_15  and  C_16
REMARK                            x       y       z     vdW  Elec       q    Type
REMARK                         _______ _______ _______ _____ _____    ______ ____
ROOT
ATOM      1  C   UNL     1       3.988  -2.895  -0.150  0.00  0.00    +0.108 A 
ATOM      2  C   UNL     1       3.989  -2.361  -1.438  0.00  0.00    +0.031 A 
ATOM      3  C   UNL     1       4.838  -2.876  -2.397  0.00  0.00    +0.002 A 
ATOM      4  C   UNL     1       5.689  -3.921  -2.085  0.00  0.00    +0.004 A 
ATOM      5  C   UNL     1       5.697  -4.459  -0.810  0.00  0.00    +0.048 A 
ATOM      6  C   UNL     1       4.855  -3.949   0.163  0.00  0.00    +0.155 A 
ENDROOT
BRANCH   1  13
ATOM      7  C   UNL     1       2.814   2.472   2.304  0.00  0.00    +0.021 C 
ATOM      8  C   UNL     1       2.173   1.485   1.326  0.00  0.00    +0.068 C 
ATOM      9  C   UNL     1       3.133   1.149   0.156  0.00  0.00    +0.117 C 
ATOM     10  N   UNL     1       3.852  -0.093   0.429  0.00  0.00    -0.323 N 
ATOM     11  C   UNL     1       3.085  -1.092   1.005  0.00  0.00    +0.155 C 
ATOM     12  S   UNL     1       1.987  -0.182   2.085  0.00  0.00    -0.086 S 
ATOM     13  N   UNL     1       3.147  -2.388   0.806  0.00  0.00    -0.223 NA
ATOM     14  H   UNL     1       4.793  -0.209   0.222  0.00  0.00    +0.148 HD
ENDBRANCH   1  13
BRANCH   6  15
ATOM     15  O   UNL     1       4.866  -4.474   1.418  0.00  0.00    -0.404 OA
BRANCH  15  16
ATOM     16  C   UNL     1       5.777  -5.547   1.664  0.00  0.00    +0.575 C 
ATOM     17  F   UNL     1       7.085  -5.112   1.427  0.00  0.00    -0.133 F 
ATOM     18  F   UNL     1       5.658  -5.964   2.994  0.00  0.00    -0.133 F 
ATOM     19  F   UNL     1       5.480  -6.616   0.812  0.00  0.00    -0.133 F 
ENDBRANCH  15  16
ENDBRANCH   6  15
TORSDOF 3
