REMARK  Name = ZINC09337344
REMARK  7 active torsions:
REMARK  status: ('A' for Active; 'I' for Inactive)
REMARK    1  A    between atoms: C_1  and  C_2
REMARK    2  A    between atoms: C_2  and  C_4
REMARK    3  A    between atoms: C_2  and  N_22
REMARK    4  A    between atoms: N_6  and  C_7
REMARK    5  A    between atoms: C_7  and  C_8
REMARK    6  A    between atoms: C_8  and  C_10
REMARK    7  A    between atoms: C_8  and  N_59
REMARK                            x       y       z     vdW  Elec       q    Type
REMARK                         _______ _______ _______ _____ _____    ______ ____
ROOT
ATOM      1  C   UNL     1       0.966  -1.764   1.338  0.00  0.00    +0.234 C 
ATOM      2  O   UNL     1       0.367  -2.553   0.638  0.00  0.00    -0.274 OA
ATOM      3  N   UNL     1       0.802  -0.439   1.153  0.00  0.00    -0.315 N 
ATOM      4  H   UNL     1       1.281   0.192   1.712  0.00  0.00    +0.149 HD
ENDROOT
BRANCH   1   6
ATOM      5  C   UNL     1       1.418  -1.758   3.776  0.00  0.00    +0.038 C 
ATOM      6  C   UNL     1       1.895  -2.265   2.413  0.00  0.00    +0.167 C 
BRANCH   6   7
ATOM      7  N   UNL     1       1.899  -3.730   2.412  0.00  0.00    -0.230 N 
ATOM      8  C   UNL     1       0.793  -4.468   2.627  0.00  0.00    +0.227 C 
ATOM      9  O   UNL     1      -0.350  -4.064   2.644  0.00  0.00    -0.275 OA
ATOM     10  C   UNL     1       1.249  -5.920   2.843  0.00  0.00    +0.091 C 
ATOM     11  C   UNL     1       1.538  -6.014   4.343  0.00  0.00    +0.040 C 
ATOM     12  C   UNL     1       2.677  -6.917   4.670  0.00  0.00    -0.030 C 
ATOM     13  C   UNL     1       3.569  -7.315   3.825  0.00  0.00    -0.030 C 
ATOM     14  C   UNL     1       3.540  -6.955   2.386  0.00  0.00    +0.040 C 
ATOM     15  C   UNL     1       2.557  -5.886   2.037  0.00  0.00    +0.091 C 
ATOM     16  C   UNL     1       3.014  -4.464   2.199  0.00  0.00    +0.227 C 
ATOM     17  O   UNL     1       4.154  -4.056   2.150  0.00  0.00    -0.275 OA
ENDBRANCH   6   7
ENDBRANCH   1   6
BRANCH   3  18
ATOM     18  C   UNL     1      -0.101   0.049   0.107  0.00  0.00    +0.093 C 
BRANCH  18  19
ATOM     19  C   UNL     1      -0.030   1.575   0.043  0.00  0.00    -0.020 C 
BRANCH  19  20
ATOM     20  C   UNL     1      -0.521   2.156   1.344  0.00  0.00    -0.059 A 
ATOM     21  C   UNL     1      -1.878   2.268   1.582  0.00  0.00    +0.005 A 
ATOM     22  C   UNL     1      -2.329   2.796   2.777  0.00  0.00    +0.038 A 
ATOM     23  C   UNL     1      -1.421   3.223   3.732  0.00  0.00    +0.123 A 
ATOM     24  C   UNL     1      -0.062   3.114   3.490  0.00  0.00    +0.038 A 
ATOM     25  C   UNL     1       0.387   2.581   2.296  0.00  0.00    +0.005 A 
ATOM     26  F   UNL     1      -1.861   3.743   4.898  0.00  0.00    -0.205 F 
ENDBRANCH  19  20
BRANCH  19  32
ATOM     27  C   UNL     1      -0.467   1.459  -2.337  0.00  0.00    -0.049 C 
ATOM     28  C   UNL     1      -1.408   1.942  -3.444  0.00  0.00    +0.141 C 
ATOM     29  O   UNL     1      -1.390   3.372  -3.487  0.00  0.00    -0.383 OA
ATOM     30  C   UNL     1      -1.782   3.989  -2.258  0.00  0.00    +0.141 C 
ATOM     31  C   UNL     1      -0.845   3.527  -1.139  0.00  0.00    -0.049 C 
ATOM     32  N   UNL     1      -0.900   2.052  -1.054  0.00  0.00    +0.388 N 
ATOM     33  H   UNL     1      -1.867   1.764  -0.862  0.00  0.00    -0.081 HD
ENDBRANCH  19  32
ENDBRANCH  18  19
ENDBRANCH   3  18
TORSDOF 6
