REMARK  Name = ZINC11666970
REMARK  10 active torsions:
REMARK  status: ('A' for Active; 'I' for Inactive)
REMARK    1  A    between atoms: C_1  and  O_2
REMARK    2  A    between atoms: O_2  and  C_3
REMARK    3  A    between atoms: C_6  and  C_9
REMARK    4  A    between atoms: C_14  and  O_20
REMARK    5  A    between atoms: O_20  and  C_21
REMARK    6  A    between atoms: C_23  and  O_36
REMARK    7  A    between atoms: C_25  and  O_35
REMARK    8  A    between atoms: C_27  and  O_34
REMARK    9  A    between atoms: C_29  and  C_32
REMARK   10  A    between atoms: C_32  and  O_33
REMARK                            x       y       z     vdW  Elec       q    Type
REMARK                         _______ _______ _______ _____ _____    ______ ____
ROOT
ATOM      1  C   UNL     1       6.037   0.327  -4.112  0.00  0.00    +0.064 A 
ATOM      2  C   UNL     1       6.398   1.187  -3.125  0.00  0.00    +0.208 A 
ATOM      3  O   UNL     1       5.553   1.575  -2.166  0.00  0.00    -0.462 OA
ATOM      4  C   UNL     1       4.276   1.152  -2.089  0.00  0.00    +0.142 A 
ATOM      5  C   UNL     1       3.446   1.593  -1.066  0.00  0.00    +0.092 A 
ATOM      6  C   UNL     1       2.137   1.149  -1.003  0.00  0.00    +0.128 A 
ATOM      7  C   UNL     1       1.643   0.258  -1.954  0.00  0.00    +0.047 A 
ATOM      8  C   UNL     1       2.443  -0.180  -2.970  0.00  0.00    +0.019 A 
ATOM      9  C   UNL     1       3.766   0.258  -3.047  0.00  0.00    +0.065 A 
ATOM     10  C   UNL     1       4.662  -0.199  -4.125  0.00  0.00    +0.200 A 
ATOM     11  O   UNL     1       4.281  -0.973  -4.986  0.00  0.00    -0.286 OA
ENDROOT
BRANCH   1  15
ATOM     12  C   UNL     1       8.828  -0.829  -7.107  0.00  0.00    +0.120 A 
ATOM     13  C   UNL     1       8.646   0.515  -6.812  0.00  0.00    +0.046 A 
ATOM     14  C   UNL     1       7.742   0.893  -5.841  0.00  0.00    +0.012 A 
ATOM     15  C   UNL     1       7.010  -0.076  -5.157  0.00  0.00    -0.011 A 
ATOM     16  C   UNL     1       7.199  -1.425  -5.452  0.00  0.00    +0.012 A 
ATOM     17  C   UNL     1       8.101  -1.797  -6.427  0.00  0.00    +0.046 A 
BRANCH  12  19
ATOM     18  C   UNL     1       9.857  -2.598  -8.317  0.00  0.00    +0.277 C 
ATOM     19  O   UNL     1       9.720  -1.198  -8.064  0.00  0.00    -0.495 OA
ENDBRANCH  12  19
ENDBRANCH   1  15
BRANCH   6  20
ATOM     20  O   UNL     1       1.328   1.581  -0.002  0.00  0.00    -0.461 OA
BRANCH  20  21
ATOM     21  C   UNL     1      -0.013   1.086   0.008  0.00  0.00    +0.339 C 
ATOM     22  C   UNL     1      -0.730   1.580   1.267  0.00  0.00    +0.214 C 
ATOM     23  C   UNL     1      -2.183   1.095   1.241  0.00  0.00    +0.180 C 
ATOM     24  C   UNL     1      -2.853   1.594  -0.043  0.00  0.00    +0.177 C 
ATOM     25  C   UNL     1      -2.053   1.100  -1.252  0.00  0.00    +0.179 C 
ATOM     26  O   UNL     1      -0.704   1.559  -1.149  0.00  0.00    -0.331 OA
BRANCH  24  27
ATOM     27  O   UNL     1      -4.187   1.088  -0.114  0.00  0.00    -0.386 OA
ATOM     28  H   UNL     1      -4.751   1.362   0.622  0.00  0.00    +0.210 HD
ENDBRANCH  24  27
BRANCH  23  29
ATOM     29  O   UNL     1      -2.211  -0.333   1.271  0.00  0.00    -0.386 OA
ATOM     30  H   UNL     1      -1.803  -0.718   2.058  0.00  0.00    +0.210 HD
ENDBRANCH  23  29
BRANCH  22  31
ATOM     31  O   UNL     1      -0.703   3.008   1.303  0.00  0.00    -0.383 OA
ATOM     32  H   UNL     1       0.187   3.385   1.316  0.00  0.00    +0.210 HD
ENDBRANCH  22  31
BRANCH  25  33
ATOM     33  C   UNL     1      -2.682   1.643  -2.537  0.00  0.00    +0.190 C 
BRANCH  33  34
ATOM     34  O   UNL     1      -2.007   1.090  -3.668  0.00  0.00    -0.392 OA
ATOM     35  H   UNL     1      -2.353   1.391  -4.519  0.00  0.00    +0.210 HD
ENDBRANCH  33  34
ENDBRANCH  25  33
ENDBRANCH  20  21
ENDBRANCH   6  20
TORSDOF 9
