REMARK  Name = ZINC10610685
REMARK  6 active torsions:
REMARK  status: ('A' for Active; 'I' for Inactive)
REMARK    1  A    between atoms: C_1  and  C_2
REMARK    2  A    between atoms: C_2  and  C_4
REMARK    3  A    between atoms: C_2  and  N_40
REMARK    4  A    between atoms: C_11  and  C_12
REMARK    5  A    between atoms: C_11  and  N_40
REMARK    6  A    between atoms: C_14  and  N_22
REMARK                            x       y       z     vdW  Elec       q    Type
REMARK                         _______ _______ _______ _____ _____    ______ ____
ROOT
ATOM      1  C   UNL     1      -1.955   1.773   3.685  0.00  0.00    -0.042 C 
ENDROOT
BRANCH   1   2
ATOM      2  C   UNL     1      -2.718   1.494   2.416  0.00  0.00    -0.020 A 
ATOM      3  C   UNL     1      -4.090   1.340   2.455  0.00  0.00    +0.038 A 
ATOM      4  C   UNL     1      -4.791   1.082   1.292  0.00  0.00    +0.127 A 
ATOM      5  C   UNL     1      -4.120   0.977   0.087  0.00  0.00    +0.042 A 
ATOM      6  C   UNL     1      -2.747   1.129   0.043  0.00  0.00    +0.022 A 
ATOM      7  C   UNL     1      -2.042   1.390   1.208  0.00  0.00    +0.130 A 
ATOM      8  O   UNL     1      -0.689   1.550   1.180  0.00  0.00    -0.466 OA
ATOM      9  C   UNL     1      -0.013   1.086   0.008  0.00  0.00    +0.394 C 
ATOM     10  O   UNL     1      -0.712   1.564  -1.147  0.00  0.00    -0.339 OA
ATOM     11  C   UNL     1      -2.025   1.010  -1.276  0.00  0.00    +0.202 C 
BRANCH   4  12
ATOM     12  N   UNL     1      -6.261   0.918   1.335  0.00  0.00    +0.056 N 
ATOM     13  O   UNL     1      -6.879   0.691   0.311  0.00  0.00    -0.126 OA
ATOM     14  O   UNL     1      -6.853   1.010   2.396  0.00  0.00    -0.126 OA
ENDBRANCH   4  12
ENDBRANCH   1   2
BRANCH   1  15
ATOM     15  N   UNL     1      -1.660   3.217   3.763  0.00  0.00    +0.386 N 
ATOM     16  H   UNL     1      -1.097   3.492   2.950  0.00  0.00    -0.085 HD
ATOM     17  H   UNL     1      -2.542   3.743   3.764  0.00  0.00    -0.085 HD
BRANCH  15  19
ATOM     18  C   UNL     1      -1.894   3.722   6.154  0.00  0.00    -0.009 C 
ATOM     19  C   UNL     1      -0.912   3.520   4.998  0.00  0.00    -0.044 C 
BRANCH  19  20
ATOM     20  C   UNL     1      -0.111   4.780   4.794  0.00  0.00    -0.062 A 
ATOM     21  C   UNL     1      -0.656   5.840   4.093  0.00  0.00    +0.003 A 
ATOM     22  C   UNL     1       0.075   6.998   3.910  0.00  0.00    +0.020 A 
ATOM     23  C   UNL     1       1.359   7.092   4.419  0.00  0.00    +0.041 A 
ATOM     24  C   UNL     1       1.906   6.029   5.115  0.00  0.00    +0.020 A 
ATOM     25  C   UNL     1       1.171   4.874   5.302  0.00  0.00    +0.003 A 
ATOM     26 CL   UNL     1       2.281   8.544   4.183  0.00  0.00    -0.084 Cl
ENDBRANCH  19  20
ENDBRANCH  15  19
ENDBRANCH   1  15
TORSDOF 5
