REMARK  Name = ZINC09281351
REMARK  7 active torsions:
REMARK  status: ('A' for Active; 'I' for Inactive)
REMARK    1  A    between atoms: C_1  and  C_2
REMARK    2  A    between atoms: C_2  and  C_3
REMARK    3  A    between atoms: C_2  and  C_4
REMARK    4  A    between atoms: C_11  and  N_33
REMARK    5  A    between atoms: C_12  and  C_31
REMARK    6  A    between atoms: N_20  and  C_23
REMARK    7  A    between atoms: C_23  and  C_24
REMARK                            x       y       z     vdW  Elec       q    Type
REMARK                         _______ _______ _______ _____ _____    ______ ____
ROOT
ATOM      1  C   UNL     1      -1.412  -0.526   0.013  0.00  0.00    +0.047 A 
ATOM      2  C   UNL     1      -1.974  -1.307  -0.921  0.00  0.00    +0.061 A 
ATOM      3  C   UNL     1      -3.308  -1.567  -0.530  0.00  0.00    +0.245 A 
ATOM      4  N   UNL     1      -3.522  -0.956   0.598  0.00  0.00    -0.135 NA
ATOM      5  N   UNL     1      -2.341  -0.295   0.969  0.00  0.00    -0.278 N 
ATOM      6  H   UNL     1      -2.213   0.237   1.770  0.00  0.00    +0.189 HD
ATOM      7  O   UNL     1      -4.139  -2.339  -1.280  0.00  0.00    -0.421 OA
ATOM      8  C   UNL     1      -3.594  -3.068  -2.274  0.00  0.00    +0.201 C 
ATOM      9  C   UNL     1      -2.336  -2.903  -2.740  0.00  0.00    +0.110 C 
ATOM     10  C   UNL     1      -1.396  -1.866  -2.191  0.00  0.00    +0.145 C 
ATOM     11  C   UNL     1      -1.133  -0.785  -3.190  0.00  0.00    -0.001 A 
ATOM     12  C   UNL     1      -1.974   0.111  -3.812  0.00  0.00    +0.007 A 
ATOM     13  C   UNL     1      -1.395   1.004  -4.707  0.00  0.00    +0.000 A 
ATOM     14  C   UNL     1      -0.038   0.991  -4.958  0.00  0.00    +0.002 A 
ATOM     15  C   UNL     1       0.815   0.092  -4.337  0.00  0.00    +0.024 A 
ATOM     16  C   UNL     1       0.246  -0.810  -3.437  0.00  0.00    +0.041 A 
ATOM     17  N   UNL     1       0.851  -1.803  -2.688  0.00  0.00    -0.265 N 
ATOM     18  C   UNL     1      -0.038  -2.476  -1.926  0.00  0.00    +0.241 C 
ATOM     19  O   UNL     1       0.207  -3.395  -1.174  0.00  0.00    -0.274 OA
ENDROOT
BRANCH   1  21
ATOM     20  C   UNL     1      -0.019   1.526   0.010  0.00  0.00    +0.014 C 
ATOM     21  C   UNL     1       0.002  -0.004   0.002  0.00  0.00    +0.031 C 
ATOM     22  C   UNL     1       0.742  -0.511   1.242  0.00  0.00    +0.014 C 
ENDBRANCH   1  21
BRANCH   8  23
ATOM     23  N   UNL     1      -4.367  -4.045  -2.850  0.00  0.00    -0.328 N 
ATOM     24  H   UNL     1      -5.275  -4.190  -2.540  0.00  0.00    +0.145 HD
ATOM     25  H   UNL     1      -4.007  -4.588  -3.568  0.00  0.00    +0.145 HD
ENDBRANCH   8  23
BRANCH   9  26
ATOM     26  C   UNL     1      -1.880  -3.751  -3.801  0.00  0.00    +0.102 C 
ATOM     27  N   UNL     1      -1.518  -4.423  -4.643  0.00  0.00    -0.191 NA
ENDBRANCH   9  26
BRANCH  17  28
ATOM     28  C   UNL     1       2.288  -2.090  -2.716  0.00  0.00    +0.148 C 
BRANCH  28  29
ATOM     29  C   UNL     1       2.986  -1.264  -1.668  0.00  0.00    -0.030 A 
ATOM     30  C   UNL     1       3.461  -0.005  -1.984  0.00  0.00    +0.006 A 
ATOM     31  C   UNL     1       4.102   0.754  -1.022  0.00  0.00    +0.020 A 
ATOM     32  C   UNL     1       4.269   0.253   0.256  0.00  0.00    +0.041 A 
ATOM     33  C   UNL     1       3.793  -1.008   0.572  0.00  0.00    +0.020 A 
ATOM     34  C   UNL     1       3.147  -1.763  -0.389  0.00  0.00    +0.006 A 
ATOM     35 CL   UNL     1       5.074   1.204   1.464  0.00  0.00    -0.084 Cl
ENDBRANCH  28  29
ENDBRANCH  17  28
TORSDOF 5
