REMARK  Name = ZINC20588982
REMARK  12 active torsions:
REMARK  status: ('A' for Active; 'I' for Inactive)
REMARK    1  A    between atoms: C_1  and  N_2
REMARK    2  A    between atoms: N_2  and  C_3
REMARK    3  A    between atoms: N_2  and  C_4
REMARK    4  A    between atoms: C_4  and  C_5
REMARK    5  A    between atoms: C_5  and  C_6
REMARK    6  A    between atoms: C_6  and  N_7
REMARK    7  A    between atoms: N_7  and  C_8
REMARK    8  A    between atoms: C_10  and  N_25
REMARK    9  A    between atoms: C_11  and  N_24
REMARK   10  A    between atoms: N_28  and  C_31
REMARK   11  A    between atoms: C_31  and  C_32
REMARK   12  A    between atoms: C_32  and  O_33
REMARK                            x       y       z     vdW  Elec       q    Type
REMARK                         _______ _______ _______ _____ _____    ______ ____
ROOT
ATOM      1  C   UNL     1       4.317   2.194  -1.294  0.00  0.00    +0.041 A 
ATOM      2  C   UNL     1       5.638   1.772  -1.445  0.00  0.00    +0.048 A 
ATOM      3  C   UNL     1       5.924   0.450  -1.723  0.00  0.00    +0.053 A 
ATOM      4  C   UNL     1       4.883  -0.491  -1.858  0.00  0.00    +0.058 A 
ATOM      5  C   UNL     1       3.559  -0.082  -1.710  0.00  0.00    +0.057 A 
ATOM      6  C   UNL     1       3.270   1.274  -1.425  0.00  0.00    +0.056 A 
ATOM      7  C   UNL     1       1.875   1.703  -1.270  0.00  0.00    +0.196 C 
ATOM      8  O   UNL     1       1.615   2.789  -0.786  0.00  0.00    -0.287 OA
ATOM      9  C   UNL     1       0.788   0.801  -1.708  0.00  0.00    +0.033 A 
ATOM     10  C   UNL     1      -0.513   1.275  -1.849  0.00  0.00    +0.012 A 
ATOM     11  C   UNL     1      -1.517   0.416  -2.256  0.00  0.00    +0.001 A 
ATOM     12  C   UNL     1      -1.237  -0.910  -2.535  0.00  0.00    +0.001 A 
ATOM     13  C   UNL     1       0.051  -1.397  -2.404  0.00  0.00    +0.012 A 
ATOM     14  C   UNL     1       1.073  -0.548  -1.991  0.00  0.00    +0.033 A 
ATOM     15  C   UNL     1       2.457  -1.049  -1.847  0.00  0.00    +0.196 C 
ATOM     16  O   UNL     1       2.682  -2.244  -1.841  0.00  0.00    -0.287 OA
ENDROOT
BRANCH   3  17
ATOM     17  N   UNL     1       7.245   0.045  -1.871  0.00  0.00    -0.326 N 
ATOM     18  C   UNL     1       7.993   0.218  -0.618  0.00  0.00    +0.120 C 
ATOM     19  C   UNL     1       9.417  -0.311  -0.799  0.00  0.00    +0.103 C 
ATOM     20  N   UNL     1      10.069   0.410  -1.901  0.00  0.00    -0.297 NA
ATOM     21  C   UNL     1       9.321   0.236  -3.154  0.00  0.00    +0.103 C 
ATOM     22  C   UNL     1       7.897   0.766  -2.973  0.00  0.00    +0.120 C 
BRANCH  20  23
ATOM     23  C   UNL     1      11.465  -0.018  -2.057  0.00  0.00    +0.112 C 
BRANCH  23  24
ATOM     24  C   UNL     1      11.533  -1.547  -2.059  0.00  0.00    +0.171 C 
BRANCH  24  25
ATOM     25  O   UNL     1      10.878  -2.051  -3.224  0.00  0.00    -0.394 OA
ATOM     26  H   UNL     1      10.825  -3.136  -3.400  0.00  0.00    +0.209 HD
ENDBRANCH  24  25
ENDBRANCH  23  24
ENDBRANCH  20  23
ENDBRANCH   3  17
BRANCH   4  27
ATOM     27  N   UNL     1       5.176  -1.817  -2.138  0.00  0.00    -0.356 N 
ATOM     28  H   UNL     1       4.362  -2.549  -2.242  0.00  0.00    +0.142 HD
ATOM     29  H   UNL     1       6.222  -2.136  -2.255  0.00  0.00    +0.142 HD
ENDBRANCH   4  27
BRANCH   1  30
ATOM     30  N   UNL     1       4.041   3.524  -1.015  0.00  0.00    -0.343 N 
ATOM     31  H   UNL     1       3.001   3.880  -1.010  0.00  0.00    +0.146 HD
BRANCH  30  32
ATOM     32  C   UNL     1       5.135   4.454  -0.725  0.00  0.00    +0.100 C 
BRANCH  32  33
ATOM     33  C   UNL     1       4.563   5.846  -0.454  0.00  0.00    -0.000 C 
BRANCH  33  34
ATOM     34  C   UNL     1       5.705   6.818  -0.151  0.00  0.00    -0.078 C 
BRANCH  34  36
ATOM     35  C   UNL     1       4.354   8.164   1.341  0.00  0.00    -0.097 C 
ATOM     36  N   UNL     1       5.155   8.155   0.109  0.00  0.00    +0.376 N 
ATOM     37  C   UNL     1       6.224   9.161   0.169  0.00  0.00    -0.097 C 
ATOM     38  H   UNL     1       4.491   8.416  -0.728  0.00  0.00    -0.083 HD
ENDBRANCH  34  36
ENDBRANCH  33  34
ENDBRANCH  32  33
ENDBRANCH  30  32
ENDBRANCH   1  30
TORSDOF 10
