REMARK  Name = ZINC09952140
REMARK  9 active torsions:
REMARK  status: ('A' for Active; 'I' for Inactive)
REMARK    1  A    between atoms: C_1  and  C_2
REMARK    2  A    between atoms: C_2  and  C_3
REMARK    3  A    between atoms: C_3  and  C_4
REMARK    4  A    between atoms: C_3  and  C_5
REMARK    5  A    between atoms: C_3  and  C_6
REMARK    6  A    between atoms: C_13  and  N_17
REMARK    7  A    between atoms: C_14  and  C_15
REMARK    8  A    between atoms: C_18  and  C_20
REMARK    9  A    between atoms: C_20  and  N_21
REMARK                            x       y       z     vdW  Elec       q    Type
REMARK                         _______ _______ _______ _____ _____    ______ ____
ROOT
ATOM      1  N   UNL     1      -0.016   1.344   0.009  0.00  0.00    -0.278 N 
ATOM      2  C   UNL     1       0.002  -0.004   0.002  0.00  0.00    +0.236 C 
ATOM      3  O   UNL     1       1.060  -0.596  -0.011  0.00  0.00    -0.274 OA
ATOM      4  H   UNL     1      -0.863   1.817   0.016  0.00  0.00    +0.155 HD
ENDROOT
BRANCH   1  11
ATOM      5  C   UNL     1       5.445   4.643  -0.403  0.00  0.00    -0.000 C 
ATOM      6  C   UNL     1       4.548   5.548   0.447  0.00  0.00    +0.009 C 
ATOM      7  C   UNL     1       3.092   5.403   0.003  0.00  0.00    +0.037 C 
ATOM      8  C   UNL     1       2.726   3.924  -0.003  0.00  0.00    -0.018 A 
ATOM      9  C   UNL     1       3.683   2.970  -0.017  0.00  0.00    -0.004 A 
ATOM     10  S   UNL     1       2.796   1.438  -0.009  0.00  0.00    -0.077 S 
ATOM     11  C   UNL     1       1.176   2.054   0.002  0.00  0.00    +0.090 A 
ATOM     12  C   UNL     1       1.361   3.428   0.007  0.00  0.00    +0.084 A 
ATOM     13  C   UNL     1       5.166   3.179  -0.031  0.00  0.00    +0.047 C 
BRANCH   5  14
ATOM     14  C   UNL     1       6.913   4.972  -0.128  0.00  0.00    -0.032 C 
ATOM     15  C   UNL     1       7.184   6.435  -0.484  0.00  0.00    +0.011 C 
ATOM     16  C   UNL     1       7.219   4.742   1.353  0.00  0.00    +0.011 C 
BRANCH  14  18
ATOM     17  C   UNL     1       9.275   4.395  -0.704  0.00  0.00    +0.004 C 
ATOM     18  C   UNL     1       7.806   4.066  -0.979  0.00  0.00    +0.003 C 
ENDBRANCH  14  18
ENDBRANCH   5  14
BRANCH  12  19
ATOM     19  C   UNL     1       0.245   4.327   0.023  0.00  0.00    +0.102 C 
ATOM     20  N   UNL     1      -0.639   5.039   0.036  0.00  0.00    -0.191 NA
ENDBRANCH  12  19
ENDBRANCH   1  11
BRANCH   2  21
ATOM     21  C   UNL     1      -1.293  -0.775   0.010  0.00  0.00    +0.214 C 
BRANCH  21  22
ATOM     22  N   UNL     1      -1.005  -2.212  -0.000  0.00  0.00    -0.215 N 
ATOM     23  C   UNL     1      -0.846  -2.962   1.111  0.00  0.00    +0.247 C 
ATOM     24  O   UNL     1      -0.910  -2.592   2.264  0.00  0.00    -0.273 OA
ATOM     25  C   UNL     1      -0.571  -4.358   0.613  0.00  0.00    +0.113 C 
ATOM     26  C   UNL     1      -1.636  -5.343   1.115  0.00  0.00    +0.035 C 
ATOM     27  C   UNL     1      -0.849  -6.659   1.346  0.00  0.00    +0.003 C 
ATOM     28  C   UNL     1       0.509  -6.157   1.898  0.00  0.00    +0.003 C 
ATOM     29  C   UNL     1       0.789  -4.864   1.099  0.00  0.00    +0.035 C 
ATOM     30  N   UNL     1      -0.607  -4.240  -0.847  0.00  0.00    -0.285 N 
ATOM     31  C   UNL     1      -0.874  -2.945  -1.113  0.00  0.00    +0.310 C 
ATOM     32  O   UNL     1      -0.980  -2.494  -2.237  0.00  0.00    -0.252 OA
ATOM     33  H   UNL     1      -0.471  -4.951  -1.492  0.00  0.00    +0.151 HD
ENDBRANCH  21  22
ENDBRANCH   2  21
TORSDOF 6
