REMARK  Name = ZINC00958218
REMARK  7 active torsions:
REMARK  status: ('A' for Active; 'I' for Inactive)
REMARK    1  A    between atoms: C_1  and  C_2
REMARK    2  A    between atoms: C_3  and  C_25
REMARK    3  A    between atoms: N_9  and  C_12
REMARK    4  A    between atoms: C_12  and  C_13
REMARK    5  A    between atoms: N_15  and  N_16
REMARK    6  A    between atoms: C_17  and  C_18
REMARK    7  A    between atoms: C_23  and  O_24
REMARK                            x       y       z     vdW  Elec       q    Type
REMARK                         _______ _______ _______ _____ _____    ______ ____
ROOT
ATOM      1  C   UNL     1      -3.108   6.911   0.065  0.00  0.00    +0.052 C 
ATOM      2  C   UNL     1      -2.108   5.784   0.051  0.00  0.00    -0.003 A 
ATOM      3  C   UNL     1      -2.346   4.450   0.047  0.00  0.00    +0.007 A 
ATOM      4  C   UNL     1      -1.210   3.536   0.032  0.00  0.00    +0.080 A 
ATOM      5  C   UNL     1       0.051   4.153   0.022  0.00  0.00    +0.116 A 
ATOM      6  S   UNL     1      -0.329   5.886   0.034  0.00  0.00    -0.073 S 
ATOM      7  N   UNL     1       1.179   3.448   0.008  0.00  0.00    -0.230 NA
ATOM      8  C   UNL     1       1.156   2.142   0.003  0.00  0.00    +0.203 A 
ATOM      9  N   UNL     1      -0.018   1.461   0.010  0.00  0.00    -0.290 N 
ATOM     10  C   UNL     1      -1.200   2.104   0.019  0.00  0.00    +0.263 A 
ATOM     11  O   UNL     1      -2.245   1.478   0.021  0.00  0.00    -0.267 OA
ENDROOT
BRANCH   3  12
ATOM     12  C   UNL     1      -3.734   3.930   0.058  0.00  0.00    -0.016 A 
ATOM     13  C   UNL     1      -4.198   3.197   1.149  0.00  0.00    +0.008 A 
ATOM     14  C   UNL     1      -5.492   2.720   1.157  0.00  0.00    +0.001 A 
ATOM     15  C   UNL     1      -6.326   2.958   0.079  0.00  0.00    +0.000 A 
ATOM     16  C   UNL     1      -5.870   3.681  -1.009  0.00  0.00    +0.001 A 
ATOM     17  C   UNL     1      -4.579   4.168  -1.025  0.00  0.00    +0.008 A 
ENDBRANCH   3  12
BRANCH   9  18
ATOM     18  C   UNL     1       0.002  -0.004   0.002  0.00  0.00    +0.223 C 
BRANCH  18  19
ATOM     19  C   UNL     1       0.022  -0.514   1.420  0.00  0.00    +0.252 C 
ATOM     20  O   UNL     1       0.021   0.269   2.346  0.00  0.00    -0.272 OA
ATOM     21  N   UNL     1       0.043  -1.840   1.659  0.00  0.00    -0.206 N 
ATOM     22  H   UNL     1       0.044  -2.466   0.918  0.00  0.00    +0.177 HD
BRANCH  21  23
ATOM     23  N   UNL     1       0.062  -2.314   2.977  0.00  0.00    -0.188 NA
ATOM     24  C   UNL     1       0.081  -3.591   3.207  0.00  0.00    +0.142 C 
BRANCH  24  25
ATOM     25  C   UNL     1       0.101  -4.090   4.594  0.00  0.00    +0.036 A 
ATOM     26  C   UNL     1       0.117  -5.464   4.846  0.00  0.00    +0.013 A 
ATOM     27  C   UNL     1       0.140  -5.924   6.146  0.00  0.00    +0.001 A 
ATOM     28  C   UNL     1       0.138  -5.030   7.203  0.00  0.00    +0.004 A 
ATOM     29  C   UNL     1       0.117  -3.668   6.967  0.00  0.00    +0.046 A 
ATOM     30  C   UNL     1       0.099  -3.189   5.667  0.00  0.00    +0.125 A 
BRANCH  30  31
ATOM     31  O   UNL     1       0.080  -1.851   5.434  0.00  0.00    -0.506 OA
ATOM     32  H   UNL     1      -0.809  -1.475   5.374  0.00  0.00    +0.292 HD
ENDBRANCH  30  31
ENDBRANCH  24  25
ENDBRANCH  21  23
ENDBRANCH  18  19
ENDBRANCH   9  18
TORSDOF 6
