REMARK  Name = ZINC51173203
REMARK  4 active torsions:
REMARK  status: ('A' for Active; 'I' for Inactive)
REMARK    1  A    between atoms: C_5  and  C_6
REMARK    2  A    between atoms: N_8  and  C_9
REMARK    3  A    between atoms: C_9  and  C_14
REMARK    4  A    between atoms: N_15  and  O_16
REMARK                            x       y       z     vdW  Elec       q    Type
REMARK                         _______ _______ _______ _____ _____    ______ ____
ROOT
ATOM      1  C   UNL     1      -2.054  -3.203   0.150  0.00  0.00    +0.093 C 
ATOM      2  C   UNL     1      -2.840  -2.910   1.452  0.00  0.00    +0.033 C 
ATOM      3  C   UNL     1      -2.017  -3.666   2.525  0.00  0.00    +0.003 C 
ATOM      4  C   UNL     1      -1.571  -4.962   1.816  0.00  0.00    +0.003 C 
ATOM      5  C   UNL     1      -1.595  -4.667   0.306  0.00  0.00    +0.033 C 
ENDROOT
BRANCH   1   6
ATOM      6  C   UNL     1      -2.950  -3.056  -1.054  0.00  0.00    +0.155 C 
ATOM      7  N   UNL     1      -4.073  -3.693  -1.105  0.00  0.00    -0.075 NA
ATOM      8  N   UNL     1      -2.571  -2.244  -2.099  0.00  0.00    -0.342 N 
ATOM      9  H   UNL     1      -1.692  -1.832  -2.100  0.00  0.00    +0.144 HD
ATOM     10  H   UNL     1      -3.182  -2.084  -2.835  0.00  0.00    +0.144 HD
BRANCH   7  11
ATOM     11  O   UNL     1      -4.407  -4.622  -0.089  0.00  0.00    -0.408 OA
ATOM     12  H   UNL     1      -5.266  -5.048  -0.213  0.00  0.00    +0.328 HD
ENDBRANCH   7  11
ENDBRANCH   1   6
BRANCH   1  15
ATOM     13  C   UNL     1      -1.076  -0.976   0.010  0.00  0.00    +0.251 C 
ATOM     14  O   UNL     1      -2.201  -0.512  -0.015  0.00  0.00    -0.270 OA
ATOM     15  N   UNL     1      -0.897  -2.311   0.038  0.00  0.00    -0.299 N 
ATOM     16  H   UNL     1      -0.003  -2.683  -0.016  0.00  0.00    +0.150 HD
BRANCH  13  21
ATOM     17  C   UNL     1       0.120   1.304  -0.017  0.00  0.00    +0.022 A 
ATOM     18  C   UNL     1       1.372   1.870  -0.010  0.00  0.00    +0.028 A 
ATOM     19  C   UNL     1       2.461   1.060   0.021  0.00  0.00    +0.079 A 
ATOM     20  S   UNL     1       1.819  -0.492   0.042  0.00  0.00    -0.072 S 
ATOM     21  C   UNL     1       0.085  -0.082   0.009  0.00  0.00    +0.075 A 
ATOM     22 CL   UNL     1       4.134   1.523   0.037  0.00  0.00    -0.076 Cl
ENDBRANCH  13  21
ENDBRANCH   1  15
TORSDOF 4
