REMARK  Name = ZINC54645497
REMARK  8 active torsions:
REMARK  status: ('A' for Active; 'I' for Inactive)
REMARK    1  A    between atoms: C_1  and  C_2
REMARK    2  A    between atoms: C_4  and  N_26
REMARK    3  A    between atoms: C_7  and  N_8
REMARK    4  A    between atoms: C_9  and  C_11
REMARK    5  A    between atoms: C_11  and  N_12
REMARK    6  A    between atoms: C_19  and  C_25
REMARK    7  A    between atoms: C_22  and  C_23
REMARK    8  A    between atoms: C_22  and  C_24
REMARK                            x       y       z     vdW  Elec       q    Type
REMARK                         _______ _______ _______ _____ _____    ______ ____
ROOT
ATOM      1  N   UNL     1       0.025  -0.015   2.417  0.00  0.00    -0.284 N 
ATOM      2  C   UNL     1      -0.057  -0.694   3.578  0.00  0.00    +0.235 C 
ATOM      3  O   UNL     1      -0.040  -1.907   3.573  0.00  0.00    -0.274 OA
ATOM      4  H   UNL     1       0.077   0.954   2.425  0.00  0.00    +0.155 HD
ENDROOT
BRANCH   1  11
ATOM      5  C   UNL     1      -1.265   1.183   0.181  0.00  0.00    +0.046 C 
ATOM      6  C   UNL     1      -0.584  -0.158   0.084  0.00  0.00    -0.027 A 
ATOM      7  C   UNL     1      -0.569  -0.841  -1.117  0.00  0.00    +0.038 A 
ATOM      8  C   UNL     1       0.056  -2.071  -1.206  0.00  0.00    +0.127 A 
ATOM      9  C   UNL     1       0.667  -2.622  -0.095  0.00  0.00    +0.034 A 
ATOM     10  C   UNL     1       0.656  -1.944   1.109  0.00  0.00    +0.026 A 
ATOM     11  C   UNL     1       0.034  -0.706   1.201  0.00  0.00    +0.036 A 
BRANCH   8  12
ATOM     12  N   UNL     1       0.070  -2.800  -2.494  0.00  0.00    +0.056 N 
ATOM     13  O   UNL     1      -0.465  -2.320  -3.466  0.00  0.00    -0.126 OA
ATOM     14  O   UNL     1       0.615  -3.876  -2.574  0.00  0.00    -0.126 OA
ENDBRANCH   8  12
ENDBRANCH   1  11
BRANCH   2  15
ATOM     15  C   UNL     1      -0.169   0.052   4.882  0.00  0.00    +0.212 C 
BRANCH  15  16
ATOM     16  N   UNL     1      -0.242  -0.905   5.988  0.00  0.00    -0.233 N 
ATOM     17  C   UNL     1      -1.449  -1.350   6.384  0.00  0.00    +0.226 C 
ATOM     18  O   UNL     1      -2.457  -0.929   5.859  0.00  0.00    -0.275 OA
ATOM     19  C   UNL     1      -1.540  -2.384   7.493  0.00  0.00    +0.082 C 
ATOM     20  C   UNL     1      -1.255  -1.644   8.822  0.00  0.00    +0.014 C 
ATOM     21  C   UNL     1       0.278  -1.600   8.963  0.00  0.00    +0.017 C 
ATOM     22  C   UNL     1       0.842  -2.315   7.712  0.00  0.00    +0.051 C 
ATOM     23  C   UNL     1       0.900  -1.315   6.571  0.00  0.00    +0.229 C 
ATOM     24  O   UNL     1       1.965  -0.862   6.211  0.00  0.00    -0.275 OA
ATOM     25  C   UNL     1      -0.309  -3.315   7.310  0.00  0.00    -0.010 C 
ATOM     26  C   UNL     1      -0.366  -4.503   8.273  0.00  0.00    +0.012 C 
ATOM     27  C   UNL     1      -0.183  -3.788   5.861  0.00  0.00    +0.012 C 
ATOM     28  C   UNL     1       2.190  -2.994   7.964  0.00  0.00    +0.021 C 
ENDBRANCH  15  16
ENDBRANCH   2  15
TORSDOF 4
