REMARK  Name = ZINC21706602
REMARK  10 active torsions:
REMARK  status: ('A' for Active; 'I' for Inactive)
REMARK    1  A    between atoms: C_1  and  C_2
REMARK    2  A    between atoms: C_3  and  N_9
REMARK    3  A    between atoms: C_10  and  C_12
REMARK    4  A    between atoms: C_12  and  N_13
REMARK    5  A    between atoms: C_16  and  C_20
REMARK    6  A    between atoms: C_16  and  C_21
REMARK    7  A    between atoms: C_24  and  C_27
REMARK    8  A    between atoms: C_27  and  C_28
REMARK    9  A    between atoms: C_27  and  C_29
REMARK   10  A    between atoms: C_27  and  C_30
REMARK                            x       y       z     vdW  Elec       q    Type
REMARK                         _______ _______ _______ _____ _____    ______ ____
ROOT
ATOM      1  N   UNL     1       7.181   0.268  -0.378  0.00  0.00    -0.215 N 
ATOM      2  C   UNL     1       7.855   0.762   0.679  0.00  0.00    +0.251 C 
ATOM      3  O   UNL     1       7.675   0.502   1.849  0.00  0.00    -0.272 OA
ATOM      4  C   UNL     1       8.886   1.712   0.100  0.00  0.00    +0.135 C 
ATOM      5  N   UNL     1       8.650   1.635  -1.352  0.00  0.00    -0.281 N 
ATOM      6  C   UNL     1       7.640   0.764  -1.533  0.00  0.00    +0.310 C 
ATOM      7  O   UNL     1       7.193   0.465  -2.622  0.00  0.00    -0.252 OA
ATOM      8  C   UNL     1       8.654   3.135   0.612  0.00  0.00    +0.047 C 
ATOM      9  H   UNL     1       9.262   2.235  -2.042  0.00  0.00    +0.152 HD
ENDROOT
BRANCH   4  10
ATOM     10  C   UNL     1      10.280   1.250   0.435  0.00  0.00    -0.015 A 
ATOM     11  C   UNL     1      10.514   0.552   1.606  0.00  0.00    +0.006 A 
ATOM     12  C   UNL     1      11.793   0.125   1.912  0.00  0.00    +0.004 A 
ATOM     13  C   UNL     1      12.839   0.403   1.052  0.00  0.00    -0.042 A 
ATOM     14  C   UNL     1      12.605   1.104  -0.116  0.00  0.00    +0.004 A 
ATOM     15  C   UNL     1      11.326   1.528  -0.424  0.00  0.00    +0.006 A 
BRANCH  13  16
ATOM     16  C   UNL     1      14.233  -0.059   1.388  0.00  0.00    -0.013 C 
ATOM     17  C   UNL     1      15.161   1.153   1.494  0.00  0.00    +0.015 C 
ATOM     18  C   UNL     1      14.216  -0.806   2.723  0.00  0.00    +0.015 C 
ATOM     19  C   UNL     1      14.740  -0.994   0.288  0.00  0.00    +0.015 C 
ENDBRANCH  13  16
ENDBRANCH   4  10
BRANCH   1  20
ATOM     20  C   UNL     1       6.084  -0.698  -0.276  0.00  0.00    +0.214 C 
BRANCH  20  22
ATOM     21  N   UNL     1       3.623  -0.649  -0.036  0.00  0.00    -0.284 N 
ATOM     22  C   UNL     1       4.776   0.040  -0.145  0.00  0.00    +0.235 C 
ATOM     23  O   UNL     1       4.761   1.252  -0.139  0.00  0.00    -0.274 OA
ATOM     24  H   UNL     1       3.643  -1.746   0.049  0.00  0.00    +0.155 HD
BRANCH  21  27
ATOM     25  C   UNL     1       1.397  -1.895   1.225  0.00  0.00    +0.047 C 
ATOM     26  C   UNL     1       1.288  -0.541   0.573  0.00  0.00    -0.011 A 
ATOM     27  C   UNL     1       2.400   0.031  -0.032  0.00  0.00    +0.038 A 
ATOM     28  C   UNL     1       2.295   1.279  -0.632  0.00  0.00    +0.023 A 
ATOM     29  C   UNL     1       1.087   1.948  -0.626  0.00  0.00    +0.003 A 
ATOM     30  C   UNL     1      -0.019   1.377  -0.024  0.00  0.00    +0.020 A 
ATOM     31  C   UNL     1       0.082   0.133   0.576  0.00  0.00    +0.046 A 
ATOM     32 CL   UNL     1      -1.309  -0.580   1.331  0.00  0.00    -0.083 Cl
ENDBRANCH  21  27
ENDBRANCH  20  22
ENDBRANCH   1  20
TORSDOF 5
