REMARK  Name = ZINC45873400
REMARK  13 active torsions:
REMARK  status: ('A' for Active; 'I' for Inactive)
REMARK    1  A    between atoms: C_1  and  O_2
REMARK    2  A    between atoms: O_2  and  C_3
REMARK    3  A    between atoms: C_3  and  C_4
REMARK    4  A    between atoms: C_4  and  N_5
REMARK    5  A    between atoms: N_5  and  C_6
REMARK    6  A    between atoms: N_5  and  C_21
REMARK    7  A    between atoms: C_6  and  C_7
REMARK    8  A    between atoms: N_9  and  C_10
REMARK    9  A    between atoms: C_10  and  C_12
REMARK   10  A    between atoms: C_10  and  C_18
REMARK   11  A    between atoms: C_22  and  N_37
REMARK   12  A    between atoms: N_23  and  C_30
REMARK   13  A    between atoms: C_30  and  C_31
REMARK                            x       y       z     vdW  Elec       q    Type
REMARK                         _______ _______ _______ _____ _____    ______ ____
ROOT
ATOM      1  N   UNL     1      -0.496  -2.254   0.911  0.00  0.00    -0.312 N 
ENDROOT
BRANCH   1   2
ATOM      2  C   UNL     1       0.892  -2.387   1.151  0.00  0.00    +0.134 A 
ATOM      3  C   UNL     1       1.464  -1.812   2.253  0.00  0.00    +0.127 A 
ATOM      4  N   UNL     1       2.817  -1.956   2.463  0.00  0.00    -0.276 N 
ATOM      5  C   UNL     1       3.570  -2.654   1.594  0.00  0.00    +0.331 A 
ATOM      6  O   UNL     1       4.764  -2.771   1.796  0.00  0.00    -0.246 OA
ATOM      7  N   UNL     1       3.024  -3.225   0.505  0.00  0.00    -0.273 N 
ATOM      8  H   UNL     1       3.585  -3.725  -0.108  0.00  0.00    +0.173 HD
ATOM      9  C   UNL     1       1.703  -3.116   0.263  0.00  0.00    +0.277 A 
ATOM     10  O   UNL     1       1.214  -3.642  -0.724  0.00  0.00    -0.266 OA
BRANCH   3  11
ATOM     11  N   UNL     1       0.695  -1.097   3.142  0.00  0.00    -0.343 N 
ATOM     12  H   UNL     1      -0.269  -1.064   3.033  0.00  0.00    +0.144 HD
ATOM     13  H   UNL     1       1.116  -0.626   3.879  0.00  0.00    +0.144 HD
ENDBRANCH   3  11
BRANCH   4  14
ATOM     14  C   UNL     1       3.440  -1.344   3.639  0.00  0.00    +0.163 C 
BRANCH  14  15
ATOM     15  C   UNL     1       3.412  -2.320   4.787  0.00  0.00    -0.028 A 
ATOM     16  C   UNL     1       2.333  -2.342   5.650  0.00  0.00    +0.005 A 
ATOM     17  C   UNL     1       2.307  -3.237   6.703  0.00  0.00    +0.000 A 
ATOM     18  C   UNL     1       3.361  -4.112   6.893  0.00  0.00    +0.000 A 
ATOM     19  C   UNL     1       4.440  -4.091   6.029  0.00  0.00    +0.000 A 
ATOM     20  C   UNL     1       4.464  -3.198   4.973  0.00  0.00    +0.005 A 
ENDBRANCH  14  15
ENDBRANCH   4  14
ENDBRANCH   1   2
BRANCH   1  21
ATOM     21  C   UNL     1      -0.970  -1.505  -0.255  0.00  0.00    +0.134 C 
BRANCH  21  22
ATOM     22  C   UNL     1      -1.285  -0.066   0.157  0.00  0.00    +0.178 C 
BRANCH  22  24
ATOM     23  C   UNL     1      -0.265   1.945   0.970  0.00  0.00    +0.194 C 
ATOM     24  O   UNL     1      -0.080   0.588   0.563  0.00  0.00    -0.381 OA
ENDBRANCH  22  24
ENDBRANCH  21  22
ENDBRANCH   1  21
BRANCH   1  25
ATOM     25  C   UNL     1      -1.459  -2.867   1.829  0.00  0.00    +0.201 C 
BRANCH  25  26
ATOM     26  C   UNL     1      -1.865  -4.219   1.303  0.00  0.00    +0.231 C 
ATOM     27  O   UNL     1      -1.396  -4.631   0.263  0.00  0.00    -0.274 OA
ATOM     28  N   UNL     1      -2.750  -4.971   1.988  0.00  0.00    -0.307 N 
ATOM     29  H   UNL     1      -3.125  -4.642   2.819  0.00  0.00    +0.149 HD
BRANCH  28  30
ATOM     30  C   UNL     1      -3.145  -6.286   1.476  0.00  0.00    +0.106 C 
BRANCH  30  31
ATOM     31  C   UNL     1      -3.604  -7.153   2.619  0.00  0.00    -0.027 A 
ATOM     32  C   UNL     1      -4.377  -6.611   3.630  0.00  0.00    +0.005 A 
ATOM     33  C   UNL     1      -4.798  -7.407   4.679  0.00  0.00    +0.000 A 
ATOM     34  C   UNL     1      -4.448  -8.743   4.717  0.00  0.00    +0.000 A 
ATOM     35  C   UNL     1      -3.677  -9.285   3.706  0.00  0.00    +0.000 A 
ATOM     36  C   UNL     1      -3.259  -8.491   2.655  0.00  0.00    +0.005 A 
ENDBRANCH  30  31
BRANCH  30  37
ATOM     37  C   UNL     1      -4.286  -6.120   0.471  0.00  0.00    +0.014 C 
ATOM     38  C   UNL     1      -4.127  -6.788  -0.896  0.00  0.00    +0.006 C 
ATOM     39  C   UNL     1      -4.016  -5.267  -0.771  0.00  0.00    +0.006 C 
ENDBRANCH  30  37
ENDBRANCH  28  30
ENDBRANCH  25  26
ENDBRANCH   1  25
TORSDOF 12
