REMARK  Name = ZINC13651305
REMARK  7 active torsions:
REMARK  status: ('A' for Active; 'I' for Inactive)
REMARK    1  A    between atoms: C_1  and  C_2
REMARK    2  A    between atoms: C_3  and  C_24
REMARK    3  A    between atoms: C_6  and  C_9
REMARK    4  A    between atoms: C_7  and  O_8
REMARK    5  A    between atoms: C_12  and  C_14
REMARK    6  A    between atoms: C_12  and  C_15
REMARK    7  A    between atoms: N_17  and  C_18
REMARK                            x       y       z     vdW  Elec       q    Type
REMARK                         _______ _______ _______ _____ _____    ______ ____
ROOT
ATOM      1  C   UNL     1       0.169  -3.550   2.471  0.00  0.00    +0.048 C 
ATOM      2  C   UNL     1       0.127  -2.626   1.281  0.00  0.00    -0.002 A 
ATOM      3  C   UNL     1       0.094  -3.145   0.003  0.00  0.00    -0.002 A 
ATOM      4  C   UNL     1       0.054  -2.297  -1.098  0.00  0.00    +0.129 A 
ATOM      5  C   UNL     1       0.046  -0.926  -0.910  0.00  0.00    +0.001 A 
ATOM      6  C   UNL     1       0.083  -0.405   0.372  0.00  0.00    -0.002 A 
ATOM      7  C   UNL     1       0.120  -1.252   1.469  0.00  0.00    +0.123 A 
ATOM      8  C   UNL     1       0.075   1.088   0.576  0.00  0.00    +0.048 C 
ATOM      9  C   UNL     1       0.009   0.027  -2.078  0.00  0.00    +0.043 C 
ATOM     10  C   UNL     1      -0.468  -0.712  -3.331  0.00  0.00    +0.062 C 
ATOM     11  C   UNL     1       0.328  -2.018  -3.453  0.00  0.00    +0.183 C 
ATOM     12  O   UNL     1       0.012  -2.850  -2.340  0.00  0.00    -0.476 OA
ATOM     13  C   UNL     1      -0.046  -2.729  -4.755  0.00  0.00    +0.066 C 
ATOM     14  C   UNL     1       0.101  -4.639  -0.199  0.00  0.00    +0.048 C 
ENDROOT
BRANCH  11  15
ATOM     15  C   UNL     1       1.804  -1.715  -3.446  0.00  0.00    +0.261 C 
ATOM     16  O   UNL     1       2.201  -0.626  -3.803  0.00  0.00    -0.271 OA
ATOM     17  N   UNL     1       2.683  -2.654  -3.042  0.00  0.00    -0.282 N 
ATOM     18  H   UNL     1       2.362  -3.496  -2.685  0.00  0.00    +0.155 HD
BRANCH  17  19
ATOM     19  C   UNL     1       4.054  -2.413  -3.139  0.00  0.00    +0.036 A 
ATOM     20  C   UNL     1       4.572  -1.633  -4.171  0.00  0.00    +0.043 A 
ATOM     21  C   UNL     1       5.933  -1.415  -4.228  0.00  0.00    +0.112 A 
ATOM     22  N   UNL     1       6.741  -1.943  -3.328  0.00  0.00    -0.263 NA
ATOM     23  C   UNL     1       6.290  -2.691  -2.339  0.00  0.00    +0.112 A 
ATOM     24  C   UNL     1       4.941  -2.952  -2.209  0.00  0.00    +0.043 A 
ENDBRANCH  17  19
ENDBRANCH  11  15
BRANCH   7  25
ATOM     25  O   UNL     1       0.149  -0.736   2.727  0.00  0.00    -0.506 OA
ATOM     26  H   UNL     1      -0.725  -0.594   3.115  0.00  0.00    +0.292 HD
ENDBRANCH   7  25
TORSDOF 3
