REMARK  Name = ZINC39024722
REMARK  3 active torsions:
REMARK  status: ('A' for Active; 'I' for Inactive)
REMARK    1  A    between atoms: C_4  and  N_7
REMARK    2  A    between atoms: C_12  and  C_15
REMARK    3  A    between atoms: C_15  and  N_17
REMARK                            x       y       z     vdW  Elec       q    Type
REMARK                         _______ _______ _______ _____ _____    ______ ____
ROOT
ATOM      1  N   UNL     1       3.620  -0.649  -0.037  0.00  0.00    -0.242 N 
ATOM      2  C   UNL     1       4.801   0.040  -0.040  0.00  0.00    +0.097 C 
ATOM      3  C   UNL     1       5.903  -0.538   0.506  0.00  0.00    +0.065 C 
ATOM      4  C   UNL     1       5.797  -1.819   1.071  0.00  0.00    +0.185 C 
ATOM      5  O   UNL     1       6.774  -2.361   1.552  0.00  0.00    -0.290 OA
ATOM      6  C   UNL     1       4.459  -2.518   1.076  0.00  0.00    +0.231 C 
ATOM      7  N   UNL     1       3.655  -2.019  -0.045  0.00  0.00    -0.217 NA
ATOM      8  H   UNL     1       4.009  -2.367  -0.923  0.00  0.00    +0.146 HD
ENDROOT
BRANCH   1  12
ATOM      9  C   UNL     1      -0.017   1.379   0.010  0.00  0.00    +0.000 A 
ATOM     10  C   UNL     1       1.169   2.090   0.002  0.00  0.00    +0.002 A 
ATOM     11  C   UNL     1       2.377   1.420  -0.013  0.00  0.00    +0.025 A 
ATOM     12  C   UNL     1       2.400   0.031  -0.021  0.00  0.00    +0.049 A 
ATOM     13  C   UNL     1       1.206  -0.680  -0.013  0.00  0.00    +0.025 A 
ATOM     14  C   UNL     1       0.002  -0.004   0.002  0.00  0.00    +0.002 A 
ENDBRANCH   1  12
BRANCH   6  15
ATOM     15  C   UNL     1       3.746  -2.233   2.373  0.00  0.00    +0.265 C 
ATOM     16  O   UNL     1       2.666  -1.676   2.363  0.00  0.00    -0.271 OA
BRANCH  15  17
ATOM     17  N   UNL     1       4.298  -2.591   3.527  0.00  0.00    -0.155 NA
ATOM     18  C   UNL     1       3.669  -2.339   4.673  0.00  0.00    +0.164 A 
ATOM     19  N   UNL     1       4.085  -2.628   5.932  0.00  0.00    -0.335 N 
ATOM     20  H   UNL     1       4.936  -3.070   6.073  0.00  0.00    +0.168 HD
ATOM     21  C   UNL     1       3.292  -2.289   7.013  0.00  0.00    +0.055 A 
ATOM     22  C   UNL     1       3.526  -2.490   8.380  0.00  0.00    +0.029 A 
ATOM     23  C   UNL     1       2.606  -2.079   9.317  0.00  0.00    +0.040 A 
ATOM     24  C   UNL     1       1.427  -1.455   8.939  0.00  0.00    +0.125 A 
ATOM     25  C   UNL     1       1.173  -1.244   7.593  0.00  0.00    +0.055 A 
ATOM     26  C   UNL     1       2.092  -1.655   6.658  0.00  0.00    +0.041 A 
ATOM     27  S   UNL     1       2.182  -1.586   4.888  0.00  0.00    -0.052 S 
ATOM     28  F   UNL     1       0.534  -1.058   9.873  0.00  0.00    -0.205 F 
ENDBRANCH  15  17
ENDBRANCH   6  15
TORSDOF 3
