REMARK  Name = ZINC08985555
REMARK  6 active torsions:
REMARK  status: ('A' for Active; 'I' for Inactive)
REMARK    1  A    between atoms: C_1  and  C_2
REMARK    2  A    between atoms: C_2  and  C_4
REMARK    3  A    between atoms: C_2  and  S_7
REMARK    4  A    between atoms: S_7  and  C_8
REMARK    5  A    between atoms: C_11  and  C_14
REMARK    6  A    between atoms: N_12  and  N_13
REMARK                            x       y       z     vdW  Elec       q    Type
REMARK                         _______ _______ _______ _____ _____    ______ ____
ROOT
ATOM      1  C   UNL     1       1.675   1.838   2.550  0.00  0.00    +0.209 A 
ATOM      2  N   UNL     1       1.996   2.659   1.577  0.00  0.00    -0.121 NA
ATOM      3  N   UNL     1       3.187   3.107   1.761  0.00  0.00    -0.132 NA
ATOM      4  C   UNL     1       3.695   2.597   2.847  0.00  0.00    +0.154 A 
ATOM      5  N   UNL     1       2.750   1.770   3.388  0.00  0.00    -0.228 N 
ENDROOT
BRANCH   4   6
ATOM      6  C   UNL     1       5.069   2.867   3.403  0.00  0.00    +0.059 C 
ATOM      7  C   UNL     1       5.213   4.361   3.704  0.00  0.00    +0.011 C 
ATOM      8  C   UNL     1       6.608   4.635   4.268  0.00  0.00    +0.001 C 
ATOM      9  C   UNL     1       7.664   4.217   3.243  0.00  0.00    +0.000 C 
ATOM     10  C   UNL     1       7.521   2.724   2.943  0.00  0.00    +0.001 C 
ATOM     11  C   UNL     1       6.125   2.449   2.378  0.00  0.00    +0.011 C 
ENDBRANCH   4   6
BRANCH   5  12
ATOM     12  N   UNL     1       2.859   1.029   4.531  0.00  0.00    -0.295 N 
ATOM     13  H   UNL     1       3.232   0.113   4.334  0.00  0.00    +0.163 HD
ATOM     14  H   UNL     1       3.421   1.508   5.220  0.00  0.00    +0.163 HD
ENDBRANCH   5  12
BRANCH   1  15
ATOM     15  S   UNL     1       0.147   0.980   2.733  0.00  0.00    -0.072 S 
BRANCH  15  17
ATOM     16  C   UNL     1      -0.013   1.086   0.008  0.00  0.00    +0.029 C 
ATOM     17  C   UNL     1      -0.729   1.579   1.267  0.00  0.00    +0.137 C 
BRANCH  17  18
ATOM     18  C   UNL     1      -2.143   1.058   1.278  0.00  0.00    +0.224 C 
ATOM     19  O   UNL     1      -2.427   0.089   1.950  0.00  0.00    -0.275 OA
ATOM     20  N   UNL     1      -3.091   1.667   0.539  0.00  0.00    -0.328 N 
ATOM     21  H   UNL     1      -2.864   2.442   0.002  0.00  0.00    +0.145 HD
ATOM     22  H   UNL     1      -4.002   1.331   0.546  0.00  0.00    +0.145 HD
ENDBRANCH  17  18
ENDBRANCH  15  17
ENDBRANCH   1  15
TORSDOF 5
