REMARK  Name = ZINC05045585
REMARK  6 active torsions:
REMARK  status: ('A' for Active; 'I' for Inactive)
REMARK    1  A    between atoms: C_4  and  O_7
REMARK    2  A    between atoms: O_7  and  P_8
REMARK    3  A    between atoms: P_8  and  N_10
REMARK    4  A    between atoms: P_8  and  O_21
REMARK    5  A    between atoms: N_10  and  C_11
REMARK    6  A    between atoms: O_21  and  C_22
REMARK                            x       y       z     vdW  Elec       q    Type
REMARK                         _______ _______ _______ _____ _____    ______ ____
ROOT
ATOM      1  P   UNL     1      -4.519   0.988   1.469  0.00  0.00    +0.517 P 
ATOM      2  O   UNL     1      -5.690   0.422   0.762  0.00  0.00    -0.216 OA
ENDROOT
BRANCH   1   3
ATOM      3  N   UNL     1      -3.331   1.397   0.349  0.00  0.00    -0.196 NA
ATOM      4  H   UNL     1      -3.081   0.602  -0.219  0.00  0.00    +0.136 HD
BRANCH   3   5
ATOM      5  C   UNL     1      -2.150   1.960   1.017  0.00  0.00    +0.032 C 
ATOM      6  C   UNL     1      -0.933   1.823   0.101  0.00  0.00    +0.026 C 
ATOM      7  C   UNL     1       0.298   2.410   0.796  0.00  0.00    -0.009 C 
ATOM      8  C   UNL     1       0.555   1.653   2.101  0.00  0.00    +0.007 C 
ATOM      9  C   UNL     1      -0.663   1.790   3.018  0.00  0.00    -0.009 C 
ATOM     10  C   UNL     1      -1.893   1.203   2.322  0.00  0.00    +0.026 C 
ATOM     11  C   UNL     1      -0.907   3.268   3.325  0.00  0.00    +0.007 C 
ATOM     12  C   UNL     1      -1.164   4.025   2.020  0.00  0.00    -0.009 C 
ATOM     13  C   UNL     1       0.054   3.889   1.103  0.00  0.00    +0.007 C 
ATOM     14  C   UNL     1      -2.394   3.438   1.325  0.00  0.00    +0.026 C 
ENDBRANCH   3   5
ENDBRANCH   1   3
BRANCH   1  15
ATOM     15  O   UNL     1      -3.934  -0.104   2.498  0.00  0.00    -0.404 OA
BRANCH  15  19
ATOM     16  C   UNL     1      -3.660  -3.909   0.927  0.00  0.00    +0.000 A 
ATOM     17  C   UNL     1      -2.666  -2.984   0.671  0.00  0.00    +0.004 A 
ATOM     18  C   UNL     1      -2.755  -1.709   1.196  0.00  0.00    +0.046 A 
ATOM     19  C   UNL     1      -3.844  -1.358   1.980  0.00  0.00    +0.132 A 
ATOM     20  C   UNL     1      -4.838  -2.290   2.240  0.00  0.00    +0.046 A 
ATOM     21  C   UNL     1      -4.747  -3.562   1.708  0.00  0.00    +0.004 A 
ENDBRANCH  15  19
ENDBRANCH   1  15
BRANCH   1  22
ATOM     22  O   UNL     1      -4.967   2.304   2.281  0.00  0.00    -0.404 OA
BRANCH  22  23
ATOM     23  C   UNL     1      -5.812   3.117   1.594  0.00  0.00    +0.132 A 
ATOM     24  C   UNL     1      -5.306   4.038   0.688  0.00  0.00    +0.046 A 
ATOM     25  C   UNL     1      -6.167   4.859  -0.014  0.00  0.00    +0.004 A 
ATOM     26  C   UNL     1      -7.531   4.772   0.194  0.00  0.00    +0.000 A 
ATOM     27  C   UNL     1      -8.037   3.858   1.101  0.00  0.00    +0.004 A 
ATOM     28  C   UNL     1      -7.181   3.031   1.801  0.00  0.00    +0.046 A 
ENDBRANCH  22  23
ENDBRANCH   1  22
TORSDOF 6
