REMARK  Name = ZINC56714009
REMARK  9 active torsions:
REMARK  status: ('A' for Active; 'I' for Inactive)
REMARK    1  A    between atoms: C_1  and  C_2
REMARK    2  A    between atoms: N_5  and  C_11
REMARK    3  A    between atoms: C_7  and  C_10
REMARK    4  A    between atoms: C_16  and  N_17
REMARK    5  A    between atoms: N_20  and  C_21
REMARK    6  A    between atoms: C_21  and  C_23
REMARK    7  A    between atoms: C_21  and  C_24
REMARK    8  A    between atoms: C_24  and  C_25
REMARK    9  A    between atoms: C_28  and  O_31
REMARK                            x       y       z     vdW  Elec       q    Type
REMARK                         _______ _______ _______ _____ _____    ______ ____
ROOT
ATOM      1  N   UNL     1      -4.019  -2.731   0.810  0.00  0.00    -0.268 N 
ATOM      2  C   UNL     1      -5.031  -3.419   1.376  0.00  0.00    +0.304 C 
ATOM      3  O   UNL     1      -5.351  -4.505   0.931  0.00  0.00    -0.253 OA
ATOM      4  N   UNL     1      -5.687  -2.904   2.434  0.00  0.00    -0.296 N 
ATOM      5  H   UNL     1      -3.709  -1.905   1.213  0.00  0.00    +0.156 HD
ATOM      6  H   UNL     1      -5.431  -2.038   2.789  0.00  0.00    +0.151 HD
ENDROOT
BRANCH   1  12
ATOM      7  C   UNL     1      -2.106  -2.842  -0.672  0.00  0.00    +0.051 A 
ATOM      8  C   UNL     1      -1.511  -3.325  -1.829  0.00  0.00    +0.025 A 
ATOM      9  C   UNL     1      -2.218  -4.162  -2.672  0.00  0.00    +0.002 A 
ATOM     10  C   UNL     1      -3.517  -4.521  -2.366  0.00  0.00    +0.002 A 
ATOM     11  C   UNL     1      -4.118  -4.045  -1.215  0.00  0.00    +0.025 A 
ATOM     12  C   UNL     1      -3.414  -3.210  -0.361  0.00  0.00    +0.056 A 
BRANCH   7  16
ATOM     13  C   UNL     1      -0.019   1.526   0.010  0.00  0.00    +0.039 C 
ATOM     14  C   UNL     1       0.000  -0.004  -0.008  0.00  0.00    +0.133 C 
ATOM     15  C   UNL     1      -1.438  -0.534   0.012  0.00  0.00    +0.136 C 
ATOM     16  N   UNL     1      -1.393  -1.995   0.182  0.00  0.00    -0.324 N 
ATOM     17  C   UNL     1      -0.575  -2.538   1.279  0.00  0.00    +0.136 C 
ATOM     18  C   UNL     1       0.822  -1.910   1.197  0.00  0.00    +0.133 C 
ATOM     19  O   UNL     1       0.697  -0.487   1.143  0.00  0.00    -0.371 OA
ATOM     20  C   UNL     1       1.633  -2.307   2.432  0.00  0.00    +0.039 C 
ENDBRANCH   7  16
ENDBRANCH   1  12
BRANCH   4  21
ATOM     21  C   UNL     1      -6.787  -3.651   3.049  0.00  0.00    +0.076 C 
ATOM     22  C   UNL     1      -6.222  -4.643   4.068  0.00  0.00    +0.028 C 
BRANCH  21  23
ATOM     23  C   UNL     1      -7.733  -2.678   3.755  0.00  0.00    +0.057 C 
BRANCH  23  24
ATOM     24  C   UNL     1      -8.383  -1.781   2.734  0.00  0.00    -0.045 A 
ATOM     25  C   UNL     1      -7.782  -0.587   2.382  0.00  0.00    +0.007 A 
ATOM     26  C   UNL     1      -8.376   0.238   1.447  0.00  0.00    +0.045 A 
ATOM     27  C   UNL     1      -9.577  -0.132   0.860  0.00  0.00    +0.117 A 
ATOM     28  C   UNL     1     -10.179  -1.331   1.215  0.00  0.00    +0.045 A 
ATOM     29  C   UNL     1      -9.578  -2.155   2.147  0.00  0.00    +0.007 A 
BRANCH  27  30
ATOM     30  O   UNL     1     -10.164   0.678  -0.060  0.00  0.00    -0.507 OA
ATOM     31  H   UNL     1      -9.892   0.500  -0.971  0.00  0.00    +0.292 HD
ENDBRANCH  27  30
ENDBRANCH  23  24
ENDBRANCH  21  23
ENDBRANCH   4  21
TORSDOF 6
