REMARK  Name = ZINC39960152
REMARK  12 active torsions:
REMARK  status: ('A' for Active; 'I' for Inactive)
REMARK    1  A    between atoms: C_1  and  C_2
REMARK    2  A    between atoms: C_2  and  C_3
REMARK    3  A    between atoms: C_3  and  C_4
REMARK    4  A    between atoms: C_7  and  O_10
REMARK    5  A    between atoms: O_10  and  C_11
REMARK    6  A    between atoms: C_12  and  C_28
REMARK    7  A    between atoms: C_15  and  C_17
REMARK    8  A    between atoms: C_20  and  O_25
REMARK    9  A    between atoms: C_21  and  C_24
REMARK   10  A    between atoms: C_22  and  O_23
REMARK   11  A    between atoms: O_25  and  C_26
REMARK   12  A    between atoms: C_26  and  C_27
REMARK                            x       y       z     vdW  Elec       q    Type
REMARK                         _______ _______ _______ _____ _____    ______ ____
ROOT
ATOM      1  C   UNL     1      -0.205  -6.690  -2.012  0.00  0.00    +0.156 C 
ATOM      2  C   UNL     1      -1.250  -6.068  -2.594  0.00  0.00    +0.098 C 
ATOM      3  N   UNL     1      -2.143  -6.959  -3.041  0.00  0.00    -0.179 NA
ATOM      4  N   UNL     1      -1.844  -8.139  -2.840  0.00  0.00    -0.294 N 
ATOM      5  C   UNL     1      -0.543  -8.165  -2.149  0.00  0.00    +0.200 C 
ATOM      6  C   UNL     1      -1.394  -4.574  -2.723  0.00  0.00    +0.071 C 
ATOM      7  H   UNL     1      -2.371  -8.912  -3.095  0.00  0.00    +0.184 HD
ENDROOT
BRANCH   5   8
ATOM      8  C   UNL     1      -0.675  -8.811  -0.794  0.00  0.00    +0.026 A 
ATOM      9  C   UNL     1      -1.927  -9.031  -0.253  0.00  0.00    +0.013 A 
ATOM     10  C   UNL     1      -2.050  -9.623   0.990  0.00  0.00    +0.046 A 
ATOM     11  C   UNL     1      -0.916  -9.998   1.697  0.00  0.00    +0.127 A 
ATOM     12  C   UNL     1       0.341  -9.777   1.156  0.00  0.00    +0.033 A 
ATOM     13  C   UNL     1       0.462  -9.188  -0.093  0.00  0.00    +0.129 A 
ATOM     14  C   UNL     1       1.574 -10.183   1.922  0.00  0.00    +0.051 C 
BRANCH  13  15
ATOM     15  O   UNL     1       1.693  -8.977  -0.629  0.00  0.00    -0.506 OA
ATOM     16  H   UNL     1       2.078  -8.119  -0.402  0.00  0.00    +0.292 HD
ENDBRANCH  13  15
BRANCH  11  17
ATOM     17  O   UNL     1      -1.038 -10.579   2.919  0.00  0.00    -0.492 OA
BRANCH  17  18
ATOM     18  C   UNL     1      -2.364 -10.775   3.415  0.00  0.00    +0.225 C 
ATOM     19  C   UNL     1      -2.301 -11.438   4.793  0.00  0.00    +0.048 C 
ENDBRANCH  17  18
ENDBRANCH  11  17
ENDBRANCH   5   8
BRANCH   1  20
ATOM     20  O   UNL     1       0.887  -6.134  -1.446  0.00  0.00    -0.456 OA
BRANCH  20  24
ATOM     21  C   UNL     1       4.533  -6.720  -3.285  0.00  0.00    -0.047 A 
ATOM     22  C   UNL     1       4.471  -6.070  -2.066  0.00  0.00    +0.007 A 
ATOM     23  C   UNL     1       3.252  -5.872  -1.448  0.00  0.00    +0.046 A 
ATOM     24  C   UNL     1       2.088  -6.327  -2.052  0.00  0.00    +0.128 A 
ATOM     25  C   UNL     1       2.152  -6.978  -3.276  0.00  0.00    +0.046 A 
ATOM     26  C   UNL     1       3.374  -7.169  -3.892  0.00  0.00    +0.007 A 
BRANCH  21  27
ATOM     27  C   UNL     1       5.865  -6.934  -3.957  0.00  0.00    +0.035 C 
BRANCH  27  29
ATOM     28  C   UNL     1       7.530  -5.957  -5.543  0.00  0.00    +0.004 C 
ATOM     29  C   UNL     1       6.178  -5.740  -4.860  0.00  0.00    +0.001 C 
ENDBRANCH  27  29
ENDBRANCH  21  27
ENDBRANCH  20  24
ENDBRANCH   1  20
TORSDOF 8
