REMARK  Name = ZINC66616390
REMARK  11 active torsions:
REMARK  status: ('A' for Active; 'I' for Inactive)
REMARK    1  A    between atoms: C_1  and  C_2
REMARK    2  A    between atoms: C_5  and  C_12
REMARK    3  A    between atoms: C_8  and  C_10
REMARK    4  A    between atoms: C_8  and  C_11
REMARK    5  A    between atoms: C_12  and  C_13
REMARK    6  A    between atoms: C_18  and  N_21
REMARK    7  A    between atoms: C_22  and  O_24
REMARK    8  A    between atoms: O_24  and  C_25
REMARK    9  A    between atoms: C_25  and  C_26
REMARK   10  A    between atoms: C_25  and  C_27
REMARK   11  A    between atoms: C_25  and  C_28
REMARK                            x       y       z     vdW  Elec       q    Type
REMARK                         _______ _______ _______ _____ _____    ______ ____
ROOT
ATOM      1  C   UNL     1       0.660  -2.126  -3.742  0.00  0.00    +0.216 C 
ATOM      2  O   UNL     1      -0.378  -1.511  -3.615  0.00  0.00    -0.276 OA
ATOM      3  N   UNL     1       1.101  -2.457  -4.971  0.00  0.00    -0.301 N 
ATOM      4  C   UNL     1       2.353  -3.207  -5.140  0.00  0.00    +0.109 C 
ATOM      5  C   UNL     1       2.073  -4.448  -5.994  0.00  0.00    +0.041 C 
ATOM      6  C   UNL     1       1.414  -4.020  -7.308  0.00  0.00    +0.079 C 
ATOM      7  C   UNL     1       0.082  -3.327  -7.011  0.00  0.00    +0.041 C 
ATOM      8  C   UNL     1       0.337  -2.079  -6.168  0.00  0.00    +0.109 C 
ENDROOT
BRANCH   6   9
ATOM      9  N   UNL     1       1.175  -5.201  -8.141  0.00  0.00    -0.278 N 
ATOM     10  C   UNL     1       1.088  -5.075  -9.480  0.00  0.00    +0.401 C 
ATOM     11  O   UNL     1       1.209  -3.981  -9.996  0.00  0.00    -0.226 OA
ATOM     12  H   UNL     1       1.079  -6.074  -7.729  0.00  0.00    +0.152 HD
BRANCH  10  13
ATOM     13  O   UNL     1       0.868  -6.160 -10.246  0.00  0.00    -0.445 OA
BRANCH  13  14
ATOM     14  C   UNL     1       0.788  -5.952 -11.657  0.00  0.00    +0.107 C 
ATOM     15  C   UNL     1       2.103  -5.354 -12.161  0.00  0.00    +0.055 C 
ATOM     16  C   UNL     1       0.536  -7.290 -12.356  0.00  0.00    +0.055 C 
ATOM     17  C   UNL     1      -0.362  -4.991 -11.967  0.00  0.00    +0.055 C 
ENDBRANCH  13  14
ENDBRANCH  10  13
ENDBRANCH   6   9
BRANCH   1  18
ATOM     18  C   UNL     1       1.455  -2.521  -2.524  0.00  0.00    +0.099 C 
BRANCH  18  22
ATOM     19  C   UNL     1      -0.019   1.526   0.010  0.00  0.00    +0.007 C 
ATOM     20  C   UNL     1       0.002  -0.004   0.002  0.00  0.00    -0.013 C 
ATOM     21  C   UNL     1       0.718  -0.497  -1.257  0.00  0.00    +0.007 C 
ATOM     22  C   UNL     1       0.739  -2.027  -1.265  0.00  0.00    -0.002 C 
ATOM     23  C   UNL     1       1.479  -2.534  -0.026  0.00  0.00    +0.010 C 
ATOM     24  C   UNL     1       0.763  -2.041   1.233  0.00  0.00    -0.034 C 
ATOM     25  C   UNL     1       0.742  -0.511   1.242  0.00  0.00    +0.009 C 
ATOM     26  C   UNL     1       1.503  -2.548   2.473  0.00  0.00    +0.011 C 
ATOM     27  C   UNL     1      -0.673  -2.570   1.244  0.00  0.00    +0.011 C 
ENDBRANCH  18  22
ENDBRANCH   1  18
TORSDOF 5
