REMARK  Name = ZINC01085004
REMARK  9 active torsions:
REMARK  status: ('A' for Active; 'I' for Inactive)
REMARK    1  A    between atoms: C_1  and  O_2
REMARK    2  A    between atoms: O_2  and  C_3
REMARK    3  A    between atoms: C_6  and  C_11
REMARK    4  A    between atoms: C_7  and  O_9
REMARK    5  A    between atoms: O_9  and  C_10
REMARK    6  A    between atoms: C_21  and  N_27
REMARK    7  A    between atoms: C_22  and  C_23
REMARK    8  A    between atoms: C_23  and  O_25
REMARK    9  A    between atoms: O_25  and  C_26
REMARK                            x       y       z     vdW  Elec       q    Type
REMARK                         _______ _______ _______ _____ _____    ______ ____
ROOT
ATOM      1  C   UNL     1       3.661   1.978  -0.867  0.00  0.00    +0.101 C 
ATOM      2  C   UNL     1       2.241   1.485  -0.728  0.00  0.00    +0.045 C 
ATOM      3  C   UNL     1       1.383   2.094   0.110  0.00  0.00    +0.115 C 
ATOM      4  C   UNL     1      -0.039   1.603   0.247  0.00  0.00    +0.075 C 
ATOM      5  C   UNL     1      -0.088   0.093   0.010  0.00  0.00    +0.016 C 
ATOM      6  C   UNL     1       0.460  -0.196  -1.392  0.00  0.00    +0.080 C 
ATOM      7  C   UNL     1       1.848   0.372  -1.498  0.00  0.00    +0.163 C 
ATOM      8  O   UNL     1       2.645  -0.136  -2.260  0.00  0.00    -0.292 OA
ATOM      9  O   UNL     1       1.758   3.157   0.847  0.00  0.00    -0.446 OA
ATOM     10  C   UNL     1       3.057   3.371   1.099  0.00  0.00    +0.195 C 
ATOM     11  C   UNL     1       4.027   2.835   0.313  0.00  0.00    +0.105 C 
ENDROOT
BRANCH   1  15
ATOM     12  C   UNL     1       4.020   4.273  -4.458  0.00  0.00    +0.124 A 
ATOM     13  C   UNL     1       3.133   4.665  -3.466  0.00  0.00    +0.046 A 
ATOM     14  C   UNL     1       3.016   3.919  -2.309  0.00  0.00    +0.012 A 
ATOM     15  C   UNL     1       3.788   2.787  -2.132  0.00  0.00    +0.007 A 
ATOM     16  C   UNL     1       4.676   2.391  -3.122  0.00  0.00    +0.128 A 
ATOM     17  C   UNL     1       4.792   3.135  -4.286  0.00  0.00    +0.091 A 
BRANCH  12  19
ATOM     18  C   UNL     1       3.305   6.165  -5.708  0.00  0.00    +0.277 C 
ATOM     19  O   UNL     1       4.132   5.005  -5.598  0.00  0.00    -0.495 OA
ENDBRANCH  12  19
BRANCH  16  20
ATOM     20  O   UNL     1       5.432   1.274  -2.950  0.00  0.00    -0.495 OA
ATOM     21  C   UNL     1       6.324   0.926  -4.011  0.00  0.00    +0.277 C 
ENDBRANCH  16  20
ENDBRANCH   1  15
BRANCH  10  22
ATOM     22  N   UNL     1       3.414   4.145   2.171  0.00  0.00    -0.329 N 
ATOM     23  H   UNL     1       4.223   3.943   2.666  0.00  0.00    +0.145 HD
ATOM     24  H   UNL     1       2.858   4.894   2.434  0.00  0.00    +0.145 HD
ENDBRANCH  10  22
BRANCH  11  25
ATOM     25  C   UNL     1       5.378   3.084   0.603  0.00  0.00    +0.341 C 
ATOM     26  O   UNL     1       5.676   3.868   1.487  0.00  0.00    -0.245 OA
BRANCH  25  27
ATOM     27  O   UNL     1       6.346   2.455  -0.097  0.00  0.00    -0.465 OA
ATOM     28  C   UNL     1       7.699   2.756   0.252  0.00  0.00    +0.280 C 
ENDBRANCH  25  27
ENDBRANCH  11  25
TORSDOF 6
