REMARK  Name = ZINC32792032
REMARK  10 active torsions:
REMARK  status: ('A' for Active; 'I' for Inactive)
REMARK    1  A    between atoms: C_1  and  C_2
REMARK    2  A    between atoms: C_2  and  C_4
REMARK    3  A    between atoms: C_2  and  N_12
REMARK    4  A    between atoms: N_12  and  C_13
REMARK    5  A    between atoms: C_13  and  C_15
REMARK    6  A    between atoms: C_13  and  C_16
REMARK    7  A    between atoms: C_16  and  C_18
REMARK    8  A    between atoms: C_19  and  N_28
REMARK    9  A    between atoms: N_20  and  C_27
REMARK   10  A    between atoms: N_23  and  C_26
REMARK                            x       y       z     vdW  Elec       q    Type
REMARK                         _______ _______ _______ _____ _____    ______ ____
ROOT
ATOM      1  C   UNL     1      -2.538  -0.252   0.132  0.00  0.00    -0.001 C 
ATOM      2  C   UNL     1      -2.121  -0.864  -1.207  0.00  0.00    -0.006 C 
ENDROOT
BRANCH   1   3
ATOM      3  N   UNL     1      -3.895  -0.698   0.473  0.00  0.00    +0.390 N 
ATOM      4  H   UNL     1      -4.483  -0.780  -0.453  0.00  0.00    -0.084 HD
ATOM      5  H   UNL     1      -4.356   0.049   1.135  0.00  0.00    -0.084 HD
BRANCH   3   7
ATOM      6  C   UNL     1      -3.628  -1.792   2.648  0.00  0.00    -0.009 C 
ATOM      7  C   UNL     1      -3.866  -2.001   1.151  0.00  0.00    -0.040 C 
BRANCH   7   8
ATOM      8  C   UNL     1      -5.182  -2.705   0.944  0.00  0.00    -0.026 A 
ATOM      9  C   UNL     1      -6.305  -1.980   0.591  0.00  0.00    +0.007 A 
ATOM     10  C   UNL     1      -7.512  -2.625   0.396  0.00  0.00    +0.039 A 
ATOM     11  C   UNL     1      -7.600  -3.997   0.566  0.00  0.00    +0.126 A 
ATOM     12  C   UNL     1      -6.477  -4.723   0.924  0.00  0.00    +0.076 A 
ATOM     13  C   UNL     1      -5.268  -4.077   1.114  0.00  0.00    +0.128 A 
ATOM     14  F   UNL     1      -4.171  -4.784   1.464  0.00  0.00    -0.205 F 
ATOM     15  F   UNL     1      -8.781  -4.626   0.380  0.00  0.00    -0.205 F 
ENDBRANCH   7   8
ENDBRANCH   3   7
ENDBRANCH   1   3
BRANCH   1  16
ATOM     16  C   UNL     1      -2.516   1.252   0.025  0.00  0.00    +0.158 C 
ATOM     17  O   UNL     1      -3.558   1.870  -0.058  0.00  0.00    -0.294 OA
BRANCH  16  18
ATOM     18  C   UNL     1      -1.285   1.941   0.021  0.00  0.00    +0.118 A 
ATOM     19  C   UNL     1      -1.231   3.329  -0.193  0.00  0.00    +0.116 A 
ATOM     20  N   UNL     1      -0.015   3.951  -0.193  0.00  0.00    -0.284 N 
ATOM     21  C   UNL     1       1.120   3.264   0.010  0.00  0.00    +0.333 A 
ATOM     22  O   UNL     1       2.177   3.864  -0.000  0.00  0.00    -0.246 OA
ATOM     23  N   UNL     1       1.130   1.938   0.224  0.00  0.00    -0.263 N 
ATOM     24  C   UNL     1      -0.018   1.231   0.243  0.00  0.00    +0.269 A 
ATOM     25  O   UNL     1      -0.005   0.030   0.437  0.00  0.00    -0.267 OA
ATOM     26  C   UNL     1       2.406   1.250   0.438  0.00  0.00    +0.157 C 
ATOM     27  C   UNL     1       0.052   5.397  -0.420  0.00  0.00    +0.155 C 
BRANCH  19  28
ATOM     28  N   UNL     1      -2.372   4.041  -0.401  0.00  0.00    -0.344 N 
ATOM     29  H   UNL     1      -2.320   5.127  -0.567  0.00  0.00    +0.144 HD
ATOM     30  H   UNL     1      -3.346   3.531  -0.404  0.00  0.00    +0.144 HD
ENDBRANCH  19  28
ENDBRANCH  16  18
ENDBRANCH   1  16
TORSDOF 6
