REMARK  Name = ZINC40390427
REMARK  4 active torsions:
REMARK  status: ('A' for Active; 'I' for Inactive)
REMARK    1  A    between atoms: C_1  and  C_2
REMARK    2  A    between atoms: C_5  and  N_9
REMARK    3  A    between atoms: C_10  and  C_12
REMARK    4  A    between atoms: C_31  and  C_33
REMARK                            x       y       z     vdW  Elec       q    Type
REMARK                         _______ _______ _______ _____ _____    ______ ____
ROOT
ATOM      1  C   UNL     1      -0.748  -6.029  -1.258  0.00  0.00    +0.122 C 
ATOM      2  C   UNL     1      -2.008  -6.582  -0.589  0.00  0.00    +0.114 C 
ATOM      3  C   UNL     1      -2.005  -8.086  -0.669  0.00  0.00    +0.219 C 
ATOM      4  O   UNL     1      -2.431  -8.737   0.261  0.00  0.00    -0.275 OA
ATOM      5  N   UNL     1      -1.535  -8.714  -1.760  0.00  0.00    -0.270 N 
ATOM      6  C   UNL     1      -0.947  -8.003  -2.792  0.00  0.00    +0.138 A 
ATOM      7  C   UNL     1      -0.557  -6.689  -2.596  0.00  0.00    +0.069 A 
ATOM      8  C   UNL     1       0.016  -5.984  -3.659  0.00  0.00    +0.258 A 
ATOM      9  O   UNL     1       0.359  -4.821  -3.522  0.00  0.00    -0.267 OA
ATOM     10  N   UNL     1       0.182  -6.617  -4.841  0.00  0.00    -0.295 N 
ATOM     11  H   UNL     1       0.563  -6.141  -5.596  0.00  0.00    +0.172 HD
ATOM     12  C   UNL     1      -0.186  -7.920  -4.973  0.00  0.00    +0.200 A 
ATOM     13  N   UNL     1      -0.727  -8.587  -3.975  0.00  0.00    -0.200 NA
ATOM     14  N   UNL     1       0.013  -8.553  -6.171  0.00  0.00    -0.298 N 
ATOM     15  C   UNL     1       0.516  -7.811  -7.335  0.00  0.00    +0.108 C 
ATOM     16  C   UNL     1      -0.441  -8.032  -8.511  0.00  0.00    +0.019 C 
ATOM     17  C   UNL     1      -0.612  -9.534  -8.749  0.00  0.00    +0.003 C 
ATOM     18  C   UNL     1      -1.220 -10.184  -7.504  0.00  0.00    +0.022 C 
ATOM     19  C   UNL     1      -0.267  -9.988  -6.315  0.00  0.00    +0.073 C 
ATOM     20  C   UNL     1      -0.924 -10.513  -5.037  0.00  0.00    +0.028 C 
ATOM     21  H   UNL     1      -1.609  -9.679  -1.826  0.00  0.00    +0.156 HD
ENDROOT
BRANCH   1  23
ATOM     22  N   UNL     1       0.042  -3.704  -0.954  0.00  0.00    -0.284 N 
ATOM     23  C   UNL     1      -0.892  -4.541  -1.448  0.00  0.00    +0.225 C 
ATOM     24  O   UNL     1      -1.849  -4.096  -2.046  0.00  0.00    -0.275 OA
ATOM     25  H   UNL     1       0.846  -4.062  -0.546  0.00  0.00    +0.155 HD
BRANCH  22  30
ATOM     26  C   UNL     1      -0.726   1.909  -1.265  0.00  0.00    +0.044 C 
ATOM     27  C   UNL     1      -0.522   0.418  -1.183  0.00  0.00    -0.049 A 
ATOM     28  C   UNL     1      -1.613  -0.431  -1.218  0.00  0.00    +0.005 A 
ATOM     29  C   UNL     1      -1.429  -1.798  -1.143  0.00  0.00    +0.025 A 
ATOM     30  C   UNL     1      -0.147  -2.320  -1.032  0.00  0.00    +0.052 A 
ATOM     31  C   UNL     1       0.947  -1.464  -0.996  0.00  0.00    +0.062 A 
ATOM     32  C   UNL     1       0.757  -0.098  -1.078  0.00  0.00    +0.025 A 
ATOM     33 CL   UNL     1       2.552  -2.111  -0.857  0.00  0.00    -0.082 Cl
ENDBRANCH  22  30
ENDBRANCH   1  23
TORSDOF 2
