REMARK  Name = ZINC14115167
REMARK  8 active torsions:
REMARK  status: ('A' for Active; 'I' for Inactive)
REMARK    1  A    between atoms: C_1  and  C_2
REMARK    2  A    between atoms: C_2  and  C_4
REMARK    3  A    between atoms: C_2  and  N_14
REMARK    4  A    between atoms: C_4  and  C_6
REMARK    5  A    between atoms: C_4  and  O_13
REMARK    6  A    between atoms: C_9  and  O_12
REMARK    7  A    between atoms: N_17  and  C_18
REMARK    8  A    between atoms: C_22  and  N_24
REMARK                            x       y       z     vdW  Elec       q    Type
REMARK                         _______ _______ _______ _____ _____    ______ ____
ROOT
ATOM      1  N   UNL     1       1.062   7.274   0.233  0.00  0.00    -0.294 N 
ATOM      2  C   UNL     1       1.085   5.931   0.124  0.00  0.00    +0.304 C 
ATOM      3  O   UNL     1       2.148   5.341   0.111  0.00  0.00    -0.252 OA
ATOM      4  N   UNL     1      -0.069   5.242   0.030  0.00  0.00    -0.269 N 
ATOM      5  H   UNL     1       0.213   7.745   0.243  0.00  0.00    +0.151 HD
ATOM      6  H   UNL     1      -0.913   5.716  -0.027  0.00  0.00    +0.156 HD
ENDROOT
BRANCH   4   7
ATOM      7  C   UNL     1      -0.050   3.842   0.015  0.00  0.00    +0.037 A 
ATOM      8  C   UNL     1       0.992   3.168  -0.608  0.00  0.00    +0.023 A 
ATOM      9  C   UNL     1       1.008   1.787  -0.622  0.00  0.00    +0.004 A 
ATOM     10  C   UNL     1      -0.011   1.076  -0.016  0.00  0.00    +0.033 A 
ATOM     11  C   UNL     1      -1.052   1.745   0.601  0.00  0.00    +0.128 A 
ATOM     12  C   UNL     1      -1.072   3.126   0.623  0.00  0.00    +0.056 A 
BRANCH  11  13
ATOM     13  N   UNL     1      -2.145   0.980   1.243  0.00  0.00    +0.056 N 
ATOM     14  O   UNL     1      -2.126  -0.238   1.229  0.00  0.00    -0.126 OA
ATOM     15  O   UNL     1      -3.062   1.568   1.787  0.00  0.00    -0.126 OA
ENDBRANCH  11  13
ENDBRANCH   4   7
BRANCH   1  17
ATOM     16  C   UNL     1       2.771   8.060   1.796  0.00  0.00    +0.031 C 
ATOM     17  C   UNL     1       2.316   8.023   0.335  0.00  0.00    +0.104 C 
BRANCH  17  18
ATOM     18  C   UNL     1       2.100   9.452  -0.168  0.00  0.00    +0.164 C 
BRANCH  18  19
ATOM     19  C   UNL     1       1.535   9.413  -1.565  0.00  0.00    -0.017 A 
ATOM     20  C   UNL     1       0.173   9.274  -1.755  0.00  0.00    +0.010 A 
ATOM     21  C   UNL     1      -0.348   9.244  -3.034  0.00  0.00    +0.046 A 
ATOM     22  C   UNL     1       0.499   9.340  -4.128  0.00  0.00    +0.117 A 
ATOM     23  C   UNL     1       1.867   9.473  -3.935  0.00  0.00    +0.046 A 
ATOM     24  C   UNL     1       2.381   9.509  -2.654  0.00  0.00    +0.010 A 
BRANCH  22  25
ATOM     25  O   UNL     1      -0.010   9.304  -5.388  0.00  0.00    -0.507 OA
ATOM     26  H   UNL     1      -0.070   8.415  -5.763  0.00  0.00    +0.292 HD
ENDBRANCH  22  25
ENDBRANCH  18  19
BRANCH  18  27
ATOM     27  O   UNL     1       1.185  10.127   0.697  0.00  0.00    -0.385 OA
ATOM     28  H   UNL     1       0.314   9.710   0.753  0.00  0.00    +0.210 HD
ENDBRANCH  18  27
ENDBRANCH  17  18
ENDBRANCH   1  17
TORSDOF 7
