REMARK  Name = ZINC65376469
REMARK  4 active torsions:
REMARK  status: ('A' for Active; 'I' for Inactive)
REMARK    1  A    between atoms: C_4  and  C_7
REMARK    2  A    between atoms: C_7  and  O_8
REMARK    3  A    between atoms: O_8  and  C_9
REMARK    4  A    between atoms: C_14  and  C_15
REMARK                            x       y       z     vdW  Elec       q    Type
REMARK                         _______ _______ _______ _____ _____    ______ ____
ROOT
ATOM      1  C   UNL     1       5.008  -1.430   3.949  0.00  0.00    +0.070 C 
ATOM      2  C   UNL     1       4.617  -2.657   4.757  0.00  0.00    +0.109 C 
ATOM      3  C   UNL     1       3.724  -2.275   5.897  0.00  0.00    +0.214 C 
ATOM      4  O   UNL     1       2.565  -2.632   5.878  0.00  0.00    -0.276 OA
ATOM      5  N   UNL     1       4.156  -1.558   6.930  0.00  0.00    -0.310 N 
ATOM      6  C   UNL     1       5.566  -1.271   7.135  0.00  0.00    +0.160 C 
ATOM      7  C   UNL     1       6.120  -0.373   6.048  0.00  0.00    +0.071 A 
ATOM      8  C   UNL     1       5.834  -0.471   4.741  0.00  0.00    +0.024 A 
ATOM      9  S   UNL     1       6.729   0.912   4.051  0.00  0.00    -0.057 S 
ATOM     10  C   UNL     1       7.443   1.448   5.476  0.00  0.00    +0.156 A 
ATOM     11  N   UNL     1       6.971   0.620   6.366  0.00  0.00    -0.228 NA
ATOM     12  N   UNL     1       8.315   2.510   5.659  0.00  0.00    -0.338 N 
ATOM     13  H   UNL     1       3.510  -1.215   7.567  0.00  0.00    +0.149 HD
ATOM     14  H   UNL     1       8.585   3.052   4.902  0.00  0.00    +0.144 HD
ATOM     15  H   UNL     1       8.655   2.711   6.545  0.00  0.00    +0.144 HD
ENDROOT
BRANCH   1  21
ATOM     16  C   UNL     1       5.319  -1.605   1.466  0.00  0.00    +0.125 A 
ATOM     17  C   UNL     1       6.048  -2.007   0.357  0.00  0.00    +0.046 A 
ATOM     18  C   UNL     1       7.245  -2.676   0.525  0.00  0.00    +0.004 A 
ATOM     19  C   UNL     1       7.716  -2.945   1.797  0.00  0.00    +0.001 A 
ATOM     20  C   UNL     1       6.991  -2.545   2.904  0.00  0.00    +0.008 A 
ATOM     21  C   UNL     1       5.796  -1.871   2.742  0.00  0.00    +0.003 A 
BRANCH  16  22
ATOM     22  O   UNL     1       4.141  -0.946   1.304  0.00  0.00    -0.487 OA
BRANCH  22  23
ATOM     23  C   UNL     1       3.711  -0.707  -0.038  0.00  0.00    +0.264 C 
BRANCH  23  27
ATOM     24  C   UNL     1      -0.017   1.378   0.010  0.00  0.00    +0.000 A 
ATOM     25  C   UNL     1       1.171   2.086   0.002  0.00  0.00    +0.000 A 
ATOM     26  C   UNL     1       2.377   1.411  -0.013  0.00  0.00    +0.007 A 
ATOM     27  C   UNL     1       2.396   0.029  -0.020  0.00  0.00    -0.010 A 
ATOM     28  C   UNL     1       1.208  -0.679  -0.012  0.00  0.00    +0.007 A 
ATOM     29  C   UNL     1       0.002  -0.004   0.002  0.00  0.00    +0.000 A 
ENDBRANCH  23  27
ENDBRANCH  22  23
ENDBRANCH  16  22
ENDBRANCH   1  21
TORSDOF 4
