REMARK  Name = ZINC24987188
REMARK  8 active torsions:
REMARK  status: ('A' for Active; 'I' for Inactive)
REMARK    1  A    between atoms: C_1  and  C_2
REMARK    2  A    between atoms: C_3  and  C_31
REMARK    3  A    between atoms: N_5  and  C_11
REMARK    4  A    between atoms: C_8  and  C_9
REMARK    5  A    between atoms: C_11  and  C_12
REMARK    6  A    between atoms: N_14  and  C_15
REMARK    7  A    between atoms: C_15  and  C_16
REMARK    8  A    between atoms: C_16  and  C_21
REMARK                            x       y       z     vdW  Elec       q    Type
REMARK                         _______ _______ _______ _____ _____    ______ ____
ROOT
ATOM      1  C   UNL     1       5.558   1.831   1.927  0.00  0.00    +0.235 C 
ATOM      2  O   UNL     1       6.177   1.188   2.748  0.00  0.00    -0.274 OA
ATOM      3  N   UNL     1       4.737   1.205   1.060  0.00  0.00    -0.313 N 
ATOM      4  H   UNL     1       4.176   1.788   0.316  0.00  0.00    +0.149 HD
ENDROOT
BRANCH   1   5
ATOM      5  C   UNL     1       5.706   3.329   1.876  0.00  0.00    +0.243 C 
BRANCH   5  10
ATOM      6  C   UNL     1       9.210   5.039   6.051  0.00  0.00    +0.047 C 
ATOM      7  C   UNL     1       8.340   4.582   4.908  0.00  0.00    -0.005 A 
ATOM      8  C   UNL     1       6.955   4.450   5.063  0.00  0.00    +0.063 A 
ATOM      9  N   UNL     1       6.199   4.061   4.075  0.00  0.00    -0.173 NA
ATOM     10  N   UNL     1       6.647   3.763   2.912  0.00  0.00    -0.219 N 
ATOM     11  C   UNL     1       7.959   3.842   2.614  0.00  0.00    +0.285 A 
ATOM     12  O   UNL     1       8.364   3.560   1.500  0.00  0.00    -0.265 OA
ATOM     13  C   UNL     1       8.890   4.278   3.663  0.00  0.00    +0.122 A 
ATOM     14  C   UNL     1       6.326   4.771   6.394  0.00  0.00    +0.068 C 
BRANCH  13  15
ATOM     15  C   UNL     1      10.296   4.387   3.419  0.00  0.00    +0.105 C 
ATOM     16  N   UNL     1      11.413   4.473   3.225  0.00  0.00    -0.191 NA
ENDBRANCH  13  15
ENDBRANCH   5  10
ENDBRANCH   1   5
BRANCH   3  17
ATOM     17  C   UNL     1       4.593  -0.252   1.110  0.00  0.00    +0.115 C 
BRANCH  17  18
ATOM     18  C   UNL     1       3.695  -0.716  -0.038  0.00  0.00    +0.011 C 
ATOM     19  C   UNL     1       4.281  -0.251  -1.388  0.00  0.00    +0.013 C 
ATOM     20  C   UNL     1       5.091  -1.473  -1.890  0.00  0.00    +0.001 C 
ATOM     21  C   UNL     1       4.207  -2.670  -1.460  0.00  0.00    +0.001 C 
ATOM     22  C   UNL     1       3.648  -2.253  -0.084  0.00  0.00    +0.013 C 
BRANCH  18  23
ATOM     23  C   UNL     1       2.304  -0.162   0.138  0.00  0.00    -0.036 A 
ATOM     24  C   UNL     1       1.345  -0.382  -0.832  0.00  0.00    +0.008 A 
ATOM     25  C   UNL     1       0.070   0.126  -0.675  0.00  0.00    +0.050 A 
ATOM     26  C   UNL     1      -0.252   0.858   0.458  0.00  0.00    +0.162 A 
ATOM     27  C   UNL     1       0.712   1.077   1.436  0.00  0.00    +0.162 A 
ATOM     28  C   UNL     1       1.991   0.566   1.271  0.00  0.00    +0.053 A 
ATOM     29  O   UNL     1       0.416   1.786   2.559  0.00  0.00    -0.485 OA
ATOM     30  C   UNL     1      -0.762   2.599   2.516  0.00  0.00    +0.270 C 
ATOM     31  C   UNL     1      -1.900   1.763   1.913  0.00  0.00    +0.270 C 
ATOM     32  O   UNL     1      -1.510   1.359   0.596  0.00  0.00    -0.485 OA
ENDBRANCH  18  23
ENDBRANCH  17  18
ENDBRANCH   3  17
TORSDOF 6
