REMARK  Name = ZINC43667421
REMARK  6 active torsions:
REMARK  status: ('A' for Active; 'I' for Inactive)
REMARK    1  A    between atoms: C_1  and  C_2
REMARK    2  A    between atoms: C_4  and  N_19
REMARK    3  A    between atoms: N_5  and  C_7
REMARK    4  A    between atoms: C_7  and  C_8
REMARK    5  A    between atoms: C_11  and  C_13
REMARK    6  A    between atoms: C_16  and  C_18
REMARK                            x       y       z     vdW  Elec       q    Type
REMARK                         _______ _______ _______ _____ _____    ______ ____
ROOT
ATOM      1  C   UNL     1      -0.018   1.503   0.010  0.00  0.00    +0.069 C 
ATOM      2  C   UNL     1       0.002  -0.004   0.002  0.00  0.00    +0.080 A 
ATOM      3  C   UNL     1       0.008  -0.815  -1.136  0.00  0.00    +0.103 A 
ATOM      4  C   UNL     1       0.027  -2.113  -0.724  0.00  0.00    +0.134 A 
ATOM      5  N   UNL     1       0.034  -2.109   0.634  0.00  0.00    -0.242 N 
ATOM      6  N   UNL     1       0.023  -0.775   1.059  0.00  0.00    -0.173 NA
ATOM      7 CL   UNL     1      -0.008  -0.266  -2.783  0.00  0.00    -0.078 Cl
ENDROOT
BRANCH   4   8
ATOM      8  N   UNL     1       0.039  -3.238  -1.545  0.00  0.00    -0.342 N 
ATOM      9  H   UNL     1       0.033  -3.135  -2.510  0.00  0.00    +0.144 HD
ATOM     10  H   UNL     1       0.052  -4.125  -1.153  0.00  0.00    +0.144 HD
ENDBRANCH   4   8
BRANCH   5  11
ATOM     11  C   UNL     1       0.053  -3.291   1.500  0.00  0.00    +0.219 C 
BRANCH  11  12
ATOM     12  C   UNL     1       1.481  -3.677   1.791  0.00  0.00    +0.127 A 
ATOM     13  C   UNL     1       2.220  -3.237   2.826  0.00  0.00    +0.047 A 
ATOM     14  C   UNL     1       3.489  -3.849   2.712  0.00  0.00    +0.045 A 
ATOM     15  C   UNL     1       3.450  -4.626   1.614  0.00  0.00    +0.109 A 
ATOM     16  O   UNL     1       2.230  -4.522   1.064  0.00  0.00    -0.462 OA
BRANCH  15  17
ATOM     17  C   UNL     1       4.583  -5.473   1.094  0.00  0.00    +0.058 C 
ATOM     18  C   UNL     1       4.273  -6.440  -0.051  0.00  0.00    +0.015 C 
ATOM     19  C   UNL     1       5.096  -5.177  -0.317  0.00  0.00    -0.003 C 
ATOM     20  C   UNL     1       6.595  -5.351  -0.574  0.00  0.00    +0.008 C 
ENDBRANCH  15  17
ENDBRANCH  11  12
ENDBRANCH   5  11
TORSDOF 4
