REMARK  Name = ZINC66058754
REMARK  4 active torsions:
REMARK  status: ('A' for Active; 'I' for Inactive)
REMARK    1  A    between atoms: C_1  and  C_2
REMARK    2  A    between atoms: C_2  and  C_4
REMARK    3  A    between atoms: C_2  and  N_12
REMARK    4  A    between atoms: N_6  and  C_7
REMARK                            x       y       z     vdW  Elec       q    Type
REMARK                         _______ _______ _______ _____ _____    ______ ____
ROOT
ATOM      1  N   UNL     1       0.688  -0.476  -1.203  0.00  0.00    -0.212 N 
ATOM      2  C   UNL     1       0.115  -1.254  -2.147  0.00  0.00    +0.247 C 
ATOM      3  O   UNL     1      -1.020  -1.680  -2.160  0.00  0.00    -0.273 OA
ATOM      4  C   UNL     1       1.188  -1.480  -3.181  0.00  0.00    +0.113 C 
ATOM      5  C   UNL     1       1.500  -2.975  -3.334  0.00  0.00    +0.035 C 
ATOM      6  C   UNL     1       0.694  -3.400  -4.588  0.00  0.00    +0.003 C 
ATOM      7  C   UNL     1       0.823  -2.166  -5.516  0.00  0.00    +0.003 C 
ATOM      8  C   UNL     1       0.756  -0.959  -4.554  0.00  0.00    +0.035 C 
ATOM      9  N   UNL     1       2.349  -0.747  -2.672  0.00  0.00    -0.285 N 
ATOM     10  C   UNL     1       1.959  -0.186  -1.509  0.00  0.00    +0.310 C 
ATOM     11  O   UNL     1       2.681   0.503  -0.816  0.00  0.00    -0.252 OA
ATOM     12  H   UNL     1       3.222  -0.676  -3.088  0.00  0.00    +0.151 HD
ENDROOT
BRANCH   1  14
ATOM     13  C   UNL     1      -0.019   1.526   0.010  0.00  0.00    +0.038 C 
ATOM     14  C   UNL     1       0.002  -0.004   0.002  0.00  0.00    +0.168 C 
BRANCH  14  15
ATOM     15  C   UNL     1       0.731  -0.503   1.223  0.00  0.00    +0.234 C 
ATOM     16  O   UNL     1       1.725  -1.187   1.099  0.00  0.00    -0.274 OA
ATOM     17  N   UNL     1       0.278  -0.191   2.453  0.00  0.00    -0.311 N 
ATOM     18  H   UNL     1      -0.517   0.356   2.553  0.00  0.00    +0.149 HD
BRANCH  17  19
ATOM     19  C   UNL     1       0.986  -0.676   3.640  0.00  0.00    +0.073 C 
ATOM     20  C   UNL     1       0.459  -2.070   4.037  0.00  0.00    +0.022 C 
ATOM     21  C   UNL     1       0.471  -2.053   5.586  0.00  0.00    +0.002 C 
ATOM     22  C   UNL     1       0.028  -0.606   5.916  0.00  0.00    +0.002 C 
ATOM     23  C   UNL     1       0.713   0.255   4.835  0.00  0.00    +0.022 C 
ENDBRANCH  17  19
ENDBRANCH  14  15
ENDBRANCH   1  14
TORSDOF 3
