REMARK  Name = ZINC17023113
REMARK  5 active torsions:
REMARK  status: ('A' for Active; 'I' for Inactive)
REMARK    1  A    between atoms: C_3  and  O_21
REMARK    2  A    between atoms: C_4  and  C_8
REMARK    3  A    between atoms: C_9  and  C_10
REMARK    4  A    between atoms: C_9  and  C_12
REMARK    5  A    between atoms: C_15  and  N_18
REMARK                            x       y       z     vdW  Elec       q    Type
REMARK                         _______ _______ _______ _____ _____    ______ ____
ROOT
ATOM      1  C   UNL     1      -3.338   0.689  -3.380  0.00  0.00    +0.026 C 
ATOM      2  C   UNL     1      -2.790   1.565  -2.512  0.00  0.00    +0.033 C 
ENDROOT
BRANCH   1   6
ATOM      3  C   UNL     1      -2.893  -3.485  -2.748  0.00  0.00    +0.023 A 
ATOM      4  C   UNL     1      -2.752  -2.968  -4.022  0.00  0.00    +0.047 A 
ATOM      5  C   UNL     1      -2.895  -1.608  -4.240  0.00  0.00    +0.124 A 
ATOM      6  C   UNL     1      -3.184  -0.757  -3.161  0.00  0.00    +0.019 A 
ATOM      7  C   UNL     1      -3.319  -1.292  -1.876  0.00  0.00    +0.031 A 
ATOM      8  C   UNL     1      -3.178  -2.650  -1.679  0.00  0.00    +0.042 A 
ATOM      9 CL   UNL     1      -3.351  -3.314  -0.085  0.00  0.00    -0.084 Cl
BRANCH   5  10
ATOM     10  O   UNL     1      -2.757  -1.100  -5.491  0.00  0.00    -0.506 OA
ATOM     11  H   UNL     1      -1.852  -0.839  -5.712  0.00  0.00    +0.292 HD
ENDBRANCH   5  10
ENDBRANCH   1   6
BRANCH   2  12
ATOM     12  C   UNL     1      -1.885   1.071  -1.413  0.00  0.00    +0.030 C 
ATOM     13  C   UNL     1      -0.546   1.807  -1.486  0.00  0.00    +0.011 C 
ATOM     14  C   UNL     1       0.373   1.305  -0.370  0.00  0.00    +0.032 C 
ATOM     15  C   UNL     1      -0.282   1.570   0.988  0.00  0.00    +0.170 C 
ATOM     16  C   UNL     1      -1.621   0.835   1.060  0.00  0.00    +0.032 C 
ATOM     17  C   UNL     1      -2.540   1.336  -0.056  0.00  0.00    +0.011 C 
BRANCH  15  18
ATOM     18  N   UNL     1      -0.505   3.009   1.149  0.00  0.00    +0.025 N 
ATOM     19  O   UNL     1      -1.213   3.608   0.359  0.00  0.00    -0.131 OA
ATOM     20  O   UNL     1       0.016   3.607   2.073  0.00  0.00    -0.131 OA
ENDBRANCH  15  18
ENDBRANCH   2  12
BRANCH   2  21
ATOM     21  C   UNL     1      -3.069   2.964  -2.636  0.00  0.00    +0.095 C 
ATOM     22  N   UNL     1      -3.289   4.074  -2.734  0.00  0.00    -0.191 NA
ENDBRANCH   2  21
TORSDOF 5
