REMARK  Name = ZINC54491320
REMARK  10 active torsions:
REMARK  status: ('A' for Active; 'I' for Inactive)
REMARK    1  A    between atoms: C_1  and  C_2
REMARK    2  A    between atoms: C_2  and  C_3
REMARK    3  A    between atoms: C_3  and  C_5
REMARK    4  A    between atoms: C_3  and  C_6
REMARK    5  A    between atoms: C_6  and  N_7
REMARK    6  A    between atoms: N_7  and  S_8
REMARK    7  A    between atoms: S_8  and  C_11
REMARK    8  A    between atoms: C_14  and  C_18
REMARK    9  A    between atoms: C_19  and  C_20
REMARK   10  A    between atoms: C_20  and  N_21
REMARK                            x       y       z     vdW  Elec       q    Type
REMARK                         _______ _______ _______ _____ _____    ______ ____
ROOT
ATOM      1  C   UNL     1       0.083  -4.993  -2.737  0.00  0.00    +0.142 A 
ATOM      2  C   UNL     1      -0.398  -5.463  -1.527  0.00  0.00    +0.070 A 
ATOM      3  C   UNL     1      -1.581  -6.174  -1.481  0.00  0.00    +0.039 A 
ATOM      4  C   UNL     1      -2.292  -6.418  -2.656  0.00  0.00    +0.028 A 
ATOM      5  C   UNL     1      -1.802  -5.942  -3.873  0.00  0.00    +0.039 A 
ATOM      6  C   UNL     1      -0.621  -5.227  -3.906  0.00  0.00    +0.070 A 
ATOM      7 CL   UNL     1      -0.014  -4.628  -5.418  0.00  0.00    -0.081 Cl
ATOM      8 CL   UNL     1       0.488  -5.158  -0.066  0.00  0.00    -0.081 Cl
ENDROOT
BRANCH   1   9
ATOM      9  S   UNL     1       1.593  -4.086  -2.789  0.00  0.00    +0.061 S 
ATOM     10  O   UNL     1       2.103  -4.221  -4.109  0.00  0.00    -0.153 OA
ATOM     11  O   UNL     1       2.337  -4.471  -1.641  0.00  0.00    -0.153 OA
BRANCH   9  12
ATOM     12  N   UNL     1       1.210  -2.487  -2.591  0.00  0.00    -0.190 NA
ATOM     13  H   UNL     1       1.371  -1.857  -3.312  0.00  0.00    +0.148 HD
BRANCH  12  14
ATOM     14  C   UNL     1       0.630  -2.023  -1.329  0.00  0.00    +0.109 C 
BRANCH  14  15
ATOM     15  C   UNL     1       0.718  -0.497  -1.257  0.00  0.00    +0.001 C 
ATOM     16  C   UNL     1       2.187  -0.073  -1.207  0.00  0.00    +0.009 C 
BRANCH  15  18
ATOM     17  C   UNL     1      -0.019   1.526   0.010  0.00  0.00    +0.004 C 
ATOM     18  C   UNL     1       0.002  -0.004   0.002  0.00  0.00    +0.001 C 
ENDBRANCH  15  18
ENDBRANCH  14  15
ENDBRANCH  12  14
ENDBRANCH   9  12
ENDBRANCH   1   9
BRANCH   4  19
ATOM     19  C   UNL     1      -3.519  -7.155  -2.614  0.00  0.00    -0.068 C 
ATOM     20  C   UNL     1      -4.525  -7.760  -2.580  0.00  0.00    -0.117 C 
BRANCH  20  21
ATOM     21  C   UNL     1      -5.786  -8.518  -2.537  0.00  0.00    +0.005 C 
BRANCH  21  22
ATOM     22  N   UNL     1      -6.333  -8.636  -3.895  0.00  0.00    +0.385 N 
ATOM     23  H   UNL     1      -6.506  -7.715  -4.269  0.00  0.00    -0.089 HD
ATOM     24  H   UNL     1      -5.670  -9.119  -4.483  0.00  0.00    -0.089 HD
ATOM     25  H   UNL     1      -7.197  -9.156  -3.865  0.00  0.00    -0.089 HD
ENDBRANCH  21  22
ENDBRANCH  20  21
ENDBRANCH   4  19
TORSDOF 8
