REMARK  Name = ZINC11859428
REMARK  12 active torsions:
REMARK  status: ('A' for Active; 'I' for Inactive)
REMARK    1  A    between atoms: C_1  and  C_2
REMARK    2  A    between atoms: C_3  and  C_32
REMARK    3  A    between atoms: C_4  and  C_16
REMARK    4  A    between atoms: C_10  and  C_12
REMARK    5  A    between atoms: C_12  and  C_13
REMARK    6  A    between atoms: C_13  and  C_14
REMARK    7  A    between atoms: C_14  and  O_15
REMARK    8  A    between atoms: C_19  and  O_24
REMARK    9  A    between atoms: C_20  and  O_22
REMARK   10  A    between atoms: O_22  and  C_23
REMARK   11  A    between atoms: O_24  and  C_25
REMARK   12  A    between atoms: C_25  and  C_26
REMARK                            x       y       z     vdW  Elec       q    Type
REMARK                         _______ _______ _______ _____ _____    ______ ____
ROOT
ATOM      1  C   UNL     1       0.639   1.237   0.151  0.00  0.00    +0.066 C 
ATOM      2  C   UNL     1       0.388  -0.246   0.057  0.00  0.00    +0.052 C 
ATOM      3  C   UNL     1      -0.882  -0.689  -0.181  0.00  0.00    +0.061 C 
ATOM      4  C   UNL     1      -1.088  -2.192  -0.267  0.00  0.00    +0.164 C 
ATOM      5  N   UNL     1       0.111  -3.018  -0.084  0.00  0.00    -0.208 N 
ATOM      6  C   UNL     1       1.315  -2.399   0.149  0.00  0.00    +0.237 C 
ATOM      7  N   UNL     1       1.407  -1.081   0.203  0.00  0.00    -0.218 NA
ATOM      8  N   UNL     1       2.238  -3.371   0.279  0.00  0.00    -0.201 NA
ATOM      9  C   UNL     1       1.682  -4.546   0.142  0.00  0.00    +0.115 C 
ATOM     10  N   UNL     1       0.357  -4.393  -0.086  0.00  0.00    -0.248 N 
ATOM     11  H   UNL     1      -0.294  -5.099  -0.224  0.00  0.00    +0.171 HD
ENDROOT
BRANCH   4  12
ATOM     12  C   UNL     1      -1.670  -2.510  -1.620  0.00  0.00    -0.017 A 
ATOM     13  C   UNL     1      -0.885  -2.397  -2.752  0.00  0.00    +0.009 A 
ATOM     14  C   UNL     1      -1.414  -2.687  -3.996  0.00  0.00    +0.050 A 
ATOM     15  C   UNL     1      -2.734  -3.093  -4.109  0.00  0.00    +0.162 A 
ATOM     16  C   UNL     1      -3.524  -3.207  -2.970  0.00  0.00    +0.162 A 
ATOM     17  C   UNL     1      -2.986  -2.919  -1.726  0.00  0.00    +0.055 A 
BRANCH  16  18
ATOM     18  O   UNL     1      -4.820  -3.605  -3.076  0.00  0.00    -0.491 OA
ATOM     19  C   UNL     1      -5.571  -3.700  -1.864  0.00  0.00    +0.277 C 
ENDBRANCH  16  18
BRANCH  15  20
ATOM     20  O   UNL     1      -3.257  -3.379  -5.332  0.00  0.00    -0.484 OA
BRANCH  20  21
ATOM     21  C   UNL     1      -2.388  -3.239  -6.458  0.00  0.00    +0.264 C 
BRANCH  21  22
ATOM     22  C   UNL     1      -3.135  -3.596  -7.717  0.00  0.00    -0.010 A 
ATOM     23  C   UNL     1      -3.142  -4.902  -8.170  0.00  0.00    +0.007 A 
ATOM     24  C   UNL     1      -3.828  -5.229  -9.325  0.00  0.00    +0.000 A 
ATOM     25  C   UNL     1      -4.506  -4.250 -10.026  0.00  0.00    +0.000 A 
ATOM     26  C   UNL     1      -4.500  -2.944  -9.573  0.00  0.00    +0.000 A 
ATOM     27  C   UNL     1      -3.818  -2.618  -8.415  0.00  0.00    +0.007 A 
ENDBRANCH  21  22
ENDBRANCH  20  21
ENDBRANCH  15  20
ENDBRANCH   4  12
BRANCH   3  28
ATOM     28  C   UNL     1      -1.955   0.208  -0.339  0.00  0.00    +0.241 C 
ATOM     29  O   UNL     1      -1.745   1.408  -0.380  0.00  0.00    -0.271 OA
ATOM     30  N   UNL     1      -3.214  -0.259  -0.446  0.00  0.00    -0.325 N 
ATOM     31  H   UNL     1      -3.391  -1.207  -0.336  0.00  0.00    +0.145 HD
ATOM     32  H   UNL     1      -3.945   0.352  -0.631  0.00  0.00    +0.145 HD
ENDBRANCH   3  28
BRANCH   9  33
ATOM     33  C   UNL     1       2.404  -5.866   0.224  0.00  0.00    +0.075 C 
BRANCH  33  34
ATOM     34  C   UNL     1       3.890  -5.619   0.493  0.00  0.00    +0.035 C 
BRANCH  34  35
ATOM     35  C   UNL     1       4.623  -6.959   0.577  0.00  0.00    +0.156 C 
BRANCH  35  36
ATOM     36  O   UNL     1       6.011  -6.728   0.829  0.00  0.00    -0.395 OA
ATOM     37  H   UNL     1       6.538  -7.536   0.894  0.00  0.00    +0.209 HD
ENDBRANCH  35  36
ENDBRANCH  34  35
ENDBRANCH  33  34
ENDBRANCH   9  33
TORSDOF 10
