REMARK  Name = ZINC19325480
REMARK  2 active torsions:
REMARK  status: ('A' for Active; 'I' for Inactive)
REMARK    1  A    between atoms: C_1  and  N_2
REMARK    2  A    between atoms: N_17  and  C_18
REMARK                            x       y       z     vdW  Elec       q    Type
REMARK                         _______ _______ _______ _____ _____    ______ ____
ROOT
ATOM      1  C   UNL     1      -6.725  -4.174  -1.248  0.00  0.00    +0.138 C 
ATOM      2  N   UNL     1      -5.537  -3.584  -0.626  0.00  0.00    -0.270 N 
ATOM      3  C   UNL     1      -5.223  -3.710   0.728  0.00  0.00    +0.044 A 
ATOM      4  C   UNL     1      -5.889  -4.370   1.759  0.00  0.00    +0.024 A 
ATOM      5  C   UNL     1      -5.373  -4.353   3.038  0.00  0.00    +0.002 A 
ATOM      6  C   UNL     1      -4.193  -3.684   3.308  0.00  0.00    +0.001 A 
ATOM      7  C   UNL     1      -3.527  -3.026   2.289  0.00  0.00    +0.010 A 
ATOM      8  C   UNL     1      -4.040  -3.041   1.011  0.00  0.00    +0.032 A 
ATOM      9  C   UNL     1      -3.571  -2.438  -0.292  0.00  0.00    +0.260 C 
ATOM     10  C   UNL     1      -4.624  -2.857  -1.294  0.00  0.00    +0.275 C 
ATOM     11  O   UNL     1      -4.642  -2.588  -2.476  0.00  0.00    -0.270 OA
ATOM     12  N   UNL     1      -2.277  -2.995  -0.665  0.00  0.00    -0.212 NA
ATOM     13  C   UNL     1      -1.178  -2.311  -0.562  0.00  0.00    +0.182 C 
ATOM     14  N   UNL     1      -1.212  -1.010  -0.106  0.00  0.00    -0.260 N 
ATOM     15  C   UNL     1      -2.414  -0.332  -0.091  0.00  0.00    +0.189 C 
ATOM     16  N   UNL     1      -3.533  -0.985  -0.187  0.00  0.00    -0.212 NA
ATOM     17  N   UNL     1      -2.428   1.040   0.020  0.00  0.00    -0.285 N 
ATOM     18  N   UNL     1       0.021  -2.883  -0.913  0.00  0.00    -0.331 N 
ATOM     19  H   UNL     1      -0.288  -0.524   0.240  0.00  0.00    +0.157 HD
ATOM     20  H   UNL     1      -3.384   1.574   0.119  0.00  0.00    +0.155 HD
ATOM     21  H   UNL     1       0.953  -2.304  -0.826  0.00  0.00    +0.145 HD
ATOM     22  H   UNL     1       0.050  -3.919  -1.280  0.00  0.00    +0.145 HD
ENDROOT
BRANCH  17  23
ATOM     23  C   UNL     1      -1.224   1.755   0.006  0.00  0.00    +0.069 A 
ATOM     24  C   UNL     1      -0.218   1.407  -0.885  0.00  0.00    +0.026 A 
ATOM     25  C   UNL     1       0.966   2.118  -0.900  0.00  0.00    +0.002 A 
ATOM     26  C   UNL     1       1.153   3.172  -0.025  0.00  0.00    +0.003 A 
ATOM     27  C   UNL     1       0.156   3.519   0.868  0.00  0.00    +0.040 A 
ATOM     28  C   UNL     1      -1.032   2.812   0.889  0.00  0.00    +0.144 A 
ATOM     29  F   UNL     1      -2.006   3.150   1.762  0.00  0.00    -0.204 F 
ENDBRANCH  17  23
TORSDOF 1
