REMARK  Name = ZINC22052047
REMARK  12 active torsions:
REMARK  status: ('A' for Active; 'I' for Inactive)
REMARK    1  A    between atoms: C_6  and  C_9
REMARK    2  A    between atoms: C_9  and  C_10
REMARK    3  A    between atoms: C_10  and  C_11
REMARK    4  A    between atoms: C_11  and  C_12
REMARK    5  A    between atoms: C_12  and  C_13
REMARK    6  A    between atoms: N_15  and  C_16
REMARK    7  A    between atoms: C_16  and  C_17
REMARK    8  A    between atoms: C_17  and  N_18
REMARK    9  A    between atoms: C_19  and  C_21
REMARK   10  A    between atoms: C_21  and  C_23
REMARK   11  A    between atoms: C_21  and  N_25
REMARK   12  A    between atoms: C_23  and  S_24
REMARK                            x       y       z     vdW  Elec       q    Type
REMARK                         _______ _______ _______ _____ _____    ______ ____
ROOT
ATOM      1  C   UNL     1      -0.016   1.344   0.009  0.00  0.00    +0.213 C 
ATOM      2  O   UNL     1       1.026   1.964   0.003  0.00  0.00    -0.276 OA
ATOM      3  N   UNL     1       0.002  -0.004   0.002  0.00  0.00    -0.314 N 
ATOM      4  H   UNL     1      -0.943  -0.567   0.008  0.00  0.00    +0.149 HD
ENDROOT
BRANCH   1   5
ATOM      5  C   UNL     1      -1.331   2.079   0.020  0.00  0.00    +0.096 C 
BRANCH   5   6
ATOM      6  C   UNL     1      -1.072   3.587   0.027  0.00  0.00    +0.009 C 
BRANCH   6   7
ATOM      7  C   UNL     1      -2.408   4.334   0.037  0.00  0.00    +0.002 C 
BRANCH   7   8
ATOM      8  C   UNL     1      -2.148   5.842   0.044  0.00  0.00    +0.016 C 
BRANCH   8  12
ATOM      9  C   UNL     1      -5.229   8.002   1.679  0.00  0.00    +0.093 C 
ATOM     10  C   UNL     1      -4.229   8.897   0.917  0.00  0.00    +0.105 C 
ATOM     11  C   UNL     1      -3.264   8.117   0.018  0.00  0.00    +0.108 C 
ATOM     12  C   UNL     1      -3.484   6.589   0.054  0.00  0.00    +0.069 C 
ATOM     13  S   UNL     1      -4.346   6.381   1.673  0.00  0.00    -0.154 S 
ATOM     14  N   UNL     1      -3.555   8.613  -1.335  0.00  0.00    -0.294 N 
ATOM     15  C   UNL     1      -4.527   9.533  -1.263  0.00  0.00    +0.300 C 
ATOM     16  O   UNL     1      -4.967  10.111  -2.238  0.00  0.00    -0.253 OA
ATOM     17  N   UNL     1      -4.970   9.758  -0.018  0.00  0.00    -0.294 N 
ATOM     18  H   UNL     1      -2.999   8.218  -2.197  0.00  0.00    +0.151 HD
ATOM     19  H   UNL     1      -5.745  10.441   0.359  0.00  0.00    +0.151 HD
ENDBRANCH   8  12
ENDBRANCH   7   8
ENDBRANCH   6   7
ENDBRANCH   5   6
ENDBRANCH   1   5
BRANCH   3  20
ATOM     20  C   UNL     1       1.281  -0.719  -0.014  0.00  0.00    +0.123 C 
BRANCH  20  21
ATOM     21  C   UNL     1       1.021  -2.227  -0.020  0.00  0.00    +0.123 C 
BRANCH  21  22
ATOM     22  N   UNL     1       2.300  -2.942  -0.036  0.00  0.00    -0.315 N 
ATOM     23  C   UNL     1       2.318  -4.290  -0.043  0.00  0.00    +0.199 C 
ATOM     24  O   UNL     1       1.276  -4.910  -0.036  0.00  0.00    -0.278 OA
ATOM     25  H   UNL     1       3.245  -2.379  -0.042  0.00  0.00    +0.149 HD
BRANCH  23  26
ATOM     26  C   UNL     1       3.633  -5.026  -0.060  0.00  0.00    +0.022 C 
BRANCH  26  27
ATOM     27  N   UNL     1       3.430  -6.403   0.409  0.00  0.00    +0.386 N 
ATOM     28  H   UNL     1       4.390  -6.940   0.397  0.00  0.00    -0.089 HD
ATOM     29  H   UNL     1       2.716  -6.914  -0.254  0.00  0.00    -0.089 HD
ATOM     30  H   UNL     1       3.032  -6.387   1.434  0.00  0.00    -0.089 HD
ENDBRANCH  26  27
BRANCH  26  31
ATOM     31  C   UNL     1       4.187  -5.048  -1.486  0.00  0.00    +0.058 C 
BRANCH  31  32
ATOM     32  S   UNL     1       5.770  -5.934  -1.506  0.00  0.00    -0.179 S 
ATOM     33  H   UNL     1       6.322  -6.053  -2.450  0.00  0.00    +0.102 HD
ENDBRANCH  31  32
ENDBRANCH  26  31
ENDBRANCH  23  26
ENDBRANCH  21  22
ENDBRANCH  20  21
ENDBRANCH   3  20
TORSDOF 12
