REMARK  Name = ZINC13174498
REMARK  7 active torsions:
REMARK  status: ('A' for Active; 'I' for Inactive)
REMARK    1  A    between atoms: C_4  and  C_7
REMARK    2  A    between atoms: C_7  and  N_8
REMARK    3  A    between atoms: C_9  and  C_11
REMARK    4  A    between atoms: C_11  and  S_12
REMARK    5  A    between atoms: S_12  and  C_13
REMARK    6  A    between atoms: C_14  and  C_34
REMARK    7  A    between atoms: C_15  and  C_25
REMARK                            x       y       z     vdW  Elec       q    Type
REMARK                         _______ _______ _______ _____ _____    ______ ____
ROOT
ATOM      1  C   UNL     1       7.737  -2.955   4.667  0.00  0.00    +0.080 C 
ATOM      2  C   UNL     1       8.885  -3.590   5.026  0.00  0.00    +0.069 C 
ATOM      3  C   UNL     1       9.246  -3.780   6.470  0.00  0.00    +0.097 C 
ATOM      4  C   UNL     1       8.042  -3.599   7.360  0.00  0.00    +0.024 C 
ATOM      5  C   UNL     1       6.938  -2.964   6.913  0.00  0.00    +0.016 C 
ATOM      6  N   UNL     1       6.883  -2.476   5.633  0.00  0.00    -0.311 N 
ATOM      7  C   UNL     1       5.740  -2.764   7.809  0.00  0.00    +0.051 C 
ATOM      8  C   UNL     1       5.643  -3.924   8.802  0.00  0.00    +0.014 C 
ATOM      9  C   UNL     1       6.942  -3.980   9.613  0.00  0.00    +0.080 C 
ATOM     10  C   UNL     1       8.104  -4.111   8.667  0.00  0.00    +0.162 C 
ATOM     11  O   UNL     1       9.116  -4.671   9.041  0.00  0.00    -0.292 OA
ATOM     12  H   UNL     1       6.235  -1.791   5.406  0.00  0.00    +0.152 HD
ENDROOT
BRANCH   3  13
ATOM     13  C   UNL     1      10.299  -2.773   6.853  0.00  0.00    -0.031 A 
ATOM     14  C   UNL     1      10.029  -1.421   6.750  0.00  0.00    +0.008 A 
ATOM     15  C   UNL     1      10.992  -0.493   7.101  0.00  0.00    +0.050 A 
ATOM     16  C   UNL     1      12.230  -0.916   7.556  0.00  0.00    +0.166 A 
ATOM     17  C   UNL     1      12.501  -2.278   7.659  0.00  0.00    +0.167 A 
ATOM     18  C   UNL     1      11.530  -3.203   7.312  0.00  0.00    +0.054 A 
ATOM     19  O   UNL     1      13.774  -2.435   8.127  0.00  0.00    -0.453 OA
ATOM     20  C   UNL     1      14.419  -1.164   7.920  0.00  0.00    +0.466 C 
ATOM     21  O   UNL     1      13.333  -0.220   7.958  0.00  0.00    -0.453 OA
ENDBRANCH   3  13
BRANCH   2  22
ATOM     22  C   UNL     1       9.763  -4.085   4.009  0.00  0.00    +0.098 C 
ATOM     23  N   UNL     1      10.460  -4.478   3.202  0.00  0.00    -0.191 NA
ENDBRANCH   2  22
BRANCH   1  24
ATOM     24  S   UNL     1       7.347  -2.738   2.963  0.00  0.00    -0.100 S 
BRANCH  24  25
ATOM     25  C   UNL     1       5.764  -1.853   2.984  0.00  0.00    +0.171 C 
BRANCH  25  27
ATOM     26  N   UNL     1       4.152  -0.952   1.338  0.00  0.00    -0.311 N 
ATOM     27  C   UNL     1       5.311  -1.601   1.569  0.00  0.00    +0.224 C 
ATOM     28  O   UNL     1       5.989  -1.981   0.638  0.00  0.00    -0.275 OA
ATOM     29  H   UNL     1       3.610  -0.648   2.082  0.00  0.00    +0.149 HD
BRANCH  26  30
ATOM     30  C   UNL     1       3.711  -0.707  -0.038  0.00  0.00    +0.139 C 
BRANCH  30  34
ATOM     31  C   UNL     1      -0.017   1.378   0.010  0.00  0.00    +0.000 A 
ATOM     32  C   UNL     1       1.171   2.086   0.002  0.00  0.00    +0.000 A 
ATOM     33  C   UNL     1       2.377   1.411  -0.013  0.00  0.00    +0.005 A 
ATOM     34  C   UNL     1       2.396   0.029  -0.020  0.00  0.00    -0.030 A 
ATOM     35  C   UNL     1       1.208  -0.679  -0.012  0.00  0.00    +0.005 A 
ATOM     36  C   UNL     1       0.002  -0.004   0.002  0.00  0.00    +0.000 A 
ENDBRANCH  30  34
ENDBRANCH  26  30
ENDBRANCH  25  27
ENDBRANCH  24  25
ENDBRANCH   1  24
TORSDOF 7
