REMARK  Name = ZINC19766931
REMARK  6 active torsions:
REMARK  status: ('A' for Active; 'I' for Inactive)
REMARK    1  A    between atoms: C_1  and  C_2
REMARK    2  A    between atoms: C_2  and  C_3
REMARK    3  A    between atoms: N_9  and  C_10
REMARK    4  A    between atoms: N_15  and  C_18
REMARK    5  A    between atoms: C_21  and  C_25
REMARK    6  A    between atoms: C_22  and  O_24
REMARK                            x       y       z     vdW  Elec       q    Type
REMARK                         _______ _______ _______ _____ _____    ______ ____
ROOT
ATOM      1  C   UNL     1       4.617   0.529  -0.022  0.00  0.00    +0.029 C 
ATOM      2  C   UNL     1       3.768  -0.759  -0.009  0.00  0.00    +0.091 C 
ATOM      3  C   UNL     1       2.350  -0.247   0.129  0.00  0.00    +0.225 C 
ATOM      4  O   UNL     1       1.356  -0.939   0.180  0.00  0.00    -0.275 OA
ATOM      5  N   UNL     1       2.368   1.090   0.187  0.00  0.00    -0.212 N 
ATOM      6  C   UNL     1       3.589   1.632   0.105  0.00  0.00    +0.213 C 
ATOM      7  O   UNL     1       3.833   2.819   0.132  0.00  0.00    -0.277 OA
ENDROOT
BRANCH   1  13
ATOM      8  C   UNL     1       6.292  -0.458  -1.464  0.00  0.00    -0.068 C 
ATOM      9  C   UNL     1       7.137  -0.220  -2.718  0.00  0.00    -0.015 C 
ATOM     10  C   UNL     1       6.214  -0.114  -3.936  0.00  0.00    -0.003 C 
ATOM     11  C   UNL     1       5.210   1.019  -3.708  0.00  0.00    -0.019 C 
ATOM     12  C   UNL     1       4.421   0.745  -2.425  0.00  0.00    -0.077 C 
ATOM     13  N   UNL     1       5.348   0.653  -1.290  0.00  0.00    +0.390 N 
ATOM     14  H   UNL     1       5.930   1.586  -1.256  0.00  0.00    -0.080 HD
BRANCH   8  16
ATOM     15  C   UNL     1       8.119  -1.768  -0.372  0.00  0.00    +0.002 C 
ATOM     16  C   UNL     1       7.208  -0.545  -0.241  0.00  0.00    -0.019 C 
ENDBRANCH   8  16
ENDBRANCH   1  13
BRANCH   5  17
ATOM     17  C   UNL     1       1.207   1.857   0.316  0.00  0.00    +0.047 A 
ATOM     18  C   UNL     1       0.285   1.902  -0.727  0.00  0.00    +0.025 A 
ATOM     19  C   UNL     1      -0.852   2.648  -0.612  0.00  0.00    +0.020 A 
ATOM     20  C   UNL     1      -1.099   3.374   0.557  0.00  0.00    +0.105 A 
ATOM     21  C   UNL     1      -0.176   3.328   1.614  0.00  0.00    +0.133 A 
ATOM     22  C   UNL     1       0.977   2.572   1.483  0.00  0.00    +0.070 A 
BRANCH  20  23
ATOM     23  C   UNL     1      -2.325   4.179   0.682  0.00  0.00    +0.390 C 
ATOM     24  O   UNL     1      -2.538   4.809   1.700  0.00  0.00    -0.240 OA
ATOM     25  O   UNL     1      -3.212   4.218  -0.332  0.00  0.00    -0.240 OA
ENDBRANCH  20  23
BRANCH  21  26
ATOM     26  O   UNL     1      -0.409   4.025   2.754  0.00  0.00    -0.506 OA
ATOM     27  H   UNL     1       0.316   3.986   3.580  0.00  0.00    +0.292 HD
ENDBRANCH  21  26
ENDBRANCH   5  17
TORSDOF 5
