REMARK  Name = ZINC41637463
REMARK  4 active torsions:
REMARK  status: ('A' for Active; 'I' for Inactive)
REMARK    1  A    between atoms: C_1  and  C_2
REMARK    2  A    between atoms: N_5  and  C_8
REMARK    3  A    between atoms: C_8  and  C_10
REMARK    4  A    between atoms: C_8  and  C_15
REMARK                            x       y       z     vdW  Elec       q    Type
REMARK                         _______ _______ _______ _____ _____    ______ ____
ROOT
ATOM      1  C   UNL     1      -0.750  -3.952   1.419  0.00  0.00    +0.042 C 
ENDROOT
BRANCH   1   2
ATOM      2  C   UNL     1      -2.185  -4.410   1.475  0.00  0.00    +0.053 A 
ATOM      3  C   UNL     1      -2.820  -5.296   0.699  0.00  0.00    +0.282 A 
ATOM      4  N   UNL     1      -4.147  -5.585   0.908  0.00  0.00    -0.170 N 
ATOM      5  C   UNL     1      -4.774  -4.936   1.928  0.00  0.00    +0.199 A 
ATOM      6  S   UNL     1      -3.482  -3.918   2.601  0.00  0.00    -0.050 S 
ATOM      7  N   UNL     1      -6.019  -5.320   1.992  0.00  0.00    -0.208 NA
ATOM      8  C   UNL     1      -6.253  -6.217   1.036  0.00  0.00    +0.246 A 
ATOM      9  N   UNL     1      -5.157  -6.414   0.353  0.00  0.00    -0.150 NA
ATOM     10  O   UNL     1      -2.146  -5.915  -0.307  0.00  0.00    -0.265 OA
ENDBRANCH   1   2
BRANCH   1  15
ATOM     11  C   UNL     1      -0.019   1.526   0.010  0.00  0.00    +0.007 C 
ATOM     12  C   UNL     1       0.002  -0.004   0.002  0.00  0.00    -0.018 C 
ATOM     13  C   UNL     1      -1.434  -0.536   0.023  0.00  0.00    -0.015 C 
ATOM     14  C   UNL     1      -1.405  -2.064   0.095  0.00  0.00    -0.077 C 
ATOM     15  N   UNL     1      -0.707  -2.487   1.315  0.00  0.00    +0.390 N 
ATOM     16  C   UNL     1       0.691  -2.042   1.269  0.00  0.00    -0.077 C 
ATOM     17  C   UNL     1       0.743  -0.513   1.242  0.00  0.00    -0.015 C 
ATOM     18  H   UNL     1      -1.162  -2.082   2.119  0.00  0.00    -0.080 HD
ENDBRANCH   1  15
BRANCH   1  19
ATOM     19  C   UNL     1      -0.034  -4.388   2.671  0.00  0.00    +0.096 A 
ATOM     20  C   UNL     1       0.779  -5.454   2.782  0.00  0.00    +0.043 A 
ATOM     21  C   UNL     1       1.229  -5.488   4.121  0.00  0.00    +0.041 A 
ATOM     22  C   UNL     1       0.665  -4.441   4.749  0.00  0.00    +0.195 A 
ATOM     23  O   UNL     1      -0.095  -3.774   3.864  0.00  0.00    -0.469 OA
ENDBRANCH   1  19
TORSDOF 3
