REMARK  Name = ZINC42447023
REMARK  11 active torsions:
REMARK  status: ('A' for Active; 'I' for Inactive)
REMARK    1  A    between atoms: C_1  and  C_2
REMARK    2  A    between atoms: C_2  and  N_3
REMARK    3  A    between atoms: N_3  and  C_4
REMARK    4  A    between atoms: N_3  and  C_10
REMARK    5  A    between atoms: C_4  and  C_5
REMARK    6  A    between atoms: C_5  and  C_7
REMARK    7  A    between atoms: C_5  and  C_8
REMARK    8  A    between atoms: C_10  and  C_12
REMARK    9  A    between atoms: C_10  and  C_13
REMARK   10  A    between atoms: N_15  and  C_16
REMARK   11  A    between atoms: C_21  and  N_22
REMARK                            x       y       z     vdW  Elec       q    Type
REMARK                         _______ _______ _______ _____ _____    ______ ____
ROOT
ATOM      1  C   UNL     1      -2.463   0.721  -2.628  0.00  0.00    +0.203 C 
ATOM      2  O   UNL     1      -1.844   1.641  -2.137  0.00  0.00    -0.277 OA
ATOM      3  N   UNL     1      -3.293   0.944  -3.666  0.00  0.00    -0.285 N 
ATOM      4  H   UNL     1      -3.833   0.220  -4.020  0.00  0.00    +0.155 HD
ENDROOT
BRANCH   3   5
ATOM      5  C   UNL     1      -3.377   2.224  -4.233  0.00  0.00    +0.054 A 
ATOM      6  C   UNL     1      -3.165   3.347  -3.449  0.00  0.00    +0.026 A 
ATOM      7  C   UNL     1      -3.248   4.608  -4.010  0.00  0.00    +0.022 A 
ATOM      8  C   UNL     1      -3.544   4.753  -5.354  0.00  0.00    +0.043 A 
ATOM      9  C   UNL     1      -3.757   3.638  -6.144  0.00  0.00    +0.044 A 
ATOM     10  C   UNL     1      -3.669   2.369  -5.589  0.00  0.00    +0.047 A 
ATOM     11 CL   UNL     1      -3.648   6.340  -6.051  0.00  0.00    -0.083 Cl
BRANCH  10  12
ATOM     12  N   UNL     1      -3.879   1.239  -6.387  0.00  0.00    -0.356 N 
ATOM     13  H   UNL     1      -3.821   0.353  -5.997  0.00  0.00    +0.142 HD
ATOM     14  H   UNL     1      -4.082   1.342  -7.330  0.00  0.00    +0.142 HD
ENDBRANCH  10  12
ENDBRANCH   3   5
BRANCH   1  15
ATOM     15  C   UNL     1      -2.302  -0.673  -2.079  0.00  0.00    +0.016 C 
ATOM     16  C   UNL     1      -3.335  -0.908  -0.975  0.00  0.00    -0.004 C 
BRANCH  15  17
ATOM     17  N   UNL     1      -0.950  -0.829  -1.526  0.00  0.00    +0.388 N 
ATOM     18  H   UNL     1      -0.841  -0.222  -0.727  0.00  0.00    -0.081 HD
BRANCH  17  20
ATOM     19  C   UNL     1      -0.208  -1.302  -3.812  0.00  0.00    -0.017 C 
ATOM     20  C   UNL     1       0.041  -0.473  -2.550  0.00  0.00    -0.081 C 
ENDBRANCH  17  20
BRANCH  17  21
ATOM     21  C   UNL     1      -0.748  -2.224  -1.112  0.00  0.00    -0.060 C 
BRANCH  21  22
ATOM     22  C   UNL     1       0.322  -2.282  -0.020  0.00  0.00    +0.072 C 
ATOM     23  C   UNL     1       1.674  -1.873  -0.608  0.00  0.00    +0.021 C 
BRANCH  22  24
ATOM     24  C   UNL     1       0.411  -3.654   0.507  0.00  0.00    +0.064 C 
ATOM     25  N   UNL     1       0.480  -4.712   0.914  0.00  0.00    -0.196 NA
ENDBRANCH  22  24
ENDBRANCH  21  22
ENDBRANCH  17  21
ENDBRANCH  15  17
ENDBRANCH   1  15
TORSDOF 8
