REMARK  Name = ZINC60376000
REMARK  8 active torsions:
REMARK  status: ('A' for Active; 'I' for Inactive)
REMARK    1  A    between atoms: C_1  and  C_2
REMARK    2  A    between atoms: C_2  and  C_3
REMARK    3  A    between atoms: C_2  and  N_4
REMARK    4  A    between atoms: C_5  and  C_7
REMARK    5  A    between atoms: C_7  and  N_8
REMARK    6  A    between atoms: C_11  and  C_15
REMARK    7  A    between atoms: C_11  and  C_16
REMARK    8  A    between atoms: C_20  and  C_22
REMARK                            x       y       z     vdW  Elec       q    Type
REMARK                         _______ _______ _______ _____ _____    ______ ____
ROOT
ATOM      1  N   UNL     1      -3.978  -1.213  -2.505  0.00  0.00    -0.215 N 
ATOM      2  C   UNL     1      -4.621  -0.195  -3.109  0.00  0.00    +0.251 C 
ATOM      3  O   UNL     1      -4.876   0.893  -2.638  0.00  0.00    -0.272 OA
ATOM      4  C   UNL     1      -4.961  -0.692  -4.501  0.00  0.00    +0.135 C 
ATOM      5  N   UNL     1      -4.418  -2.061  -4.521  0.00  0.00    -0.281 N 
ATOM      6  C   UNL     1      -3.860  -2.272  -3.315  0.00  0.00    +0.310 C 
ATOM      7  O   UNL     1      -3.313  -3.309  -2.995  0.00  0.00    -0.252 OA
ATOM      8  C   UNL     1      -6.476  -0.711  -4.711  0.00  0.00    +0.047 C 
ATOM      9  H   UNL     1      -4.453  -2.688  -5.260  0.00  0.00    +0.152 HD
ENDROOT
BRANCH   4  10
ATOM     10  C   UNL     1      -4.289   0.160  -5.547  0.00  0.00    -0.015 A 
ATOM     11  C   UNL     1      -4.033   1.495  -5.289  0.00  0.00    +0.006 A 
ATOM     12  C   UNL     1      -3.416   2.284  -6.244  0.00  0.00    +0.001 A 
ATOM     13  C   UNL     1      -3.054   1.744  -7.460  0.00  0.00    +0.013 A 
ATOM     14  C   UNL     1      -3.310   0.398  -7.726  0.00  0.00    +0.037 A 
ATOM     15  C   UNL     1      -3.927  -0.394  -6.757  0.00  0.00    +0.019 A 
BRANCH  14  16
ATOM     16  C   UNL     1      -2.924  -0.188  -9.028  0.00  0.00    +0.242 C 
ATOM     17  O   UNL     1      -3.148  -1.360  -9.257  0.00  0.00    -0.270 OA
ATOM     18  N   UNL     1      -2.324   0.579  -9.961  0.00  0.00    -0.325 N 
ATOM     19  H   UNL     1      -2.146   1.514  -9.778  0.00  0.00    +0.145 HD
ATOM     20  H   UNL     1      -2.071   0.194 -10.815  0.00  0.00    +0.145 HD
ENDBRANCH  14  16
ENDBRANCH   4  10
BRANCH   1  21
ATOM     21  C   UNL     1      -3.465  -1.164  -1.134  0.00  0.00    +0.213 C 
BRANCH  21  23
ATOM     22  N   UNL     1      -1.372  -0.511   0.012  0.00  0.00    -0.312 N 
ATOM     23  C   UNL     1      -2.051  -0.643  -1.145  0.00  0.00    +0.231 C 
ATOM     24  O   UNL     1      -1.524  -0.341  -2.194  0.00  0.00    -0.274 OA
ATOM     25  H   UNL     1      -1.794  -0.752   0.852  0.00  0.00    +0.149 HD
BRANCH  22  27
ATOM     26  C   UNL     1      -0.019   1.526   0.010  0.00  0.00    +0.027 C 
ATOM     27  C   UNL     1       0.002  -0.004   0.002  0.00  0.00    +0.067 C 
ATOM     28  C   UNL     1       0.742  -0.511   1.242  0.00  0.00    +0.027 C 
ENDBRANCH  22  27
ENDBRANCH  21  23
ENDBRANCH   1  21
TORSDOF 5
