REMARK  Name = ZINC58836880
REMARK  9 active torsions:
REMARK  status: ('A' for Active; 'I' for Inactive)
REMARK    1  A    between atoms: C_1  and  C_2
REMARK    2  A    between atoms: C_7  and  N_8
REMARK    3  A    between atoms: N_8  and  C_9
REMARK    4  A    between atoms: C_9  and  N_11
REMARK    5  A    between atoms: N_11  and  N_12
REMARK    6  A    between atoms: C_13  and  C_15
REMARK    7  A    between atoms: C_15  and  C_16
REMARK    8  A    between atoms: C_15  and  N_17
REMARK    9  A    between atoms: C_18  and  C_20
REMARK                            x       y       z     vdW  Elec       q    Type
REMARK                         _______ _______ _______ _____ _____    ______ ____
ROOT
ATOM      1  N   UNL     1       4.668   0.942   1.166  0.00  0.00    -0.234 N 
ATOM      2  C   UNL     1       5.933   1.409   1.156  0.00  0.00    +0.249 C 
ATOM      3  O   UNL     1       6.543   1.527   2.198  0.00  0.00    -0.272 OA
ATOM      4  H   UNL     1       4.180   0.848   0.333  0.00  0.00    +0.173 HD
ENDROOT
BRANCH   1   5
ATOM      5  N   UNL     1       4.059   0.594   2.379  0.00  0.00    -0.246 N 
ATOM      6  H   UNL     1       4.548   0.689   3.211  0.00  0.00    +0.172 HD
BRANCH   5   7
ATOM      7  C   UNL     1       2.795   0.128   2.388  0.00  0.00    +0.147 C 
ATOM      8  S   UNL     1       2.051  -0.298   3.870  0.00  0.00    -0.017 S 
BRANCH   7   9
ATOM      9  N   UNL     1       2.116  -0.004   1.231  0.00  0.00    -0.322 N 
ATOM     10  H   UNL     1       2.538   0.237   0.392  0.00  0.00    +0.148 HD
BRANCH   9  17
ATOM     11  C   UNL     1      -0.019   1.526   0.010  0.00  0.00    +0.009 C 
ATOM     12  C   UNL     1       0.002  -0.004   0.002  0.00  0.00    +0.006 C 
ATOM     13  C   UNL     1       0.718  -0.497  -1.257  0.00  0.00    +0.005 C 
ATOM     14  C   UNL     1       0.739  -2.027  -1.265  0.00  0.00    +0.000 C 
ATOM     15  C   UNL     1       1.479  -2.534  -0.026  0.00  0.00    +0.002 C 
ATOM     16  C   UNL     1       0.763  -2.041   1.233  0.00  0.00    +0.022 C 
ATOM     17  C   UNL     1       0.742  -0.511   1.242  0.00  0.00    +0.075 C 
ENDBRANCH   9  17
ENDBRANCH   7   9
ENDBRANCH   5   7
ENDBRANCH   1   5
BRANCH   2  18
ATOM     18  C   UNL     1       6.588   1.783  -0.148  0.00  0.00    +0.157 C 
ATOM     19  C   UNL     1       5.780   2.892  -0.825  0.00  0.00    +0.038 C 
BRANCH  18  20
ATOM     20  N   UNL     1       7.950   2.259   0.108  0.00  0.00    -0.304 N 
ATOM     21  C   UNL     1       8.886   2.174  -0.858  0.00  0.00    +0.217 C 
ATOM     22  O   UNL     1       8.601   1.704  -1.939  0.00  0.00    -0.275 OA
ATOM     23  H   UNL     1       8.178   2.634   0.973  0.00  0.00    +0.149 HD
BRANCH  21  24
ATOM     24  C   UNL     1      10.287   2.663  -0.594  0.00  0.00    +0.075 C 
ATOM     25  C   UNL     1      10.250   4.152  -0.244  0.00  0.00    +0.013 C 
ATOM     26  C   UNL     1      11.672   4.648   0.023  0.00  0.00    +0.001 C 
ATOM     27  C   UNL     1      12.529   4.439  -1.227  0.00  0.00    +0.000 C 
ATOM     28  C   UNL     1      12.566   2.950  -1.577  0.00  0.00    +0.001 C 
ATOM     29  C   UNL     1      11.144   2.453  -1.844  0.00  0.00    +0.013 C 
ENDBRANCH  21  24
ENDBRANCH  18  20
ENDBRANCH   2  18
TORSDOF 7
