REMARK  Name = ZINC67017519
REMARK  8 active torsions:
REMARK  status: ('A' for Active; 'I' for Inactive)
REMARK    1  A    between atoms: C_1  and  C_2
REMARK    2  A    between atoms: C_2  and  C_4
REMARK    3  A    between atoms: C_2  and  N_15
REMARK    4  A    between atoms: C_8  and  S_10
REMARK    5  A    between atoms: S_10  and  N_13
REMARK    6  A    between atoms: N_13  and  C_14
REMARK    7  A    between atoms: N_18  and  C_19
REMARK    8  A    between atoms: C_19  and  C_20
REMARK                            x       y       z     vdW  Elec       q    Type
REMARK                         _______ _______ _______ _____ _____    ______ ____
ROOT
ATOM      1  C   UNL     1      -0.019   1.526   0.010  0.00  0.00    +0.033 C 
ATOM      2  C   UNL     1       0.002  -0.004   0.002  0.00  0.00    +0.102 C 
ENDROOT
BRANCH   2   3
ATOM      3  C   UNL     1      -1.412  -0.526   0.013  0.00  0.00    -0.026 A 
ATOM      4  C   UNL     1      -2.142  -0.569  -1.161  0.00  0.00    +0.005 A 
ATOM      5  C   UNL     1      -3.438  -1.047  -1.151  0.00  0.00    +0.002 A 
ATOM      6  C   UNL     1      -4.005  -1.483   0.032  0.00  0.00    +0.028 A 
ATOM      7  C   UNL     1      -3.275  -1.441   1.205  0.00  0.00    +0.106 A 
ATOM      8  C   UNL     1      -1.977  -0.966   1.195  0.00  0.00    +0.034 A 
BRANCH   7   9
ATOM      9  S   UNL     1      -3.998  -1.996   2.713  0.00  0.00    +0.058 S 
ATOM     10  O   UNL     1      -3.297  -1.344   3.764  0.00  0.00    -0.153 OA
ATOM     11  O   UNL     1      -5.406  -1.885   2.554  0.00  0.00    -0.153 OA
BRANCH   9  12
ATOM     12  N   UNL     1      -3.663  -3.611   2.851  0.00  0.00    -0.193 NA
ATOM     13  C   UNL     1      -2.277  -4.062   3.005  0.00  0.00    +0.127 C 
ATOM     14  H   UNL     1      -4.384  -4.260   2.831  0.00  0.00    +0.148 HD
ENDBRANCH   9  12
ENDBRANCH   7   9
ENDBRANCH   2   3
BRANCH   2  15
ATOM     15  N   UNL     1       0.688  -0.476  -1.203  0.00  0.00    -0.293 N 
ATOM     16  C   UNL     1       2.031  -0.587  -1.215  0.00  0.00    +0.300 C 
ATOM     17  O   UNL     1       2.674  -0.294  -0.225  0.00  0.00    -0.253 OA
ATOM     18  N   UNL     1       2.662  -1.022  -2.324  0.00  0.00    -0.292 N 
ATOM     19  H   UNL     1       0.175  -0.710  -1.993  0.00  0.00    +0.151 HD
ATOM     20  H   UNL     1       2.149  -1.255  -3.114  0.00  0.00    +0.151 HD
BRANCH  18  21
ATOM     21  C   UNL     1       4.122  -1.142  -2.336  0.00  0.00    +0.180 C 
BRANCH  21  22
ATOM     22  C   UNL     1       4.573  -1.645  -3.683  0.00  0.00    +0.122 A 
ATOM     23  C   UNL     1       4.895  -0.879  -4.742  0.00  0.00    +0.046 A 
ATOM     24  C   UNL     1       5.259  -1.758  -5.788  0.00  0.00    +0.041 A 
ATOM     25  C   UNL     1       5.137  -3.008  -5.306  0.00  0.00    +0.195 A 
ATOM     26  O   UNL     1       4.727  -2.933  -4.029  0.00  0.00    -0.466 OA
ENDBRANCH  21  22
ENDBRANCH  18  21
ENDBRANCH   2  15
TORSDOF 6
