REMARK  Name = ZINC12886178
REMARK  8 active torsions:
REMARK  status: ('A' for Active; 'I' for Inactive)
REMARK    1  A    between atoms: C_1  and  C_2
REMARK    2  A    between atoms: C_16  and  C_18
REMARK    3  A    between atoms: C_18  and  C_19
REMARK    4  A    between atoms: C_19  and  C_20
REMARK    5  A    between atoms: N_25  and  C_28
REMARK    6  A    between atoms: C_28  and  C_29
REMARK    7  A    between atoms: C_32  and  O_35
REMARK    8  A    between atoms: O_35  and  C_36
REMARK                            x       y       z     vdW  Elec       q    Type
REMARK                         _______ _______ _______ _____ _____    ______ ____
ROOT
ATOM      1  C   UNL     1       5.234  -3.345  -5.441  0.00  0.00    +0.045 C 
ATOM      2  C   UNL     1       5.649  -1.914  -5.665  0.00  0.00    -0.029 A 
ATOM      3  C   UNL     1       6.739  -1.631  -6.462  0.00  0.00    +0.005 A 
ATOM      4  C   UNL     1       7.128  -0.321  -6.674  0.00  0.00    +0.001 A 
ATOM      5  C   UNL     1       6.419   0.712  -6.086  0.00  0.00    +0.004 A 
ATOM      6  C   UNL     1       5.329   0.434  -5.291  0.00  0.00    -0.027 A 
ATOM      7  C   UNL     1       4.930  -0.881  -5.069  0.00  0.00    +0.039 A 
ATOM      8  N   UNL     1       3.811  -0.911  -4.234  0.00  0.00    -0.286 N 
ATOM      9  C   UNL     1       3.417   0.324  -3.868  0.00  0.00    +0.211 C 
ATOM     10  O   UNL     1       2.481   0.602  -3.149  0.00  0.00    -0.277 OA
ATOM     11  C   UNL     1       4.364   1.292  -4.524  0.00  0.00    +0.050 C 
ATOM     12  C   UNL     1       5.083   2.162  -3.487  0.00  0.00    +0.088 C 
ATOM     13  C   UNL     1       4.285   3.496  -3.473  0.00  0.00    +0.073 C 
ATOM     14  C   UNL     1       3.147   3.286  -4.494  0.00  0.00    -0.057 C 
ATOM     15  C   UNL     1       3.700   3.537  -2.080  0.00  0.00    +0.224 C 
ATOM     16  O   UNL     1       3.000   4.423  -1.640  0.00  0.00    -0.275 OA
ATOM     17  N   UNL     1       4.077   2.444  -1.407  0.00  0.00    -0.237 N 
ATOM     18  C   UNL     1       4.858   1.607  -2.099  0.00  0.00    +0.225 C 
ATOM     19  O   UNL     1       5.312   0.564  -1.680  0.00  0.00    -0.275 OA
ATOM     20  H   UNL     1       3.369  -1.726  -3.951  0.00  0.00    +0.155 HD
ATOM     21  N   UNL     1       3.651   2.229  -5.374  0.00  0.00    +0.394 N 
ATOM     22  H   UNL     1       2.871   1.758  -5.847  0.00  0.00    -0.083 HD
ATOM     23  H   UNL     1       4.287   2.626  -6.076  0.00  0.00    -0.083 HD
ENDROOT
BRANCH  14  24
ATOM     24  C   UNL     1       2.879   4.579  -5.267  0.00  0.00    -0.006 C 
BRANCH  24  25
ATOM     25  C   UNL     1       1.668   4.385  -6.182  0.00  0.00    +0.094 C 
BRANCH  25  26
ATOM     26  C   UNL     1       1.405   5.659  -6.943  0.00  0.00    +0.210 C 
ATOM     27  O   UNL     1       2.115   6.627  -6.770  0.00  0.00    -0.276 OA
ATOM     28  N   UNL     1       0.379   5.723  -7.815  0.00  0.00    -0.329 N 
ATOM     29  H   UNL     1      -0.189   4.949  -7.953  0.00  0.00    +0.145 HD
ATOM     30  H   UNL     1       0.209   6.543  -8.305  0.00  0.00    +0.145 HD
ENDBRANCH  25  26
ENDBRANCH  24  25
ENDBRANCH  14  24
BRANCH  17  31
ATOM     31  C   UNL     1       3.671   2.186  -0.023  0.00  0.00    +0.151 C 
BRANCH  31  32
ATOM     32  C   UNL     1       2.377   1.414  -0.013  0.00  0.00    -0.029 A 
ATOM     33  C   UNL     1       1.171   2.089   0.002  0.00  0.00    +0.009 A 
ATOM     34  C   UNL     1      -0.017   1.383   0.010  0.00  0.00    +0.046 A 
ATOM     35  C   UNL     1       0.002  -0.004   0.002  0.00  0.00    +0.120 A 
ATOM     36  C   UNL     1       1.214  -0.679  -0.013  0.00  0.00    +0.046 A 
ATOM     37  C   UNL     1       2.399   0.031  -0.021  0.00  0.00    +0.009 A 
BRANCH  35  38
ATOM     38  O   UNL     1      -1.165  -0.701   0.010  0.00  0.00    -0.495 OA
ATOM     39  C   UNL     1      -1.069  -2.126   0.001  0.00  0.00    +0.277 C 
ENDBRANCH  35  38
ENDBRANCH  31  32
ENDBRANCH  17  31
TORSDOF 6
