REMARK  Name = ZINC50038711
REMARK  6 active torsions:
REMARK  status: ('A' for Active; 'I' for Inactive)
REMARK    1  A    between atoms: C_1  and  N_2
REMARK    2  A    between atoms: N_2  and  C_3
REMARK    3  A    between atoms: C_6  and  C_10
REMARK    4  A    between atoms: C_10  and  N_11
REMARK    5  A    between atoms: N_14  and  C_15
REMARK    6  A    between atoms: C_17  and  C_23
REMARK                            x       y       z     vdW  Elec       q    Type
REMARK                         _______ _______ _______ _____ _____    ______ ____
ROOT
ATOM      1  N   UNL     1      -1.342  -4.783  -2.294  0.00  0.00    -0.295 N 
ATOM      2  C   UNL     1      -1.590  -6.108  -2.329  0.00  0.00    +0.304 C 
ATOM      3  O   UNL     1      -0.677  -6.901  -2.205  0.00  0.00    -0.252 OA
ATOM      4  N   UNL     1      -2.851  -6.552  -2.503  0.00  0.00    -0.265 N 
ATOM      5  H   UNL     1      -2.070  -4.151  -2.393  0.00  0.00    +0.151 HD
ATOM      6  H   UNL     1      -3.588  -5.923  -2.529  0.00  0.00    +0.157 HD
ENDROOT
BRANCH   4   7
ATOM      7  C   UNL     1      -3.096  -7.925  -2.647  0.00  0.00    +0.100 A 
ATOM      8  C   UNL     1      -3.929  -8.574  -1.778  0.00  0.00    +0.042 A 
ATOM      9  C   UNL     1      -4.158  -9.948  -1.945  0.00  0.00    +0.073 A 
ATOM     10  C   UNL     1      -3.558 -10.616  -2.956  0.00  0.00    +0.098 A 
ATOM     11  N   UNL     1      -2.728  -9.973  -3.821  0.00  0.00    -0.327 N 
ATOM     12  H   UNL     1      -2.307 -10.469  -4.540  0.00  0.00    +0.168 HD
ATOM     13  C   UNL     1      -2.490  -8.653  -3.694  0.00  0.00    +0.270 A 
ATOM     14  O   UNL     1      -1.748  -8.088  -4.481  0.00  0.00    -0.266 OA
BRANCH   9  15
ATOM     15  C   UNL     1      -5.073 -10.680  -0.997  0.00  0.00    +0.419 C 
ATOM     16  F   UNL     1      -5.142 -12.028  -1.363  0.00  0.00    -0.166 F 
ATOM     17  F   UNL     1      -4.574 -10.576   0.306  0.00  0.00    -0.166 F 
ATOM     18  F   UNL     1      -6.351 -10.115  -1.053  0.00  0.00    -0.166 F 
ENDBRANCH   9  15
ENDBRANCH   4   7
BRANCH   1  19
ATOM     19  C   UNL     1       0.028  -4.300  -2.105  0.00  0.00    +0.141 C 
BRANCH  19  25
ATOM     20  C   UNL     1      -0.271   1.490   0.182  0.00  0.00    +0.130 C 
ATOM     21  N   UNL     1      -0.275   0.026   0.215  0.00  0.00    -0.323 N 
ATOM     22  C   UNL     1      -0.447  -0.678   1.489  0.00  0.00    +0.130 C 
ATOM     23  C   UNL     1      -0.116  -0.696  -0.962  0.00  0.00    +0.098 A 
ATOM     24  C   UNL     1      -0.127  -2.087  -0.924  0.00  0.00    +0.047 A 
ATOM     25  C   UNL     1       0.033  -2.793  -2.103  0.00  0.00    -0.026 A 
ATOM     26  C   UNL     1       0.198  -2.082  -3.284  0.00  0.00    +0.023 A 
ATOM     27  C   UNL     1       0.199  -0.702  -3.248  0.00  0.00    +0.084 A 
ATOM     28  N   UNL     1       0.039  -0.054  -2.109  0.00  0.00    -0.350 N 
ATOM     29  H   UNL     1       0.039   0.915  -2.113  0.00  0.00    +0.166 HD
ENDBRANCH  19  25
ENDBRANCH   1  19
TORSDOF 4
