REMARK  Name = ZINC67296603
REMARK  4 active torsions:
REMARK  status: ('A' for Active; 'I' for Inactive)
REMARK    1  A    between atoms: C_1  and  C_2
REMARK    2  A    between atoms: C_9  and  C_11
REMARK    3  A    between atoms: N_21  and  C_22
REMARK    4  A    between atoms: C_27  and  C_28
REMARK                            x       y       z     vdW  Elec       q    Type
REMARK                         _______ _______ _______ _____ _____    ______ ____
ROOT
ATOM      1  C   UNL     1       0.068  -6.438  -0.984  0.00  0.00    +0.098 A 
ATOM      2  C   UNL     1       0.397  -7.192  -2.103  0.00  0.00    +0.030 A 
ATOM      3  C   UNL     1       0.683  -8.614  -1.896  0.00  0.00    +0.018 A 
ATOM      4  C   UNL     1       1.275  -9.380  -2.906  0.00  0.00    +0.011 A 
ATOM      5  C   UNL     1       1.535 -10.704  -2.688  0.00  0.00    +0.001 A 
ATOM      6  C   UNL     1       1.218 -11.294  -1.473  0.00  0.00    +0.004 A 
ATOM      7  C   UNL     1       0.632 -10.556  -0.464  0.00  0.00    +0.047 A 
ATOM      8  C   UNL     1       0.357  -9.211  -0.664  0.00  0.00    +0.137 A 
ATOM      9  O   UNL     1      -0.224  -8.472   0.312  0.00  0.00    -0.439 OA
ATOM     10  C   UNL     1       0.042  -7.139   0.315  0.00  0.00    +0.212 A 
ATOM     11  N   UNL     1       0.265  -6.492   1.439  0.00  0.00    -0.325 N 
ATOM     12  H   UNL     1       0.564  -5.569   1.416  0.00  0.00    +0.169 HD
ENDROOT
BRANCH   1  21
ATOM     13  C   UNL     1      -2.039   1.117  -0.363  0.00  0.00    +0.045 C 
ATOM     14  C   UNL     1      -1.652  -0.338  -0.299  0.00  0.00    -0.032 A 
ATOM     15  C   UNL     1      -0.828  -0.888  -1.272  0.00  0.00    +0.008 A 
ATOM     16  C   UNL     1      -0.497  -2.228  -1.177  0.00  0.00    +0.044 A 
ATOM     17  C   UNL     1      -0.998  -2.974  -0.116  0.00  0.00    +0.125 A 
ATOM     18  N   UNL     1      -1.781  -2.413   0.792  0.00  0.00    -0.240 NA
ATOM     19  C   UNL     1      -2.109  -1.137   0.730  0.00  0.00    +0.116 A 
ATOM     20  N   UNL     1      -0.673  -4.324  -0.008  0.00  0.00    -0.266 N 
ATOM     21  C   UNL     1      -0.236  -5.001  -1.088  0.00  0.00    +0.254 C 
ATOM     22  O   UNL     1      -0.092  -4.425  -2.150  0.00  0.00    -0.270 OA
ATOM     23  H   UNL     1      -0.761  -4.778   0.845  0.00  0.00    +0.157 HD
ENDBRANCH   1  21
BRANCH  11  24
ATOM     24  C   UNL     1       0.074  -7.120   2.639  0.00  0.00    +0.046 A 
ATOM     25  C   UNL     1      -1.118  -7.802   2.892  0.00  0.00    +0.026 A 
ATOM     26  C   UNL     1      -1.304  -8.433   4.104  0.00  0.00    +0.003 A 
ATOM     27  C   UNL     1      -0.313  -8.391   5.069  0.00  0.00    +0.020 A 
ATOM     28  C   UNL     1       0.871  -7.717   4.826  0.00  0.00    +0.046 A 
ATOM     29  C   UNL     1       1.073  -7.086   3.614  0.00  0.00    -0.009 A 
ATOM     30  C   UNL     1       2.365  -6.357   3.348  0.00  0.00    +0.047 C 
ATOM     31 CL   UNL     1       2.107  -7.670   6.043  0.00  0.00    -0.083 Cl
ENDBRANCH  11  24
TORSDOF 2
