REMARK  Name = ZINC43113917
REMARK  4 active torsions:
REMARK  status: ('A' for Active; 'I' for Inactive)
REMARK    1  A    between atoms: C_1  and  C_2
REMARK    2  A    between atoms: C_5  and  C_7
REMARK    3  A    between atoms: C_7  and  N_8
REMARK    4  A    between atoms: C_9  and  C_11
REMARK                            x       y       z     vdW  Elec       q    Type
REMARK                         _______ _______ _______ _____ _____    ______ ____
ROOT
ATOM      1  N   UNL     1       2.155  -2.457   2.063  0.00  0.00    -0.311 N 
ATOM      2  C   UNL     1       2.869  -3.599   2.038  0.00  0.00    +0.249 C 
ATOM      3  O   UNL     1       2.863  -4.299   1.043  0.00  0.00    -0.270 OA
ATOM      4  H   UNL     1       2.099  -1.937   2.881  0.00  0.00    +0.149 HD
ENDROOT
BRANCH   2   5
ATOM      5  C   UNL     1       3.657  -4.000   3.214  0.00  0.00    +0.101 A 
ATOM      6  C   UNL     1       4.494  -5.113   3.161  0.00  0.00    +0.020 A 
ATOM      7  C   UNL     1       5.226  -5.462   4.295  0.00  0.00    +0.018 A 
ATOM      8  C   UNL     1       5.117  -4.725   5.430  0.00  0.00    +0.086 A 
ATOM      9  N   UNL     1       4.306  -3.642   5.489  0.00  0.00    -0.328 N 
ATOM     10  C   UNL     1       3.582  -3.257   4.420  0.00  0.00    +0.261 A 
ATOM     11  O   UNL     1       2.861  -2.277   4.491  0.00  0.00    -0.267 OA
ATOM     12  H   UNL     1       4.247  -3.134   6.313  0.00  0.00    +0.168 HD
ENDBRANCH   2   5
BRANCH   1  13
ATOM     13  C   UNL     1       1.461  -2.000   0.857  0.00  0.00    +0.108 C 
BRANCH  13  17
ATOM     14  C   UNL     1       0.035   1.545  -0.016  0.00  0.00    +0.008 C 
ATOM     15  C   UNL     1       0.039   0.015  -0.015  0.00  0.00    -0.009 C 
ATOM     16  C   UNL     1      -0.797  -0.693   1.053  0.00  0.00    +0.009 C 
ATOM     17  C   UNL     1       0.731  -0.689   1.154  0.00  0.00    +0.009 C 
ENDBRANCH  13  17
ENDBRANCH   1  13
TORSDOF 3
