REMARK  Name = ZINC04004458
REMARK  8 active torsions:
REMARK  status: ('A' for Active; 'I' for Inactive)
REMARK    1  A    between atoms: C_1  and  C_2
REMARK    2  A    between atoms: C_5  and  N_11
REMARK    3  A    between atoms: C_7  and  N_8
REMARK    4  A    between atoms: N_11  and  C1*_12
REMARK    5  A    between atoms: C2*_14  and  O2*_24
REMARK    6  A    between atoms: C3*_16  and  O3*_23
REMARK    7  A    between atoms: C4*_18  and  C5*_21
REMARK    8  A    between atoms: C5*_21  and  O5*_22
REMARK                            x       y       z     vdW  Elec       q    Type
REMARK                         _______ _______ _______ _____ _____    ______ ____
ROOT
ATOM      1  N   UNL     1       0.552  -3.934  -0.063  0.00  0.00    -0.317 N 
ATOM      2  H   UNL     1       0.662  -4.386   0.788  0.00  0.00    +0.149 HD
ENDROOT
BRANCH   1   7
ATOM      3  C   UNL     1      -0.099   1.698  -0.214  0.00  0.00    +0.046 C 
ATOM      4  C   UNL     1       0.074   0.201  -0.174  0.00  0.00    -0.020 A 
ATOM      5  C   UNL     1       0.218  -0.509  -1.352  0.00  0.00    +0.007 A 
ATOM      6  C   UNL     1       0.377  -1.880  -1.319  0.00  0.00    +0.023 A 
ATOM      7  C   UNL     1       0.392  -2.547  -0.100  0.00  0.00    +0.031 A 
ATOM      8  C   UNL     1       0.247  -1.831   1.081  0.00  0.00    +0.056 A 
ATOM      9  C   UNL     1       0.094  -0.459   1.041  0.00  0.00    +0.131 A 
BRANCH   9  10
ATOM     10  N   UNL     1      -0.054   0.306   2.299  0.00  0.00    +0.057 N 
ATOM     11  O   UNL     1       0.451   1.399   2.406  0.00  0.00    -0.126 OA
ATOM     12  O   UNL     1      -0.681  -0.163   3.221  0.00  0.00    -0.126 OA
ENDBRANCH   9  10
ENDBRANCH   1   7
BRANCH   1  13
ATOM     13  C1* UNL     1       0.553  -4.705  -1.309  0.00  0.00    +0.235 C 
ATOM     14  C2* UNL     1       0.047  -6.141  -1.052  0.00  0.00    +0.192 C 
ATOM     15  C3* UNL     1       0.919  -7.018  -1.979  0.00  0.00    +0.178 C 
ATOM     16  C4* UNL     1       1.849  -6.007  -2.686  0.00  0.00    +0.177 C 
ATOM     17  O4* UNL     1       1.902  -4.868  -1.797  0.00  0.00    -0.348 OA
BRANCH  15  18
ATOM     18  O3* UNL     1       1.681  -7.953  -1.213  0.00  0.00    -0.386 OA
ATOM     19  H3* UNL     1       1.144  -8.573  -0.702  0.00  0.00    +0.210 HD
ENDBRANCH  15  18
BRANCH  14  20
ATOM     20  O2* UNL     1       0.243  -6.505   0.316  0.00  0.00    -0.385 OA
ATOM     21  H2* UNL     1      -0.236  -5.947   0.944  0.00  0.00    +0.210 HD
ENDBRANCH  14  20
BRANCH  16  22
ATOM     22  C5* UNL     1       3.244  -6.607  -2.872  0.00  0.00    +0.190 C 
BRANCH  22  23
ATOM     23  O5* UNL     1       4.053  -5.704  -3.629  0.00  0.00    -0.392 OA
ATOM     24  H5* UNL     1       4.954  -6.021  -3.786  0.00  0.00    +0.210 HD
ENDBRANCH  22  23
ENDBRANCH  16  22
ENDBRANCH   1  13
TORSDOF 7
