REMARK  Name = ZINC54047683
REMARK  6 active torsions:
REMARK  status: ('A' for Active; 'I' for Inactive)
REMARK    1  A    between atoms: C_6  and  S_7
REMARK    2  A    between atoms: S_7  and  C_8
REMARK    3  A    between atoms: C_8  and  C_9
REMARK    4  A    between atoms: C_9  and  N_10
REMARK    5  A    between atoms: N_13  and  N_14
REMARK    6  A    between atoms: C_15  and  C_17
REMARK                            x       y       z     vdW  Elec       q    Type
REMARK                         _______ _______ _______ _____ _____    ______ ____
ROOT
ATOM      1  N   UNL     1      -1.793  -4.952  -0.007  0.00  0.00    -0.297 N 
ATOM      2  C   UNL     1      -2.715  -5.935  -0.003  0.00  0.00    +0.316 C 
ATOM      3  O   UNL     1      -3.899  -5.659   0.010  0.00  0.00    -0.251 OA
ATOM      4  N   UNL     1      -2.325  -7.225  -0.014  0.00  0.00    -0.218 N 
ATOM      5  H   UNL     1      -0.849  -5.173  -0.017  0.00  0.00    +0.150 HD
ATOM      6  H   UNL     1      -2.988  -7.933  -0.011  0.00  0.00    +0.174 HD
ENDROOT
BRANCH   4   7
ATOM      7  N   UNL     1      -0.960  -7.544  -0.029  0.00  0.00    -0.233 N 
ATOM      8  C   UNL     1      -0.570  -8.834  -0.040  0.00  0.00    +0.234 C 
ATOM      9  O   UNL     1      -1.399  -9.719  -0.036  0.00  0.00    -0.274 OA
ATOM     10  H   UNL     1      -0.297  -6.836  -0.032  0.00  0.00    +0.173 HD
BRANCH   8  11
ATOM     11  C   UNL     1       0.897  -9.177  -0.056  0.00  0.00    +0.099 C 
ATOM     12  C   UNL     1       1.570  -8.604   1.203  0.00  0.00    +0.037 C 
ATOM     13  C   UNL     1       2.989  -9.229   1.321  0.00  0.00    +0.166 C 
ATOM     14  S   UNL     1       2.631 -10.971   0.839  0.00  0.00    -0.030 S 
ATOM     15  O   UNL     1       3.636 -11.418  -0.061  0.00  0.00    -0.174 OA
ATOM     16  O   UNL     1       2.356 -11.727   2.010  0.00  0.00    -0.174 OA
ATOM     17  C   UNL     1       1.065 -10.715  -0.089  0.00  0.00    +0.178 C 
ENDBRANCH   8  11
ENDBRANCH   4   7
BRANCH   1  18
ATOM     18  C   UNL     1      -2.218  -3.550   0.005  0.00  0.00    +0.117 C 
BRANCH  18  19
ATOM     19  C   UNL     1      -0.985  -2.644  -0.002  0.00  0.00    +0.093 C 
BRANCH  19  20
ATOM     20  S   UNL     1      -1.511  -0.907   0.012  0.00  0.00    -0.124 S 
BRANCH  20  26
ATOM     21  C   UNL     1      -0.017   1.385   0.010  0.00  0.00    +0.016 A 
ATOM     22  C   UNL     1       1.170   2.091   0.002  0.00  0.00    +0.021 A 
ATOM     23  C   UNL     1       2.378   1.415  -0.013  0.00  0.00    +0.041 A 
ATOM     24  C   UNL     1       2.400   0.031  -0.021  0.00  0.00    +0.021 A 
ATOM     25  C   UNL     1       1.216  -0.680  -0.013  0.00  0.00    +0.016 A 
ATOM     26  C   UNL     1       0.002  -0.004   0.002  0.00  0.00    +0.008 A 
ATOM     27 CL   UNL     1       3.869   2.305  -0.023  0.00  0.00    -0.084 Cl
ENDBRANCH  20  26
ENDBRANCH  19  20
ENDBRANCH  18  19
ENDBRANCH   1  18
TORSDOF 6
