REMARK  Name = ZINC13640829
REMARK  9 active torsions:
REMARK  status: ('A' for Active; 'I' for Inactive)
REMARK    1  A    between atoms: C_1  and  O_2
REMARK    2  A    between atoms: O_2  and  C_3
REMARK    3  A    between atoms: C_5  and  C_13
REMARK    4  A    between atoms: C_7  and  O_11
REMARK    5  A    between atoms: C_8  and  O_9
REMARK    6  A    between atoms: O_9  and  C_10
REMARK    7  A    between atoms: O_11  and  C_12
REMARK    8  A    between atoms: C_23  and  N_30
REMARK    9  A    between atoms: C_26  and  O_29
REMARK                            x       y       z     vdW  Elec       q    Type
REMARK                         _______ _______ _______ _____ _____    ______ ____
ROOT
ATOM      1  C   UNL     1      -0.769   1.660   1.208  0.00  0.00    +0.105 C 
ATOM      2  C   UNL     1      -0.013   1.086   0.008  0.00  0.00    +0.029 C 
ATOM      3  C   UNL     1       1.410   1.714  -0.002  0.00  0.00    +0.033 C 
ATOM      4  C   UNL     1       1.204   3.048  -0.692  0.00  0.00    -0.030 C 
ATOM      5  C   UNL     1       0.110   3.030  -1.410  0.00  0.00    -0.023 C 
ATOM      6  C   UNL     1      -0.576   1.688  -1.297  0.00  0.00    +0.051 C 
ATOM      7  C   UNL     1      -2.065   1.859  -1.228  0.00  0.00    +0.014 A 
ATOM      8  C   UNL     1      -2.731   2.238  -2.388  0.00  0.00    +0.132 A 
ATOM      9  C   UNL     1      -4.099   2.414  -2.389  0.00  0.00    +0.037 A 
ATOM     10  C   UNL     1      -4.825   2.215  -1.228  0.00  0.00    +0.049 A 
ATOM     11  C   UNL     1      -4.173   1.836  -0.070  0.00  0.00    +0.138 A 
ATOM     12  C   UNL     1      -2.786   1.655  -0.067  0.00  0.00    +0.076 A 
ATOM     13  N   UNL     1      -2.178   1.263   1.128  0.00  0.00    -0.334 N 
ATOM     14  H   UNL     1      -2.643   0.715   1.961  0.00  0.00    +0.147 HD
ENDROOT
BRANCH   1  17
ATOM     15  C   UNL     1       1.290   1.469   4.372  0.00  0.00    +0.165 A 
ATOM     16  C   UNL     1       0.722   1.940   3.198  0.00  0.00    +0.055 A 
ATOM     17  C   UNL     1      -0.153   1.143   2.483  0.00  0.00    -0.020 A 
ATOM     18  C   UNL     1      -0.471  -0.123   2.939  0.00  0.00    +0.055 A 
ATOM     19  C   UNL     1       0.097  -0.603   4.109  0.00  0.00    +0.165 A 
ATOM     20  C   UNL     1       0.978   0.194   4.830  0.00  0.00    +0.204 A 
BRANCH  15  22
ATOM     21  C   UNL     1       2.426   3.551   4.543  0.00  0.00    +0.277 C 
ATOM     22  O   UNL     1       2.151   2.253   5.074  0.00  0.00    -0.491 OA
ENDBRANCH  15  22
BRANCH  20  23
ATOM     23  O   UNL     1       1.532  -0.271   5.982  0.00  0.00    -0.488 OA
ATOM     24  C   UNL     1       0.821  -0.016   7.195  0.00  0.00    +0.277 C 
ENDBRANCH  20  23
BRANCH  19  25
ATOM     25  O   UNL     1      -0.211  -1.851   4.553  0.00  0.00    -0.491 OA
ATOM     26  C   UNL     1      -1.123  -2.614   3.761  0.00  0.00    +0.277 C 
ENDBRANCH  19  25
ENDBRANCH   1  17
BRANCH   8  27
ATOM     27  N   UNL     1      -1.964   2.455  -3.635  0.00  0.00    +0.057 N 
ATOM     28  O   UNL     1      -2.541   2.788  -4.654  0.00  0.00    -0.126 OA
ATOM     29  O   UNL     1      -0.756   2.301  -3.641  0.00  0.00    -0.126 OA
ENDBRANCH   8  27
BRANCH  11  30
ATOM     30  O   UNL     1      -4.884   1.639   1.073  0.00  0.00    -0.505 OA
ATOM     31  H   UNL     1      -4.368   1.337   1.997  0.00  0.00    +0.292 HD
ENDBRANCH  11  30
TORSDOF 6
