REMARK  Name = ZINC04365187
REMARK  8 active torsions:
REMARK  status: ('A' for Active; 'I' for Inactive)
REMARK    1  A    between atoms: C_1  and  C_2
REMARK    2  A    between atoms: C_4  and  C_10
REMARK    3  A    between atoms: C_5  and  C_8
REMARK    4  A    between atoms: C_8  and  O_9
REMARK    5  A    between atoms: N_11  and  N_12
REMARK    6  A    between atoms: N_12  and  C_13
REMARK    7  A    between atoms: C_18  and  O_19
REMARK    8  A    between atoms: O_19  and  C_20
REMARK                            x       y       z     vdW  Elec       q    Type
REMARK                         _______ _______ _______ _____ _____    ______ ____
ROOT
ATOM      1  C   UNL     1      -0.018   1.503   0.010  0.00  0.00    +0.067 C 
ATOM      2  C   UNL     1       0.002  -0.004   0.002  0.00  0.00    +0.061 A 
ATOM      3  C   UNL     1       0.006  -0.681  -1.206  0.00  0.00    +0.207 A 
ATOM      4  C   UNL     1       0.025  -2.087  -1.196  0.00  0.00    +0.050 A 
ATOM      5  C   UNL     1       0.040  -2.737   0.045  0.00  0.00    +0.006 A 
ATOM      6  C   UNL     1       0.035  -1.980   1.198  0.00  0.00    +0.089 A 
ATOM      7  N   UNL     1       0.022  -0.661   1.146  0.00  0.00    -0.361 N 
ATOM      8  O   UNL     1      -0.010   0.002  -2.380  0.00  0.00    -0.285 OA
ATOM      9  H   UNL     1       0.023  -0.159   1.976  0.00  0.00    +0.165 HD
ENDROOT
BRANCH   4  10
ATOM     10  C   UNL     1       0.029  -2.853  -2.453  0.00  0.00    +0.142 C 
ATOM     11  N   UNL     1       0.015  -2.231  -3.594  0.00  0.00    -0.190 NA
BRANCH  11  12
ATOM     12  N   UNL     1       0.018  -2.960  -4.790  0.00  0.00    -0.234 N 
ATOM     13  H   UNL     1       0.032  -3.930  -4.767  0.00  0.00    +0.174 HD
BRANCH  12  14
ATOM     14  C   UNL     1       0.003  -2.291  -6.016  0.00  0.00    +0.090 A 
ATOM     15  C   UNL     1      -0.011  -0.903  -6.052  0.00  0.00    +0.028 A 
ATOM     16  C   UNL     1      -0.027  -0.244  -7.266  0.00  0.00    +0.002 A 
ATOM     17  C   UNL     1      -0.029  -0.963  -8.447  0.00  0.00    +0.004 A 
ATOM     18  C   UNL     1      -0.015  -2.345  -8.420  0.00  0.00    +0.047 A 
ATOM     19  C   UNL     1       0.006  -3.014  -7.208  0.00  0.00    +0.142 A 
BRANCH  19  20
ATOM     20  O   UNL     1       0.026  -4.374  -7.180  0.00  0.00    -0.493 OA
ATOM     21  C   UNL     1       0.029  -5.049  -8.439  0.00  0.00    +0.277 C 
ENDBRANCH  19  20
ENDBRANCH  12  14
ENDBRANCH  11  12
ENDBRANCH   4  10
BRANCH   5  22
ATOM     22  C   UNL     1       0.061  -4.242   0.119  0.00  0.00    +0.193 C 
BRANCH  22  23
ATOM     23  O   UNL     1       0.074  -4.652   1.488  0.00  0.00    -0.390 OA
ATOM     24  H   UNL     1       0.087  -5.610   1.612  0.00  0.00    +0.210 HD
ENDBRANCH  22  23
ENDBRANCH   5  22
TORSDOF 6
