REMARK  Name = ZINC13301163
REMARK  8 active torsions:
REMARK  status: ('A' for Active; 'I' for Inactive)
REMARK    1  A    between atoms: C_3  and  S_10
REMARK    2  A    between atoms: C_6  and  N_7
REMARK    3  A    between atoms: S_10  and  N_13
REMARK    4  A    between atoms: N_13  and  P_14
REMARK    5  A    between atoms: P_14  and  O_16
REMARK    6  A    between atoms: P_14  and  O_24
REMARK    7  A    between atoms: O_16  and  C_17
REMARK    8  A    between atoms: O_24  and  C_25
REMARK                            x       y       z     vdW  Elec       q    Type
REMARK                         _______ _______ _______ _____ _____    ______ ____
ROOT
ATOM      1  P   UNL     1       2.329  -2.436  -2.559  0.00  0.00    +0.388 P 
ATOM      2  O   UNL     1       3.568  -3.153  -2.184  0.00  0.00    -0.255 OA
ENDROOT
BRANCH   1   3
ATOM      3  N   UNL     1       1.117  -2.871  -1.544  0.00  0.00    +0.570 NA
BRANCH   3   4
ATOM      4  S   UNL     1       1.176  -4.329  -0.760  0.00  0.00    -0.039 S 
ATOM      5  O   UNL     1       1.542  -5.298  -1.732  0.00  0.00    -0.190 OA
ATOM      6  O   UNL     1      -0.019  -4.428   0.003  0.00  0.00    -0.190 OA
BRANCH   4   9
ATOM      7  C   UNL     1       3.352  -3.604   2.539  0.00  0.00    +0.034 A 
ATOM      8  C   UNL     1       2.309  -3.668   1.634  0.00  0.00    +0.027 A 
ATOM      9  C   UNL     1       2.505  -4.246   0.394  0.00  0.00    +0.067 A 
ATOM     10  C   UNL     1       3.744  -4.759   0.058  0.00  0.00    +0.027 A 
ATOM     11  C   UNL     1       4.787  -4.694   0.963  0.00  0.00    +0.034 A 
ATOM     12  C   UNL     1       4.590  -4.118   2.204  0.00  0.00    +0.126 A 
BRANCH  12  13
ATOM     13  N   UNL     1       5.707  -4.049   3.173  0.00  0.00    +0.056 N 
ATOM     14  O   UNL     1       5.534  -3.539   4.266  0.00  0.00    -0.126 OA
ATOM     15  O   UNL     1       6.799  -4.501   2.878  0.00  0.00    -0.126 OA
ENDBRANCH  12  13
ENDBRANCH   4   9
ENDBRANCH   3   4
ENDBRANCH   1   3
BRANCH   1  16
ATOM     16  O   UNL     1       1.926  -2.817  -4.071  0.00  0.00    -0.430 OA
BRANCH  16  17
ATOM     17  C   UNL     1       1.906  -4.153  -4.318  0.00  0.00    +0.129 A 
ATOM     18  C   UNL     1       3.051  -4.793  -4.769  0.00  0.00    +0.047 A 
ATOM     19  C   UNL     1       3.030  -6.152  -5.015  0.00  0.00    +0.023 A 
ATOM     20  C   UNL     1       1.865  -6.873  -4.822  0.00  0.00    +0.041 A 
ATOM     21  C   UNL     1       0.720  -6.236  -4.377  0.00  0.00    +0.023 A 
ATOM     22  C   UNL     1       0.739  -4.878  -4.125  0.00  0.00    +0.047 A 
ATOM     23 CL   UNL     1       1.840  -8.580  -5.138  0.00  0.00    -0.084 Cl
ENDBRANCH  16  17
ENDBRANCH   1  16
BRANCH   1  24
ATOM     24  O   UNL     1       2.574  -0.849  -2.453  0.00  0.00    -0.430 OA
BRANCH  24  25
ATOM     25  C   UNL     1       3.157  -0.456  -1.289  0.00  0.00    +0.129 A 
ATOM     26  C   UNL     1       2.375  -0.211  -0.170  0.00  0.00    +0.047 A 
ATOM     27  C   UNL     1       2.969   0.183   1.014  0.00  0.00    +0.023 A 
ATOM     28  C   UNL     1       4.342   0.344   1.080  0.00  0.00    +0.041 A 
ATOM     29  C   UNL     1       5.123   0.105  -0.037  0.00  0.00    +0.023 A 
ATOM     30  C   UNL     1       4.533  -0.295  -1.221  0.00  0.00    +0.047 A 
ATOM     31 CL   UNL     1       5.086   0.845   2.566  0.00  0.00    -0.084 Cl
ENDBRANCH  24  25
ENDBRANCH   1  24
TORSDOF 8
