REMARK  Name = ZINC24986830
REMARK  10 active torsions:
REMARK  status: ('A' for Active; 'I' for Inactive)
REMARK    1  A    between atoms: C_1  and  S_2
REMARK    2  A    between atoms: S_2  and  C_3
REMARK    3  A    between atoms: C_3  and  C_4
REMARK    4  A    between atoms: C_4  and  C_5
REMARK    5  A    between atoms: C_5  and  C_7
REMARK    6  A    between atoms: C_5  and  N_24
REMARK    7  A    between atoms: C_25  and  C_27
REMARK    8  A    between atoms: C_27  and  C_28
REMARK    9  A    between atoms: C_28  and  C_29
REMARK   10  A    between atoms: C_29  and  C_30
REMARK                            x       y       z     vdW  Elec       q    Type
REMARK                         _______ _______ _______ _____ _____    ______ ____
ROOT
ATOM      1  C   UNL     1       1.792  -3.795  -3.096  0.00  0.00    +0.236 C 
ATOM      2  O   UNL     1       2.782  -4.380  -2.710  0.00  0.00    -0.274 OA
ATOM      3  N   UNL     1       0.770  -4.487  -3.640  0.00  0.00    -0.300 N 
ATOM      4  C   UNL     1      -0.388  -3.786  -4.211  0.00  0.00    +0.110 C 
ATOM      5  C   UNL     1      -1.664  -4.337  -3.567  0.00  0.00    +0.047 C 
ATOM      6  C   UNL     1      -1.700  -5.856  -3.734  0.00  0.00    +0.064 C 
ATOM      7  C   UNL     1      -0.495  -6.484  -3.034  0.00  0.00    +0.047 C 
ATOM      8  C   UNL     1       0.797  -5.955  -3.677  0.00  0.00    +0.110 C 
ATOM      9  C   UNL     1      -2.974  -6.401  -3.140  0.00  0.00    +0.057 A 
ATOM     10  C   UNL     1      -4.034  -6.788  -3.887  0.00  0.00    +0.039 A 
ATOM     11  N   UNL     1      -4.992  -7.223  -3.028  0.00  0.00    -0.349 N 
ATOM     12  H   UNL     1      -5.868  -7.565  -3.266  0.00  0.00    +0.166 HD
ATOM     13  C   UNL     1      -4.492  -7.089  -1.777  0.00  0.00    +0.171 A 
ATOM     14  N   UNL     1      -3.283  -6.596  -1.857  0.00  0.00    -0.348 N 
ATOM     15  C   UNL     1      -4.061  -6.713  -5.392  0.00  0.00    +0.070 C 
ATOM     16  C   UNL     1      -2.915  -5.795  -5.840  0.00  0.00    +0.088 C 
ATOM     17  N   UNL     1      -1.671  -6.195  -5.166  0.00  0.00    -0.305 NA
ATOM     18  H   UNL     1      -0.867  -5.785  -5.618  0.00  0.00    +0.123 HD
ATOM     19  H   UNL     1      -2.703  -6.402  -1.104  0.00  0.00    +0.166 HD
ENDROOT
BRANCH   1  20
ATOM     20  C   UNL     1       1.703  -2.296  -2.969  0.00  0.00    +0.160 C 
BRANCH  20  21
ATOM     21  N   UNL     1       3.054  -1.731  -2.904  0.00  0.00    -0.304 N 
ATOM     22  C   UNL     1       3.271  -0.458  -3.287  0.00  0.00    +0.214 C 
ATOM     23  O   UNL     1       2.348   0.221  -3.686  0.00  0.00    -0.276 OA
ATOM     24  H   UNL     1       3.791  -2.274  -2.584  0.00  0.00    +0.149 HD
BRANCH  22  25
ATOM     25  C   UNL     1       4.659   0.123  -3.219  0.00  0.00    +0.096 C 
BRANCH  25  26
ATOM     26  C   UNL     1       4.630   1.573  -3.707  0.00  0.00    +0.014 C 
BRANCH  26  27
ATOM     27  C   UNL     1       6.040   2.163  -3.639  0.00  0.00    +0.035 C 
BRANCH  27  28
ATOM     28  C   UNL     1       6.011   3.591  -4.120  0.00  0.00    -0.047 A 
ATOM     29  C   UNL     1       6.202   3.873  -5.459  0.00  0.00    +0.003 A 
ATOM     30  C   UNL     1       6.175   5.183  -5.900  0.00  0.00    +0.000 A 
ATOM     31  C   UNL     1       5.957   6.211  -5.002  0.00  0.00    +0.000 A 
ATOM     32  C   UNL     1       5.765   5.928  -3.662  0.00  0.00    +0.000 A 
ATOM     33  C   UNL     1       5.788   4.618  -3.222  0.00  0.00    +0.003 A 
ENDBRANCH  27  28
ENDBRANCH  26  27
ENDBRANCH  25  26
ENDBRANCH  22  25
ENDBRANCH  20  21
BRANCH  20  34
ATOM     34  C   UNL     1       0.938  -1.937  -1.694  0.00  0.00    +0.042 C 
BRANCH  34  35
ATOM     35  C   UNL     1       0.717  -0.424  -1.641  0.00  0.00    +0.071 C 
BRANCH  35  37
ATOM     36  C   UNL     1      -0.368   1.805  -0.218  0.00  0.00    +0.084 C 
ATOM     37  S   UNL     1      -0.191   0.002  -0.129  0.00  0.00    -0.164 S 
ENDBRANCH  35  37
ENDBRANCH  34  35
ENDBRANCH  20  34
ENDBRANCH   1  20
TORSDOF 9
