REMARK  Name = ZINC04847811
REMARK  7 active torsions:
REMARK  status: ('A' for Active; 'I' for Inactive)
REMARK    1  A    between atoms: C_1  and  O_2
REMARK    2  A    between atoms: O_2  and  C_3
REMARK    3  A    between atoms: C_5  and  C_10
REMARK    4  A    between atoms: C_8  and  O_9
REMARK    5  A    between atoms: C_10  and  C_12
REMARK    6  A    between atoms: C_10  and  N_60
REMARK    7  A    between atoms: N_16  and  C_17
REMARK                            x       y       z     vdW  Elec       q    Type
REMARK                         _______ _______ _______ _____ _____    ______ ____
ROOT
ATOM      1  C   UNL     1       2.489   1.043  -0.016  0.00  0.00    +0.034 C 
ENDROOT
BRANCH   1  11
ATOM      2  C   UNL     1       2.303   0.129  -2.252  0.00  0.00    -0.072 C 
ATOM      3  C   UNL     1       2.530  -1.164  -3.037  0.00  0.00    +0.017 C 
ATOM      4  C   UNL     1       1.607  -2.242  -2.530  0.00  0.00    -0.048 A 
ATOM      5  C   UNL     1       1.402  -3.362  -3.320  0.00  0.00    +0.004 A 
ATOM      6  C   UNL     1       0.571  -4.377  -2.890  0.00  0.00    +0.000 A 
ATOM      7  C   UNL     1      -0.060  -4.275  -1.664  0.00  0.00    +0.000 A 
ATOM      8  C   UNL     1       0.141  -3.159  -0.878  0.00  0.00    +0.002 A 
ATOM      9  C   UNL     1       0.975  -2.138  -1.309  0.00  0.00    -0.061 A 
ATOM     10  C   UNL     1       1.160  -0.938  -0.418  0.00  0.00    -0.041 C 
ATOM     11  N   UNL     1       2.370  -0.198  -0.814  0.00  0.00    +0.392 N 
ATOM     12  H   UNL     1       3.194  -0.786  -0.642  0.00  0.00    -0.080 HD
ENDBRANCH   1  11
BRANCH   1  15
ATOM     13  C   UNL     1      -0.145   3.625  -0.832  0.00  0.00    +0.161 A 
ATOM     14  C   UNL     1       1.052   2.927  -0.819  0.00  0.00    +0.051 A 
ATOM     15  C   UNL     1       1.187   1.800  -0.029  0.00  0.00    -0.050 A 
ATOM     16  C   UNL     1       0.128   1.366   0.747  0.00  0.00    +0.006 A 
ATOM     17  C   UNL     1      -1.071   2.054   0.734  0.00  0.00    +0.049 A 
ATOM     18  C   UNL     1      -1.210   3.188  -0.051  0.00  0.00    +0.158 A 
BRANCH  13  20
ATOM     19  C   UNL     1       0.857   5.124  -2.384  0.00  0.00    +0.277 C 
ATOM     20  O   UNL     1      -0.279   4.734  -1.608  0.00  0.00    -0.491 OA
ENDBRANCH  13  20
BRANCH  18  21
ATOM     21  O   UNL     1      -2.387   3.869  -0.061  0.00  0.00    -0.503 OA
ATOM     22  H   UNL     1      -3.012   3.564  -0.733  0.00  0.00    +0.292 HD
ENDBRANCH  18  21
ENDBRANCH   1  15
BRANCH   1  23
ATOM     23  C   UNL     1       2.844   0.679   1.403  0.00  0.00    +0.143 A 
ATOM     24  N   UNL     1       2.295  -0.262   2.131  0.00  0.00    -0.115 NA
ATOM     25  N   UNL     1       2.870  -0.261   3.284  0.00  0.00    -0.023 NA
ATOM     26  N   UNL     1       3.773   0.656   3.310  0.00  0.00    -0.044 NA
ATOM     27  N   UNL     1       3.791   1.255   2.167  0.00  0.00    -0.227 N 
BRANCH  27  28
ATOM     28  C   UNL     1       4.674   2.357   1.776  0.00  0.00    +0.111 C 
ATOM     29  C   UNL     1       6.131   1.900   1.870  0.00  0.00    +0.027 C 
ATOM     30  C   UNL     1       7.053   3.051   1.461  0.00  0.00    +0.002 C 
ATOM     31  C   UNL     1       6.830   4.240   2.397  0.00  0.00    +0.000 C 
ATOM     32  C   UNL     1       5.373   4.697   2.304  0.00  0.00    +0.002 C 
ATOM     33  C   UNL     1       4.451   3.546   2.712  0.00  0.00    +0.027 C 
ENDBRANCH  27  28
ENDBRANCH   1  23
TORSDOF 6
