REMARK  Name = ZINC06533347
REMARK  6 active torsions:
REMARK  status: ('A' for Active; 'I' for Inactive)
REMARK    1  A    between atoms: C_1  and  C_2
REMARK    2  A    between atoms: C_2  and  C_4
REMARK    3  A    between atoms: C_2  and  S_13
REMARK    4  A    between atoms: C_4  and  C_6
REMARK    5  A    between atoms: S_13  and  C_14
REMARK    6  A    between atoms: C_18  and  N_20
REMARK                            x       y       z     vdW  Elec       q    Type
REMARK                         _______ _______ _______ _____ _____    ______ ____
ROOT
ATOM      1  S   UNL     1      -1.543  -0.625  -0.708  0.00  0.00    -0.075 S 
ENDROOT
BRANCH   1   2
ATOM      2  C   UNL     1      -1.195  -2.352  -0.736  0.00  0.00    +0.192 A 
ATOM      3  N   UNL     1      -0.022  -2.781  -0.293  0.00  0.00    -0.207 NA
ATOM      4  C   UNL     1       0.273  -4.079  -0.294  0.00  0.00    +0.122 A 
ATOM      5  C   UNL     1      -0.664  -4.986  -0.779  0.00  0.00    +0.086 A 
ATOM      6  C   UNL     1      -1.883  -4.498  -1.240  0.00  0.00    +0.122 A 
ATOM      7  N   UNL     1      -2.111  -3.187  -1.204  0.00  0.00    -0.207 NA
ATOM      8  N   UNL     1       1.501  -4.520   0.175  0.00  0.00    -0.343 N 
ATOM      9  H   UNL     1       1.711  -5.467   0.167  0.00  0.00    +0.144 HD
ATOM     10  H   UNL     1       2.149  -3.882   0.511  0.00  0.00    +0.144 HD
BRANCH   6  11
ATOM     11  N   UNL     1      -2.847  -5.365  -1.731  0.00  0.00    -0.343 N 
ATOM     12  H   UNL     1      -3.694  -5.017  -2.050  0.00  0.00    +0.144 HD
ATOM     13  H   UNL     1      -2.674  -6.319  -1.754  0.00  0.00    +0.144 HD
ENDBRANCH   6  11
ENDBRANCH   1   2
BRANCH   1  15
ATOM     14  C   UNL     1       0.148  -0.520   1.435  0.00  0.00    +0.028 C 
ATOM     15  C   UNL     1       0.002  -0.004   0.002  0.00  0.00    +0.122 C 
BRANCH  15  16
ATOM     16  C   UNL     1      -0.018   1.503   0.010  0.00  0.00    +0.176 C 
ATOM     17  O   UNL     1      -1.077   2.095   0.018  0.00  0.00    -0.291 OA
BRANCH  16  18
ATOM     18  C   UNL     1       1.245   2.255   0.002  0.00  0.00    +0.019 A 
ATOM     19  C   UNL     1       2.468   1.575  -0.007  0.00  0.00    +0.014 A 
ATOM     20  C   UNL     1       3.647   2.286  -0.021  0.00  0.00    +0.039 A 
ATOM     21  C   UNL     1       3.625   3.673  -0.012  0.00  0.00    +0.123 A 
ATOM     22  C   UNL     1       2.416   4.353   0.003  0.00  0.00    +0.039 A 
ATOM     23  C   UNL     1       1.229   3.654   0.010  0.00  0.00    +0.014 A 
ATOM     24  F   UNL     1       4.786   4.364  -0.020  0.00  0.00    -0.205 F 
ENDBRANCH  16  18
ENDBRANCH  15  16
ENDBRANCH   1  15
TORSDOF 5
