REMARK  Name = ZINC61655566
REMARK  7 active torsions:
REMARK  status: ('A' for Active; 'I' for Inactive)
REMARK    1  A    between atoms: C_1  and  C_2
REMARK    2  A    between atoms: C_2  and  C_3
REMARK    3  A    between atoms: C_4  and  C_18
REMARK    4  A    between atoms: C_12  and  C_14
REMARK    5  A    between atoms: C_14  and  N_15
REMARK    6  A    between atoms: N_15  and  C_16
REMARK    7  A    between atoms: N_15  and  C_17
REMARK                            x       y       z     vdW  Elec       q    Type
REMARK                         _______ _______ _______ _____ _____    ______ ____
ROOT
ATOM      1  C   UNL     1      -1.538  -0.747   0.538  0.00  0.00    +0.064 A 
ATOM      2  C   UNL     1      -2.452  -0.846   1.583  0.00  0.00    +0.125 A 
ATOM      3  S   UNL     1      -3.901  -1.401   0.699  0.00  0.00    -0.045 S 
ATOM      4  C   UNL     1      -3.230  -1.449  -0.843  0.00  0.00    +0.162 A 
ATOM      5  N   UNL     1      -1.982  -1.054  -0.652  0.00  0.00    -0.229 NA
ATOM      6  N   UNL     1      -3.838  -1.808  -2.026  0.00  0.00    -0.308 N 
ATOM      7  C   UNL     1      -3.231  -1.716  -3.366  0.00  0.00    +0.107 C 
ATOM      8  C   UNL     1      -4.433  -1.624  -4.340  0.00  0.00    +0.021 C 
ATOM      9  C   UNL     1      -5.454  -2.577  -3.665  0.00  0.00    +0.022 C 
ATOM     10  C   UNL     1      -5.197  -2.353  -2.159  0.00  0.00    +0.059 C 
ENDROOT
BRANCH   2  11
ATOM     11  C   UNL     1      -2.281  -0.582   2.960  0.00  0.00    +0.395 C 
ATOM     12  O   UNL     1      -1.193  -0.204   3.381  0.00  0.00    -0.240 OA
ATOM     13  O   UNL     1      -3.219  -0.731   3.734  0.00  0.00    -0.240 OA
ENDBRANCH   2  11
BRANCH   1  15
ATOM     14  C   UNL     1      -0.030   1.220   0.635  0.00  0.00    +0.010 C 
ATOM     15  C   UNL     1      -0.116  -0.302   0.766  0.00  0.00    +0.053 C 
ENDBRANCH   1  15
BRANCH  10  16
ATOM     16  C   UNL     1      -5.301  -3.682  -1.408  0.00  0.00    -0.057 C 
BRANCH  16  17
ATOM     17  N   UNL     1      -6.707  -4.104  -1.352  0.00  0.00    +0.377 N 
ATOM     18  C   UNL     1      -7.170  -4.444  -2.704  0.00  0.00    -0.097 C 
ATOM     19  C   UNL     1      -6.830  -5.282  -0.482  0.00  0.00    -0.097 C 
ATOM     20  H   UNL     1      -7.269  -3.353  -0.983  0.00  0.00    -0.083 HD
ENDBRANCH  16  17
ENDBRANCH  10  16
TORSDOF 4
