REMARK  Name = ZINC37518918
REMARK  6 active torsions:
REMARK  status: ('A' for Active; 'I' for Inactive)
REMARK    1  A    between atoms: C_1  and  C_2
REMARK    2  A    between atoms: C_2  and  C_4
REMARK    3  A    between atoms: C_2  and  N_11
REMARK    4  A    between atoms: N_9  and  C_10
REMARK    5  A    between atoms: N_11  and  C_12
REMARK    6  A    between atoms: C_17  and  C_18
REMARK                            x       y       z     vdW  Elec       q    Type
REMARK                         _______ _______ _______ _____ _____    ______ ____
ROOT
ATOM      1  N   UNL     1      -1.372  -0.511   0.012  0.00  0.00    -0.333 N 
ATOM      2  H   UNL     1      -1.794  -0.752   0.852  0.00  0.00    +0.147 HD
ENDROOT
BRANCH   1   3
ATOM      3  C   UNL     1      -2.076  -0.647  -1.187  0.00  0.00    +0.039 A 
ATOM      4  C   UNL     1      -1.471  -0.308  -2.391  0.00  0.00    +0.024 A 
ATOM      5  C   UNL     1      -2.169  -0.444  -3.575  0.00  0.00    +0.017 A 
ATOM      6  C   UNL     1      -3.469  -0.919  -3.563  0.00  0.00    +0.019 A 
ATOM      7  C   UNL     1      -4.073  -1.257  -2.366  0.00  0.00    +0.029 A 
ATOM      8  C   UNL     1      -3.379  -1.128  -1.179  0.00  0.00    +0.077 A 
ATOM      9 BR   UNL     1      -4.421  -1.103  -5.186  0.00  0.00    -0.050 Br
BRANCH   8  10
ATOM     10  C   UNL     1      -4.036  -1.503   0.124  0.00  0.00    +0.419 C 
ATOM     11  F   UNL     1      -5.336  -1.957  -0.123  0.00  0.00    -0.166 F 
ATOM     12  F   UNL     1      -3.298  -2.518   0.744  0.00  0.00    -0.166 F 
ATOM     13  F   UNL     1      -4.084  -0.384   0.962  0.00  0.00    -0.166 F 
ENDBRANCH   8  10
ENDBRANCH   1   3
BRANCH   1  15
ATOM     14  C   UNL     1      -0.019   1.526   0.010  0.00  0.00    +0.038 C 
ATOM     15  C   UNL     1       0.002  -0.004   0.002  0.00  0.00    +0.154 C 
BRANCH  15  16
ATOM     16  C   UNL     1       0.731  -0.503   1.223  0.00  0.00    +0.240 C 
ATOM     17  O   UNL     1       0.159  -1.212   2.023  0.00  0.00    -0.273 OA
ATOM     18  N   UNL     1       2.019  -0.161   1.426  0.00  0.00    -0.239 N 
ATOM     19  C   UNL     1       2.671  -0.608   2.518  0.00  0.00    +0.306 C 
ATOM     20  O   UNL     1       2.097  -1.319   3.319  0.00  0.00    -0.252 OA
ATOM     21  N   UNL     1       3.958  -0.266   2.720  0.00  0.00    -0.302 N 
ATOM     22  C   UNL     1       4.667  -0.751   3.907  0.00  0.00    +0.129 C 
ATOM     23  H   UNL     1       2.476   0.406   0.786  0.00  0.00    +0.159 HD
ATOM     24  H   UNL     1       4.416   0.302   2.081  0.00  0.00    +0.150 HD
ENDBRANCH  15  16
ENDBRANCH   1  15
TORSDOF 4
