REMARK  Name = ZINC67284408
REMARK  6 active torsions:
REMARK  status: ('A' for Active; 'I' for Inactive)
REMARK    1  A    between atoms: C_1  and  N_2
REMARK    2  A    between atoms: N_2  and  C_3
REMARK    3  A    between atoms: C_3  and  C_4
REMARK    4  A    between atoms: N_6  and  C_7
REMARK    5  A    between atoms: N_17  and  C_18
REMARK    6  A    between atoms: C_22  and  C_24
REMARK                            x       y       z     vdW  Elec       q    Type
REMARK                         _______ _______ _______ _____ _____    ______ ____
ROOT
ATOM      1  C   UNL     1       0.006   1.521   0.062  0.00  0.00    +0.134 C 
ATOM      2  N   UNL     1       0.208   0.071   0.038  0.00  0.00    -0.280 N 
ATOM      3  C   UNL     1       0.248  -0.585  -1.139  0.00  0.00    +0.307 C 
ATOM      4  O   UNL     1       0.416  -1.789  -1.159  0.00  0.00    -0.252 OA
ATOM      5  N   UNL     1       0.102   0.094  -2.294  0.00  0.00    -0.269 N 
ATOM      6  H   UNL     1       0.043   1.063  -2.283  0.00  0.00    +0.156 HD
ENDROOT
BRANCH   5   7
ATOM      7  C   UNL     1       0.035  -0.597  -3.509  0.00  0.00    +0.035 A 
ATOM      8  C   UNL     1      -0.561  -1.850  -3.564  0.00  0.00    +0.023 A 
ATOM      9  C   UNL     1      -0.626  -2.530  -4.764  0.00  0.00    +0.002 A 
ATOM     10  C   UNL     1      -0.099  -1.964  -5.911  0.00  0.00    +0.009 A 
ATOM     11  C   UNL     1       0.495  -0.717  -5.859  0.00  0.00    +0.019 A 
ATOM     12  C   UNL     1       0.558  -0.029  -4.662  0.00  0.00    +0.032 A 
BRANCH  11  13
ATOM     13  C   UNL     1       1.070  -0.104  -7.110  0.00  0.00    +0.372 C 
ATOM     14  F   UNL     1       0.350  -0.554  -8.222  0.00  0.00    -0.204 F 
ATOM     15  F   UNL     1       0.981   1.290  -7.030  0.00  0.00    -0.204 F 
ENDBRANCH  11  13
ENDBRANCH   5   7
BRANCH   2  16
ATOM     16  C   UNL     1       0.367  -0.668   1.293  0.00  0.00    +0.205 C 
BRANCH  16  17
ATOM     17  C   UNL     1      -0.985  -1.118   1.786  0.00  0.00    +0.235 C 
ATOM     18  O   UNL     1      -1.982  -0.848   1.151  0.00  0.00    -0.274 OA
ATOM     19  N   UNL     1      -1.085  -1.820   2.932  0.00  0.00    -0.284 N 
ATOM     20  H   UNL     1      -0.283  -2.093   3.405  0.00  0.00    +0.155 HD
BRANCH  19  21
ATOM     21  C   UNL     1      -2.345  -2.154   3.440  0.00  0.00    +0.039 A 
ATOM     22  C   UNL     1      -2.560  -2.170   4.811  0.00  0.00    +0.061 A 
ATOM     23  C   UNL     1      -3.806  -2.501   5.312  0.00  0.00    +0.128 A 
ATOM     24  C   UNL     1      -4.839  -2.817   4.445  0.00  0.00    +0.076 A 
ATOM     25  C   UNL     1      -4.627  -2.801   3.077  0.00  0.00    +0.128 A 
ATOM     26  C   UNL     1      -3.384  -2.465   2.573  0.00  0.00    +0.061 A 
ATOM     27  F   UNL     1      -5.637  -3.111   2.234  0.00  0.00    -0.205 F 
ATOM     28  F   UNL     1      -4.016  -2.516   6.646  0.00  0.00    -0.205 F 
ENDBRANCH  19  21
ENDBRANCH  16  17
ENDBRANCH   2  16
TORSDOF 5
