REMARK  Name = ZINC52094455
REMARK  5 active torsions:
REMARK  status: ('A' for Active; 'I' for Inactive)
REMARK    1  A    between atoms: C_1  and  C_2
REMARK    2  A    between atoms: C_6  and  C_7
REMARK    3  A    between atoms: C_7  and  C_9
REMARK    4  A    between atoms: C_7  and  N_22
REMARK    5  A    between atoms: N_22  and  C_23
REMARK                            x       y       z     vdW  Elec       q    Type
REMARK                         _______ _______ _______ _____ _____    ______ ____
ROOT
ATOM      1  C   UNL     1      -1.089  -0.891   3.252  0.00  0.00    -0.038 A 
ATOM      2  C   UNL     1      -1.119  -1.999   4.075  0.00  0.00    +0.031 A 
ATOM      3  C   UNL     1      -2.295  -2.350   4.719  0.00  0.00    +0.067 A 
ATOM      4  C   UNL     1      -3.446  -1.581   4.533  0.00  0.00    +0.068 A 
ATOM      5  C   UNL     1      -3.408  -0.470   3.705  0.00  0.00    +0.043 A 
ATOM      6  C   UNL     1      -2.229  -0.125   3.071  0.00  0.00    +0.022 A 
ATOM      7 BR   UNL     1      -2.174   1.395   1.948  0.00  0.00    -0.050 Br
ATOM      8  N   UNL     1      -4.452  -2.171   5.296  0.00  0.00    -0.306 N 
ATOM      9  H   UNL     1      -5.367  -1.858   5.367  0.00  0.00    +0.170 HD
ATOM     10  C   UNL     1      -3.936  -3.248   5.917  0.00  0.00    +0.325 A 
ATOM     11  O   UNL     1      -4.551  -3.988   6.662  0.00  0.00    -0.247 OA
ATOM     12  N   UNL     1      -2.637  -3.383   5.590  0.00  0.00    -0.306 N 
ATOM     13  H   UNL     1      -2.041  -4.080   5.905  0.00  0.00    +0.170 HD
ENDROOT
BRANCH   1  14
ATOM     14  C   UNL     1       0.190  -0.509   2.552  0.00  0.00    +0.028 C 
BRANCH  14  20
ATOM     15  C   UNL     1       0.545   1.162  -0.064  0.00  0.00    +0.047 C 
ATOM     16  C   UNL     1       0.326  -0.327   0.022  0.00  0.00    -0.011 A 
ATOM     17  C   UNL     1       0.249  -1.231  -1.062  0.00  0.00    +0.044 A 
ATOM     18  C   UNL     1       0.048  -2.453  -0.536  0.00  0.00    +0.195 A 
ATOM     19  O   UNL     1       0.000  -2.337   0.801  0.00  0.00    -0.469 OA
ATOM     20  C   UNL     1       0.173  -1.051   1.145  0.00  0.00    +0.098 A 
ENDBRANCH  14  20
BRANCH  14  21
ATOM     21  N   UNL     1       1.333  -1.074   3.280  0.00  0.00    +0.387 N 
ATOM     22  C   UNL     1       2.584  -0.604   2.668  0.00  0.00    -0.099 C 
ATOM     23  H   UNL     1       1.298  -0.777   4.244  0.00  0.00    -0.085 HD
ATOM     24  H   UNL     1       1.296  -2.081   3.237  0.00  0.00    -0.085 HD
ENDBRANCH  14  21
ENDBRANCH   1  14
TORSDOF 3
