REMARK  Name = ZINC20618101
REMARK  10 active torsions:
REMARK  status: ('A' for Active; 'I' for Inactive)
REMARK    1  A    between atoms: C_1  and  C_2
REMARK    2  A    between atoms: C_2  and  C_3
REMARK    3  A    between atoms: C_2  and  N_4
REMARK    4  A    between atoms: N_4  and  C_5
REMARK    5  A    between atoms: N_4  and  C_30
REMARK    6  A    between atoms: C_5  and  C_6
REMARK    7  A    between atoms: C_6  and  C_7
REMARK    8  A    between atoms: C_7  and  N_8
REMARK    9  A    between atoms: C_9  and  C_11
REMARK   10  A    between atoms: C_14  and  N_17
REMARK                            x       y       z     vdW  Elec       q    Type
REMARK                         _______ _______ _______ _____ _____    ______ ____
ROOT
ATOM      1  N   UNL     1       4.112   1.561   1.557  0.00  0.00    -0.311 N 
ATOM      2  C   UNL     1       5.395   1.974   1.554  0.00  0.00    +0.244 C 
ATOM      3  O   UNL     1       5.815   2.645   0.631  0.00  0.00    -0.270 OA
ATOM      4  H   UNL     1       3.731   0.953   2.391  0.00  0.00    +0.149 HD
ENDROOT
BRANCH   2   5
ATOM      5  C   UNL     1       6.289   1.610   2.669  0.00  0.00    +0.037 A 
ATOM      6  C   UNL     1       5.806   0.843   3.733  0.00  0.00    +0.015 A 
ATOM      7  C   UNL     1       6.644   0.501   4.770  0.00  0.00    +0.028 A 
ATOM      8  C   UNL     1       7.969   0.928   4.765  0.00  0.00    +0.067 A 
ATOM      9  C   UNL     1       8.452   1.697   3.710  0.00  0.00    +0.028 A 
ATOM     10  C   UNL     1       7.620   2.037   2.668  0.00  0.00    +0.015 A 
BRANCH   8  11
ATOM     11  N   UNL     1       8.814   0.585   5.818  0.00  0.00    -0.226 NA
ATOM     12  C   UNL     1       8.290   0.338   7.069  0.00  0.00    +0.155 C 
ATOM     13  N   UNL     1       7.007   0.326   7.421  0.00  0.00    -0.318 N 
ATOM     14  C   UNL     1       6.719   0.158   8.805  0.00  0.00    +0.108 C 
ATOM     15  C   UNL     1       5.363  -0.184   9.391  0.00  0.00    +0.189 C 
ATOM     16  S   UNL     1       5.846  -0.543  11.143  0.00  0.00    -0.028 S 
ATOM     17  O   UNL     1       5.461  -1.872  11.467  0.00  0.00    -0.174 OA
ATOM     18  O   UNL     1       5.422   0.531  11.971  0.00  0.00    -0.174 OA
ATOM     19  C   UNL     1       7.691  -0.475  10.960  0.00  0.00    +0.182 C 
ATOM     20  C   UNL     1       7.786  -0.791   9.463  0.00  0.00    +0.097 C 
ATOM     21  S   UNL     1       9.194  -0.033   8.580  0.00  0.00    -0.084 S 
ATOM     22  H   UNL     1       6.185   0.439   6.698  0.00  0.00    +0.148 HD
ENDBRANCH   8  11
ENDBRANCH   2   5
BRANCH   1  23
ATOM     23  C   UNL     1       3.224   1.921   0.449  0.00  0.00    +0.102 C 
BRANCH  23  24
ATOM     24  C   UNL     1       1.833   1.332   0.697  0.00  0.00    +0.000 C 
BRANCH  24  25
ATOM     25  C   UNL     1       0.906   1.709  -0.460  0.00  0.00    -0.077 C 
BRANCH  25  26
ATOM     26  N   UNL     1      -0.463   1.273  -0.152  0.00  0.00    +0.383 N 
ATOM     27  H   UNL     1      -0.722   1.654   0.846  0.00  0.00    -0.081 HD
BRANCH  26  28
ATOM     28  C   UNL     1      -1.422   1.833  -1.113  0.00  0.00    -0.068 C 
ATOM     29  C   UNL     1      -0.970   1.505  -2.537  0.00  0.00    -0.015 C 
ATOM     30  C   UNL     1      -1.969   2.089  -3.537  0.00  0.00    -0.002 C 
ATOM     31  C   UNL     1      -2.038   3.607  -3.362  0.00  0.00    -0.000 C 
ATOM     32  C   UNL     1      -2.491   3.936  -1.938  0.00  0.00    -0.002 C 
ATOM     33  C   UNL     1      -1.492   3.352  -0.937  0.00  0.00    -0.015 C 
ENDBRANCH  26  28
BRANCH  26  35
ATOM     34  C   UNL     1      -0.220  -0.687   1.296  0.00  0.00    -0.014 C 
ATOM     35  C   UNL     1      -0.552  -0.193  -0.114  0.00  0.00    -0.075 C 
ATOM     36  C   UNL     1      -1.971  -0.627  -0.485  0.00  0.00    -0.014 C 
ENDBRANCH  26  35
ENDBRANCH  25  26
ENDBRANCH  24  25
ENDBRANCH  23  24
ENDBRANCH   1  23
TORSDOF 8
