REMARK  Name = ZINC43226585
REMARK  7 active torsions:
REMARK  status: ('A' for Active; 'I' for Inactive)
REMARK    1  A    between atoms: C_1  and  C_2
REMARK    2  A    between atoms: C_2  and  C_3
REMARK    3  A    between atoms: C_3  and  C_4
REMARK    4  A    between atoms: C_4  and  C_6
REMARK    5  A    between atoms: C_4  and  N_21
REMARK    6  A    between atoms: C_8  and  C_11
REMARK    7  A    between atoms: N_13  and  C_14
REMARK                            x       y       z     vdW  Elec       q    Type
REMARK                         _______ _______ _______ _____ _____    ______ ____
ROOT
ATOM      1  C   UNL     1      -2.820  -2.586   0.139  0.00  0.00    +0.065 A 
ATOM      2  N   UNL     1      -3.386  -3.113   1.190  0.00  0.00    -0.241 NA
ATOM      3  C   UNL     1      -4.657  -3.515   1.092  0.00  0.00    +0.133 A 
ATOM      4  C   UNL     1      -5.255  -3.330  -0.126  0.00  0.00    +0.079 A 
ATOM      5  S   UNL     1      -4.028  -2.618  -1.026  0.00  0.00    -0.081 S 
ENDROOT
BRANCH   3   6
ATOM      6  C   UNL     1      -5.372  -4.121   2.228  0.00  0.00    +0.263 C 
ATOM      7  O   UNL     1      -6.529  -4.474   2.099  0.00  0.00    -0.268 OA
ATOM      8  N   UNL     1      -4.745  -4.285   3.410  0.00  0.00    -0.300 N 
ATOM      9  H   UNL     1      -3.823  -4.003   3.512  0.00  0.00    +0.150 HD
BRANCH   8  10
ATOM     10  C   UNL     1      -5.457  -4.888   4.539  0.00  0.00    +0.151 C 
ATOM     11  C   UNL     1      -4.846  -4.374   5.844  0.00  0.00    +0.042 C 
ATOM     12  C   UNL     1      -5.173  -5.401   6.954  0.00  0.00    +0.079 C 
ATOM     13  S   UNL     1      -5.255  -6.965   6.000  0.00  0.00    -0.086 S 
ATOM     14  C   UNL     1      -5.370  -6.391   4.429  0.00  0.00    +0.209 C 
ATOM     15  O   UNL     1      -5.381  -7.051   3.411  0.00  0.00    -0.283 OA
ENDBRANCH   8  10
ENDBRANCH   3   6
BRANCH   1  16
ATOM     16  C   UNL     1      -1.413  -2.063   0.004  0.00  0.00    -0.018 C 
BRANCH  16  17
ATOM     17  N   UNL     1      -0.833  -2.538  -1.259  0.00  0.00    +0.384 N 
ATOM     18  H   UNL     1      -0.819  -3.547  -1.264  0.00  0.00    -0.089 HD
ATOM     19  H   UNL     1      -1.390  -2.205  -2.031  0.00  0.00    -0.089 HD
ATOM     20  H   UNL     1       0.110  -2.189  -1.349  0.00  0.00    -0.089 HD
ENDBRANCH  16  17
BRANCH  16  21
ATOM     21  C   UNL     1      -1.433  -0.534   0.013  0.00  0.00    -0.010 C 
BRANCH  21  23
ATOM     22  C   UNL     1      -0.019   1.526   0.010  0.00  0.00    +0.004 C 
ATOM     23  C   UNL     1       0.002  -0.004   0.002  0.00  0.00    -0.005 C 
ENDBRANCH  21  23
ENDBRANCH  16  21
ENDBRANCH   1  16
TORSDOF 6
