REMARK  Name = ZINC36576411
REMARK  15 active torsions:
REMARK  status: ('A' for Active; 'I' for Inactive)
REMARK    1  A    between atoms: C_1  and  C_2
REMARK    2  A    between atoms: C_2  and  C_3
REMARK    3  A    between atoms: C_3  and  N_4
REMARK    4  A    between atoms: N_4  and  C_5
REMARK    5  A    between atoms: C_5  and  C_7
REMARK    6  A    between atoms: C_5  and  C_16
REMARK    7  A    between atoms: C_8  and  O_15
REMARK    8  A    between atoms: C_10  and  O_14
REMARK    9  A    between atoms: C_12  and  O_13
REMARK   10  A    between atoms: N_18  and  C_19
REMARK   11  A    between atoms: C_19  and  S_20
REMARK   12  A    between atoms: S_20  and  C_23
REMARK   13  A    between atoms: C_26  and  C_29
REMARK   14  A    between atoms: C_30  and  C_32
REMARK   15  A    between atoms: C_32  and  C_34
REMARK                            x       y       z     vdW  Elec       q    Type
REMARK                         _______ _______ _______ _____ _____    ______ ____
ROOT
ATOM      1  C   UNL     1       0.067  -1.326  -2.750  0.00  0.00    +0.199 C 
ENDROOT
BRANCH   1   2
ATOM      2  C   UNL     1      -0.946  -0.213  -2.665  0.00  0.00    +0.065 A 
ATOM      3  C   UNL     1      -0.545   1.063  -2.297  0.00  0.00    +0.129 A 
ATOM      4  C   UNL     1      -1.477   2.086  -2.219  0.00  0.00    +0.091 A 
ATOM      5  C   UNL     1      -2.810   1.834  -2.508  0.00  0.00    +0.124 A 
ATOM      6  C   UNL     1      -3.211   0.559  -2.876  0.00  0.00    +0.091 A 
ATOM      7  C   UNL     1      -2.278  -0.464  -2.959  0.00  0.00    +0.129 A 
BRANCH   7   8
ATOM      8  O   UNL     1      -2.669  -1.713  -3.324  0.00  0.00    -0.506 OA
ATOM      9  H   UNL     1      -2.932  -2.276  -2.582  0.00  0.00    +0.292 HD
ENDBRANCH   7   8
BRANCH   5  10
ATOM     10  O   UNL     1      -3.724   2.837  -2.430  0.00  0.00    -0.507 OA
ATOM     11  H   UNL     1      -3.842   3.327  -3.256  0.00  0.00    +0.292 HD
ENDBRANCH   5  10
BRANCH   3  12
ATOM     12  O   UNL     1       0.761   1.310  -2.014  0.00  0.00    -0.506 OA
ATOM     13  H   UNL     1       1.267   1.654  -2.763  0.00  0.00    +0.292 HD
ENDBRANCH   3  12
ENDBRANCH   1   2
BRANCH   1  14
ATOM     14  C   UNL     1       1.121  -0.969  -3.766  0.00  0.00    +0.240 C 
ATOM     15  O   UNL     1       2.252  -0.719  -3.405  0.00  0.00    -0.273 OA
ATOM     16  N   UNL     1       0.807  -0.927  -5.076  0.00  0.00    -0.294 N 
ATOM     17  H   UNL     1      -0.113  -1.046  -5.359  0.00  0.00    +0.150 HD
BRANCH  16  18
ATOM     18  C   UNL     1       1.856  -0.702  -6.074  0.00  0.00    +0.278 C 
BRANCH  18  19
ATOM     19  S   UNL     1       2.451  -2.299  -6.696  0.00  0.00    +0.013 S 
ATOM     20  O   UNL     1       3.423  -2.097  -7.713  0.00  0.00    -0.168 OA
ATOM     21  O   UNL     1       2.709  -3.181  -5.612  0.00  0.00    -0.168 OA
BRANCH  19  22
ATOM     22  C   UNL     1       1.068  -3.003  -7.530  0.00  0.00    +0.090 A 
ATOM     23  C   UNL     1       0.124  -3.721  -6.819  0.00  0.00    +0.027 A 
ATOM     24  C   UNL     1      -0.961  -4.274  -7.474  0.00  0.00    +0.005 A 
ATOM     25  C   UNL     1      -1.102  -4.108  -8.839  0.00  0.00    -0.050 A 
ATOM     26  C   UNL     1      -0.159  -3.390  -9.550  0.00  0.00    +0.005 A 
ATOM     27  C   UNL     1       0.924  -2.833  -8.894  0.00  0.00    +0.027 A 
ATOM     28  C   UNL     1      -2.284  -4.712  -9.553  0.00  0.00    +0.044 C 
ENDBRANCH  19  22
ENDBRANCH  18  19
ENDBRANCH  16  18
ENDBRANCH   1  14
BRANCH   1  29
ATOM     29  N   UNL     1       0.696  -1.515  -1.440  0.00  0.00    -0.282 N 
ATOM     30  C   UNL     1       1.692  -2.411  -1.294  0.00  0.00    +0.243 C 
ATOM     31  O   UNL     1       2.288  -2.491  -0.237  0.00  0.00    -0.270 OA
BRANCH  30  32
ATOM     32  C   UNL     1       2.059  -3.292  -2.414  0.00  0.00    +0.004 C 
ATOM     33  C   UNL     1       3.338  -3.572  -2.647  0.00  0.00    +0.017 C 
ATOM     34  C   UNL     1       0.986  -3.876  -3.296  0.00  0.00    +0.048 C 
ENDBRANCH  30  32
BRANCH  29  35
ATOM     35  C   UNL     1       0.241  -0.731  -0.289  0.00  0.00    +0.109 C 
BRANCH  35  37
ATOM     36  C   UNL     1      -1.164  -0.775   1.776  0.00  0.00    +0.005 C 
ATOM     37  C   UNL     1      -0.782  -1.542   0.509  0.00  0.00    +0.016 C 
ENDBRANCH  35  37
ENDBRANCH  29  35
ENDBRANCH   1  29
TORSDOF 12
