REMARK  Name = ZINC10153009
REMARK  5 active torsions:
REMARK  status: ('A' for Active; 'I' for Inactive)
REMARK    1  A    between atoms: C_1  and  C_2
REMARK    2  A    between atoms: C_5  and  N_9
REMARK    3  A    between atoms: C_10  and  C_12
REMARK    4  A    between atoms: C_21  and  C_22
REMARK    5  A    between atoms: C_21  and  C_23
REMARK                            x       y       z     vdW  Elec       q    Type
REMARK                         _______ _______ _______ _____ _____    ______ ____
ROOT
ATOM      1  C   UNL     1       4.856   1.715  -0.251  0.00  0.00    +0.191 C 
ATOM      2  C   UNL     1       5.099   0.847   0.997  0.00  0.00    +0.130 C 
ATOM      3  C   UNL     1       5.328   1.742   2.190  0.00  0.00    +0.222 C 
ATOM      4  O   UNL     1       4.815   1.471   3.255  0.00  0.00    -0.275 OA
ATOM      5  N   UNL     1       6.105   2.847   2.079  0.00  0.00    -0.257 N 
ATOM      6  C   UNL     1       6.552   3.196   0.818  0.00  0.00    +0.208 C 
ATOM      7  N   UNL     1       7.511   4.003   0.473  0.00  0.00    -0.201 NA
ATOM      8  C   UNL     1       7.608   4.060  -0.888  0.00  0.00    +0.137 C 
ATOM      9  C   UNL     1       8.484   4.791  -1.589  0.00  0.00    -0.035 C 
ATOM     10  C   UNL     1       9.489   5.656  -0.872  0.00  0.00    +0.042 C 
ATOM     11  C   UNL     1       8.467   4.748  -3.096  0.00  0.00    +0.042 C 
ATOM     12  N   UNL     1       6.623   3.215  -1.418  0.00  0.00    -0.245 N 
ATOM     13  N   UNL     1       5.966   2.672  -0.322  0.00  0.00    -0.210 N 
ATOM     14  H   UNL     1       6.340   3.376   2.858  0.00  0.00    +0.157 HD
ATOM     15  H   UNL     1       6.438   3.045  -2.355  0.00  0.00    +0.172 HD
ENDROOT
BRANCH   1  17
ATOM     16  N   UNL     1       2.395   1.763  -0.012  0.00  0.00    -0.283 N 
ATOM     17  C   UNL     1       3.548   2.452  -0.121  0.00  0.00    +0.240 C 
ATOM     18  O   UNL     1       3.533   3.665  -0.114  0.00  0.00    -0.273 OA
ATOM     19  H   UNL     1       2.412   0.795   0.048  0.00  0.00    +0.155 HD
BRANCH  16  24
ATOM     20  C   UNL     1      -2.559   4.528   0.096  0.00  0.00    +0.044 C 
ATOM     21  C   UNL     1      -1.244   3.793   0.067  0.00  0.00    -0.049 A 
ATOM     22  C   UNL     1      -0.126   4.357   0.653  0.00  0.00    +0.005 A 
ATOM     23  C   UNL     1       1.082   3.687   0.628  0.00  0.00    +0.025 A 
ATOM     24  C   UNL     1       1.172   2.445   0.015  0.00  0.00    +0.052 A 
ATOM     25  C   UNL     1       0.047   1.879  -0.572  0.00  0.00    +0.062 A 
ATOM     26  C   UNL     1      -1.157   2.558  -0.549  0.00  0.00    +0.025 A 
ATOM     27 CL   UNL     1       0.155   0.326  -1.341  0.00  0.00    -0.082 Cl
ENDBRANCH  16  24
ENDBRANCH   1  17
TORSDOF 2
