REMARK  Name = ZINC61887693
REMARK  5 active torsions:
REMARK  status: ('A' for Active; 'I' for Inactive)
REMARK    1  A    between atoms: C_3  and  C_16
REMARK    2  A    between atoms: C_5  and  N_8
REMARK    3  A    between atoms: C_9  and  C_11
REMARK    4  A    between atoms: C_11  and  C_12
REMARK    5  A    between atoms: N_17  and  O_18
REMARK                            x       y       z     vdW  Elec       q    Type
REMARK                         _______ _______ _______ _____ _____    ______ ____
ROOT
ATOM      1  C   UNL     1       0.004   1.670  -0.042  0.00  0.00    +0.003 C 
ATOM      2  C   UNL     1       1.506   2.039  -0.112  0.00  0.00    +0.013 C 
ATOM      3  C   UNL     1       2.106   0.877  -0.941  0.00  0.00    +0.076 C 
ATOM      4  C   UNL     1       1.335  -0.369  -0.459  0.00  0.00    +0.083 C 
ATOM      5  C   UNL     1      -0.002   0.135   0.113  0.00  0.00    +0.023 C 
ENDROOT
BRANCH   3   6
ATOM      6  C   UNL     1       3.579   0.732  -0.658  0.00  0.00    +0.136 C 
ATOM      7  N   UNL     1       4.389   0.397  -1.607  0.00  0.00    -0.076 NA
ATOM      8  N   UNL     1       4.061   0.955   0.613  0.00  0.00    -0.344 N 
ATOM      9  H   UNL     1       3.453   1.206   1.325  0.00  0.00    +0.144 HD
ATOM     10  H   UNL     1       5.009   0.862   0.795  0.00  0.00    +0.144 HD
BRANCH   7  11
ATOM     11  O   UNL     1       3.913   0.275  -2.935  0.00  0.00    -0.408 OA
ATOM     12  H   UNL     1       4.592   0.021  -3.574  0.00  0.00    +0.328 HD
ENDBRANCH   7  11
ENDBRANCH   3   6
BRANCH   4  13
ATOM     13  N   UNL     1       1.091  -1.275  -1.584  0.00  0.00    -0.312 N 
ATOM     14  C   UNL     1       0.907  -2.592  -1.362  0.00  0.00    +0.222 C 
ATOM     15  O   UNL     1       0.945  -3.027  -0.230  0.00  0.00    -0.275 OA
ATOM     16  H   UNL     1       1.061  -0.927  -2.489  0.00  0.00    +0.149 HD
BRANCH  14  17
ATOM     17  C   UNL     1       0.656  -3.523  -2.519  0.00  0.00    +0.208 C 
BRANCH  17  18
ATOM     18  C   UNL     1       0.483  -4.951  -1.997  0.00  0.00    +0.398 C 
ATOM     19  F   UNL     1      -0.603  -4.997  -1.117  0.00  0.00    -0.170 F 
ATOM     20  F   UNL     1       0.250  -5.816  -3.071  0.00  0.00    -0.170 F 
ATOM     21  F   UNL     1       1.645  -5.345  -1.325  0.00  0.00    -0.170 F 
ENDBRANCH  17  18
ENDBRANCH  14  17
ENDBRANCH   4  13
TORSDOF 5
