REMARK  Name = ZINC07053326
REMARK  6 active torsions:
REMARK  status: ('A' for Active; 'I' for Inactive)
REMARK    1  A    between atoms: C_1  and  C_2
REMARK    2  A    between atoms: C_5  and  N_22
REMARK    3  A    between atoms: C_7  and  N_8
REMARK    4  A    between atoms: N_8  and  S_9
REMARK    5  A    between atoms: S_9  and  C_12
REMARK    6  A    between atoms: C_15  and  C_18
REMARK                            x       y       z     vdW  Elec       q    Type
REMARK                         _______ _______ _______ _____ _____    ______ ____
ROOT
ATOM      1  S   UNL     1      -4.981  -0.299   0.740  0.00  0.00    +0.072 S 
ATOM      2  O   UNL     1      -6.290  -0.797   0.500  0.00  0.00    -0.150 OA
ATOM      3  O   UNL     1      -3.813  -1.000   0.335  0.00  0.00    -0.150 OA
ENDROOT
BRANCH   1   4
ATOM      4  C   UNL     1      -4.845  -0.058   2.480  0.00  0.00    +0.109 A 
ATOM      5  C   UNL     1      -3.602  -0.067   3.084  0.00  0.00    +0.029 A 
ATOM      6  C   UNL     1      -3.495   0.127   4.449  0.00  0.00    +0.014 A 
ATOM      7  C   UNL     1      -4.632   0.320   5.211  0.00  0.00    +0.055 A 
ATOM      8  C   UNL     1      -5.876   0.324   4.607  0.00  0.00    +0.014 A 
ATOM      9  C   UNL     1      -5.982   0.134   3.242  0.00  0.00    +0.029 A 
BRANCH   7  10
ATOM     10  C   UNL     1      -4.516   0.526   6.699  0.00  0.00    +0.417 C 
ATOM     11  F   UNL     1      -4.575  -0.712   7.348  0.00  0.00    -0.166 F 
ATOM     12  F   UNL     1      -3.296   1.147   6.990  0.00  0.00    -0.166 F 
ATOM     13  F   UNL     1      -5.568   1.335   7.141  0.00  0.00    -0.166 F 
ENDBRANCH   7  10
ENDBRANCH   1   4
BRANCH   1  14
ATOM     14  N   UNL     1      -4.905   1.196   0.031  0.00  0.00    -0.216 N 
ATOM     15  H   UNL     1      -5.649   1.518  -0.501  0.00  0.00    +0.174 HD
BRANCH  14  22
ATOM     16  C   UNL     1      -5.260   4.011   0.233  0.00  0.00    +0.046 C 
ATOM     17  C   UNL     1      -3.897   3.371   0.303  0.00  0.00    -0.028 A 
ATOM     18  C   UNL     1      -2.772   4.156   0.469  0.00  0.00    +0.007 A 
ATOM     19  C   UNL     1      -1.522   3.569   0.539  0.00  0.00    +0.033 A 
ATOM     20  C   UNL     1      -1.392   2.196   0.431  0.00  0.00    +0.128 A 
ATOM     21  C   UNL     1      -2.512   1.406   0.265  0.00  0.00    +0.057 A 
ATOM     22  C   UNL     1      -3.770   1.992   0.200  0.00  0.00    +0.053 A 
BRANCH  20  23
ATOM     23  N   UNL     1      -0.052   1.573   0.500  0.00  0.00    +0.056 N 
ATOM     24  O   UNL     1       0.063   0.364   0.411  0.00  0.00    -0.126 OA
ATOM     25  O   UNL     1       0.937   2.270   0.642  0.00  0.00    -0.126 OA
ENDBRANCH  20  23
ENDBRANCH  14  22
ENDBRANCH   1  14
TORSDOF 5
