REMARK  Name = ZINC06926319
REMARK  6 active torsions:
REMARK  status: ('A' for Active; 'I' for Inactive)
REMARK    1  A    between atoms: C_6  and  C_7
REMARK    2  A    between atoms: C_7  and  C_8
REMARK    3  A    between atoms: C_8  and  N_9
REMARK    4  A    between atoms: C_13  and  N_14
REMARK    5  A    between atoms: N_14  and  N_15
REMARK    6  A    between atoms: C_22  and  O_26
REMARK                            x       y       z     vdW  Elec       q    Type
REMARK                         _______ _______ _______ _____ _____    ______ ____
ROOT
ATOM      1  N   UNL     1       1.238  -4.154  -1.460  0.00  0.00    -0.220 N 
ATOM      2  C   UNL     1       2.421  -4.803  -1.477  0.00  0.00    +0.260 C 
ATOM      3  O   UNL     1       3.474  -4.191  -1.467  0.00  0.00    -0.269 OA
ATOM      4  C   UNL     1       2.398  -6.277  -1.502  0.00  0.00    +0.111 C 
ATOM      5  C   UNL     1       3.568  -7.020  -1.516  0.00  0.00    +0.102 C 
ATOM      6  C   UNL     1       1.079  -6.923  -1.518  0.00  0.00    +0.219 C 
ATOM      7  N   UNL     1       0.000  -6.156  -1.504  0.00  0.00    -0.127 NA
ATOM      8  C   UNL     1       0.078  -4.828  -1.476  0.00  0.00    +0.335 C 
ATOM      9  O   UNL     1      -0.960  -4.190  -1.465  0.00  0.00    -0.250 OA
ENDROOT
BRANCH   5  10
ATOM     10  N   UNL     1       4.758  -6.400  -1.626  0.00  0.00    -0.284 N 
ATOM     11  H   UNL     1       4.802  -5.431  -1.620  0.00  0.00    +0.166 HD
BRANCH  10  12
ATOM     12  N   UNL     1       5.903  -7.135  -1.745  0.00  0.00    -0.230 NA
ATOM     13  C   UNL     1       6.742  -7.011  -0.532  0.00  0.00    +0.105 C 
ATOM     14  C   UNL     1       8.124  -7.574  -0.718  0.00  0.00    +0.017 C 
ATOM     15  C   UNL     1       9.066  -6.429  -1.148  0.00  0.00    +0.001 C 
ATOM     16  C   UNL     1       8.923  -6.100  -2.562  0.00  0.00    +0.001 C 
ATOM     17  C   UNL     1       7.497  -5.622  -2.907  0.00  0.00    +0.017 C 
ATOM     18  C   UNL     1       6.602  -6.827  -3.012  0.00  0.00    +0.105 C 
ENDBRANCH  10  12
ENDBRANCH   5  10
BRANCH   6  19
ATOM     19  O   UNL     1       0.969  -8.267  -1.546  0.00  0.00    -0.493 OA
ATOM     20  H   UNL     1       0.057  -8.588  -1.554  0.00  0.00    +0.294 HD
ENDBRANCH   6  19
BRANCH   1  21
ATOM     21  C   UNL     1       1.219  -2.689  -1.431  0.00  0.00    +0.123 C 
BRANCH  21  22
ATOM     22  C   UNL     1       1.209  -2.209   0.022  0.00  0.00    +0.054 C 
BRANCH  22  28
ATOM     23  C   UNL     1      -0.016  -0.027   0.064  0.00  0.00    +0.006 A 
ATOM     24  C   UNL     1      -0.035   1.355   0.091  0.00  0.00    +0.038 A 
ATOM     25  C   UNL     1       1.155   2.062   0.109  0.00  0.00    +0.123 A 
ATOM     26  C   UNL     1       2.362   1.385   0.098  0.00  0.00    +0.038 A 
ATOM     27  C   UNL     1       2.379   0.004   0.070  0.00  0.00    +0.006 A 
ATOM     28  C   UNL     1       1.190  -0.702   0.052  0.00  0.00    -0.046 A 
ATOM     29  F   UNL     1       1.137   3.413   0.136  0.00  0.00    -0.205 F 
ENDBRANCH  22  28
ENDBRANCH  21  22
ENDBRANCH   1  21
TORSDOF 6
