REMARK  Name = ZINC00546387
REMARK  8 active torsions:
REMARK  status: ('A' for Active; 'I' for Inactive)
REMARK    1  A    between atoms: C_1  and  C_2
REMARK    2  A    between atoms: C_6  and  N_8
REMARK    3  A    between atoms: N_8  and  C_9
REMARK    4  A    between atoms: C_9  and  C_10
REMARK    5  A    between atoms: N_12  and  N_13
REMARK    6  A    between atoms: C_14  and  C_15
REMARK    7  A    between atoms: C_16  and  C_25
REMARK    8  A    between atoms: N_17  and  C_24
REMARK                            x       y       z     vdW  Elec       q    Type
REMARK                         _______ _______ _______ _____ _____    ______ ____
ROOT
ATOM      1  C   UNL     1       0.894   7.466   0.035  0.00  0.00    +0.249 C 
ATOM      2  O   UNL     1      -0.255   7.855   0.048  0.00  0.00    -0.272 OA
ATOM      3  N   UNL     1       1.907   8.356   0.031  0.00  0.00    -0.206 N 
ATOM      4  H   UNL     1       2.825   8.045   0.020  0.00  0.00    +0.177 HD
ENDROOT
BRANCH   3   5
ATOM      5  N   UNL     1       1.632   9.730   0.041  0.00  0.00    -0.188 NA
ATOM      6  C   UNL     1       2.608  10.588   0.037  0.00  0.00    +0.140 C 
BRANCH   6   7
ATOM      7  C   UNL     1       2.319  12.031   0.048  0.00  0.00    +0.023 A 
ATOM      8  C   UNL     1       3.229  13.042   0.045  0.00  0.00    +0.025 A 
ATOM      9  N   UNL     1       2.583  14.242   0.057  0.00  0.00    -0.346 N 
ATOM     10  C   UNL     1       1.218  14.049   0.068  0.00  0.00    +0.050 A 
ATOM     11  C   UNL     1       0.988  12.663   0.057  0.00  0.00    +0.009 A 
ATOM     12  C   UNL     1      -0.316  12.171   0.059  0.00  0.00    +0.010 A 
ATOM     13  C   UNL     1      -1.376  13.051   0.069  0.00  0.00    +0.001 A 
ATOM     14  C   UNL     1      -1.151  14.420   0.076  0.00  0.00    +0.002 A 
ATOM     15  C   UNL     1       0.133  14.920   0.082  0.00  0.00    +0.026 A 
ATOM     16  C   UNL     1       3.244  15.549   0.057  0.00  0.00    +0.149 C 
ATOM     17  C   UNL     1       4.725  12.863   0.031  0.00  0.00    +0.064 C 
ENDBRANCH   6   7
ENDBRANCH   3   5
BRANCH   1  18
ATOM     18  C   UNL     1       1.190   5.989   0.024  0.00  0.00    +0.199 C 
BRANCH  18  19
ATOM     19  N   UNL     1      -0.069   5.239   0.031  0.00  0.00    -0.335 N 
ATOM     20  H   UNL     1      -0.916   5.713   0.042  0.00  0.00    +0.147 HD
BRANCH  19  26
ATOM     21  C   UNL     1      -2.514   0.976   0.019  0.00  0.00    +0.044 C 
ATOM     22  C   UNL     1      -1.220   1.749   0.017  0.00  0.00    -0.049 A 
ATOM     23  C   UNL     1      -0.013   1.076   0.008  0.00  0.00    +0.003 A 
ATOM     24  C   UNL     1       1.176   1.782   0.000  0.00  0.00    +0.002 A 
ATOM     25  C   UNL     1       1.161   3.163   0.008  0.00  0.00    +0.023 A 
ATOM     26  C   UNL     1      -0.050   3.842   0.023  0.00  0.00    +0.028 A 
ATOM     27  C   UNL     1      -1.243   3.130   0.031  0.00  0.00    +0.026 A 
ENDBRANCH  19  26
ENDBRANCH  18  19
ENDBRANCH   1  18
TORSDOF 5
