REMARK  Name = ZINC35558266
REMARK  6 active torsions:
REMARK  status: ('A' for Active; 'I' for Inactive)
REMARK    1  A    between atoms: C_2  and  C_21
REMARK    2  A    between atoms: C_5  and  S_6
REMARK    3  A    between atoms: S_6  and  N_9
REMARK    4  A    between atoms: C_12  and  C_15
REMARK    5  A    between atoms: N_17  and  C_18
REMARK    6  A    between atoms: C_23  and  C_26
REMARK                            x       y       z     vdW  Elec       q    Type
REMARK                         _______ _______ _______ _____ _____    ______ ____
ROOT
ATOM      1  S   UNL     1      -1.355  -1.128   0.009  0.00  0.00    +0.067 S 
ATOM      2  O   UNL     1      -0.869  -2.349   0.549  0.00  0.00    -0.152 OA
ATOM      3  O   UNL     1      -2.457  -0.430   0.575  0.00  0.00    -0.152 OA
ENDROOT
BRANCH   1   4
ATOM      4  N   UNL     1      -1.748  -1.431  -1.570  0.00  0.00    -0.176 NA
ATOM      5  C   UNL     1      -2.727  -0.591  -2.273  0.00  0.00    +0.110 C 
ATOM      6  C   UNL     1      -3.812  -1.492  -2.870  0.00  0.00    +0.030 C 
ATOM      7  C   UNL     1      -3.157  -2.561  -3.747  0.00  0.00    +0.077 C 
ATOM      8  C   UNL     1      -2.227  -3.425  -2.893  0.00  0.00    +0.030 C 
ATOM      9  C   UNL     1      -1.120  -2.542  -2.298  0.00  0.00    +0.110 C 
BRANCH   7  10
ATOM     10  C   UNL     1      -4.224  -3.429  -4.363  0.00  0.00    +0.216 C 
ATOM     11  O   UNL     1      -5.393  -3.214  -4.124  0.00  0.00    -0.276 OA
ATOM     12  N   UNL     1      -3.878  -4.444  -5.180  0.00  0.00    -0.312 N 
ATOM     13  H   UNL     1      -2.943  -4.616  -5.371  0.00  0.00    +0.149 HD
BRANCH  12  14
ATOM     14  C   UNL     1      -4.916  -5.288  -5.779  0.00  0.00    +0.073 C 
ATOM     15  C   UNL     1      -4.679  -6.799  -5.787  0.00  0.00    +0.024 C 
ATOM     16  C   UNL     1      -4.577  -6.002  -7.089  0.00  0.00    +0.024 C 
ENDBRANCH  12  14
ENDBRANCH   7  10
ENDBRANCH   1   4
BRANCH   1  21
ATOM     17  C   UNL     1      -0.016   1.348   0.009  0.00  0.00    +0.048 A 
ATOM     18  C   UNL     1       1.226   1.984   0.001  0.00  0.00    +0.031 A 
ATOM     19  C   UNL     1       2.346   1.209  -0.014  0.00  0.00    +0.058 A 
ATOM     20  S   UNL     1       1.748  -0.361  -0.017  0.00  0.00    -0.076 S 
ATOM     21  C   UNL     1       0.002  -0.004   0.002  0.00  0.00    +0.143 A 
BRANCH  18  22
ATOM     22  C   UNL     1       1.323   3.463   0.007  0.00  0.00    +0.203 A 
ATOM     23  N   UNL     1       2.466   4.174  -0.005  0.00  0.00    -0.191 NA
ATOM     24  C   UNL     1       2.197   5.449   0.006  0.00  0.00    +0.231 A 
ATOM     25  O   UNL     1       0.867   5.603   0.025  0.00  0.00    -0.337 OA
ATOM     26  N   UNL     1       0.311   4.297   0.021  0.00  0.00    -0.056 NA
BRANCH  24  27
ATOM     27  C   UNL     1       3.213   6.562  -0.002  0.00  0.00    +0.078 C 
ATOM     28  C   UNL     1       2.814   7.766   0.868  0.00  0.00    +0.013 C 
ATOM     29  C   UNL     1       3.378   8.660  -0.250  0.00  0.00    +0.001 C 
ATOM     30  C   UNL     1       3.090   7.499  -1.216  0.00  0.00    +0.013 C 
ENDBRANCH  24  27
ENDBRANCH  18  22
ENDBRANCH   1  21
TORSDOF 6
