REMARK  Name = ZINC39464336
REMARK  7 active torsions:
REMARK  status: ('A' for Active; 'I' for Inactive)
REMARK    1  A    between atoms: C_1  and  O_2
REMARK    2  A    between atoms: O_2  and  C_3
REMARK    3  A    between atoms: C_8  and  S_9
REMARK    4  A    between atoms: S_9  and  O_12
REMARK    5  A    between atoms: O_12  and  C_13
REMARK    6  A    between atoms: P_23  and  C_29
REMARK    7  A    between atoms: C_34  and  O_35
REMARK                            x       y       z     vdW  Elec       q    Type
REMARK                         _______ _______ _______ _____ _____    ______ ____
ROOT
ATOM      1  C   UNL     1       0.151  -0.571  -1.198  0.00  0.00    +0.149 A 
ATOM      2  C   UNL     1       0.627   0.227  -2.226  0.00  0.00    +0.051 A 
ATOM      3  C   UNL     1       1.288  -0.342  -3.303  0.00  0.00    -0.038 A 
ATOM      4  C   UNL     1       1.473  -1.707  -3.356  0.00  0.00    -0.021 A 
ATOM      5  C   UNL     1       0.996  -2.506  -2.326  0.00  0.00    +0.040 A 
ATOM      6  C   UNL     1       0.343  -1.944  -1.249  0.00  0.00    +0.170 A 
ATOM      7  C   UNL     1       2.182  -2.374  -4.505  0.00  0.00    +0.129 C 
ATOM      8  C   UNL     1       3.123  -3.450  -3.954  0.00  0.00    +0.194 C 
ATOM      9  O   UNL     1       3.708  -4.163  -5.063  0.00  0.00    -0.311 OA
ATOM     10  P   UNL     1       4.383  -3.299  -6.264  0.00  0.00    +0.318 P 
ATOM     11  O   UNL     1       4.418  -4.096  -7.510  0.00  0.00    -0.266 OA
ATOM     12  N   UNL     1       3.411  -1.975  -6.460  0.00  0.00    -0.175 NA
ATOM     13  N   UNL     1       2.932  -1.402  -5.300  0.00  0.00    -0.225 NA
ATOM     14  C   UNL     1       2.090  -0.246  -5.646  0.00  0.00    +0.108 C 
ATOM     15  C   UNL     1       1.792   0.564  -4.397  0.00  0.00    +0.052 C 
ATOM     16  H   UNL     1       3.201  -1.623  -7.340  0.00  0.00    +0.151 HD
ENDROOT
BRANCH  10  17
ATOM     17  C   UNL     1       6.060  -2.786  -5.801  0.00  0.00    +0.094 A 
ATOM     18  C   UNL     1       6.260  -1.587  -5.143  0.00  0.00    +0.018 A 
ATOM     19  C   UNL     1       7.537  -1.195  -4.791  0.00  0.00    +0.001 A 
ATOM     20  C   UNL     1       8.619  -2.002  -5.095  0.00  0.00    +0.004 A 
ATOM     21  C   UNL     1       8.425  -3.201  -5.753  0.00  0.00    +0.046 A 
ATOM     22  C   UNL     1       7.142  -3.599  -6.103  0.00  0.00    +0.131 A 
BRANCH  22  23
ATOM     23  O   UNL     1       6.948  -4.781  -6.744  0.00  0.00    -0.506 OA
ATOM     24  H   UNL     1       6.981  -4.715  -7.709  0.00  0.00    +0.292 HD
ENDBRANCH  22  23
ENDBRANCH  10  17
BRANCH   6  25
ATOM     25  S   UNL     1      -0.251  -2.968   0.056  0.00  0.00    +0.154 S 
ATOM     26  O   UNL     1       0.840  -3.171   0.943  0.00  0.00    -0.131 OA
ATOM     27  O   UNL     1      -1.485  -2.407   0.482  0.00  0.00    -0.131 OA
BRANCH  25  28
ATOM     28  O   UNL     1      -0.577  -4.325  -0.550  0.00  0.00    -0.342 OA
BRANCH  28  29
ATOM     29  C   UNL     1      -1.729  -4.347  -1.271  0.00  0.00    +0.157 A 
ATOM     30  C   UNL     1      -2.945  -4.540  -0.632  0.00  0.00    +0.048 A 
ATOM     31  C   UNL     1      -4.115  -4.561  -1.367  0.00  0.00    +0.004 A 
ATOM     32  C   UNL     1      -4.074  -4.389  -2.738  0.00  0.00    +0.000 A 
ATOM     33  C   UNL     1      -2.863  -4.197  -3.377  0.00  0.00    +0.004 A 
ATOM     34  C   UNL     1      -1.692  -4.169  -2.646  0.00  0.00    +0.048 A 
ENDBRANCH  28  29
ENDBRANCH  25  28
ENDBRANCH   6  25
BRANCH   1  36
ATOM     35  C   UNL     1      -0.755   1.393  -0.211  0.00  0.00    +0.277 C 
ATOM     36  O   UNL     1      -0.497  -0.011  -0.143  0.00  0.00    -0.493 OA
ENDBRANCH   1  36
TORSDOF 6
