REMARK  Name = ZINC31907742
REMARK  2 active torsions:
REMARK  status: ('A' for Active; 'I' for Inactive)
REMARK    1  A    between atoms: N_10  and  N_11
REMARK    2  A    between atoms: C_12  and  C_14
REMARK                            x       y       z     vdW  Elec       q    Type
REMARK                         _______ _______ _______ _____ _____    ______ ____
ROOT
ATOM      1  C   UNL     1       2.198   6.143   0.014  0.00  0.00    +0.001 A 
ATOM      2  C   UNL     1       0.833   5.897   0.026  0.00  0.00    +0.001 A 
ATOM      3  C   UNL     1       0.354   4.601   0.024  0.00  0.00    +0.012 A 
ATOM      4  C   UNL     1       1.245   3.538   0.003  0.00  0.00    +0.031 A 
ATOM      5  C   UNL     1       2.635   3.787  -0.003  0.00  0.00    +0.025 A 
ATOM      6  C   UNL     1       3.100   5.098  -0.001  0.00  0.00    +0.012 A 
ATOM      7  C   UNL     1       3.281   2.466  -0.017  0.00  0.00    +0.126 C 
ATOM      8  N   UNL     1       2.361   1.532  -0.013  0.00  0.00    -0.211 NA
ATOM      9  C   UNL     1       1.110   2.068   0.003  0.00  0.00    +0.180 C 
ATOM     10  N   UNL     1      -0.017   1.397   0.010  0.00  0.00    -0.159 NA
ATOM     11  N   UNL     1       4.644   2.244  -0.032  0.00  0.00    -0.343 N 
ATOM     12  H   UNL     1       5.034   1.216  -0.041  0.00  0.00    +0.144 HD
ATOM     13  H   UNL     1       5.341   3.096  -0.034  0.00  0.00    +0.144 HD
ENDROOT
BRANCH  10  14
ATOM     14  N   UNL     1       0.002  -0.004   0.002  0.00  0.00    -0.198 N 
ATOM     15  C   UNL     1      -1.156  -0.694   0.009  0.00  0.00    +0.299 C 
ATOM     16  O   UNL     1      -2.218  -0.100   0.023  0.00  0.00    -0.265 OA
ATOM     17  H   UNL     1       0.962  -0.541  -0.010  0.00  0.00    +0.178 HD
BRANCH  15  18
ATOM     18  C   UNL     1      -1.136  -2.158   0.001  0.00  0.00    +0.192 A 
ATOM     19  C   UNL     1      -2.231  -2.976   0.013  0.00  0.00    +0.056 A 
ATOM     20  C   UNL     1      -1.751  -4.293  -0.003  0.00  0.00    +0.058 A 
ATOM     21  C   UNL     1      -0.399  -4.225  -0.016  0.00  0.00    +0.171 A 
ATOM     22  O   UNL     1      -0.033  -2.936  -0.013  0.00  0.00    -0.444 OA
ATOM     23 BR   UNL     1       0.779  -5.704  -0.034  0.00  0.00    -0.008 Br
ENDBRANCH  15  18
ENDBRANCH  10  14
TORSDOF 2
