REMARK  Name = ZINC44953805
REMARK  7 active torsions:
REMARK  status: ('A' for Active; 'I' for Inactive)
REMARK    1  A    between atoms: C_1  and  C_2
REMARK    2  A    between atoms: C_2  and  C_3
REMARK    3  A    between atoms: C_2  and  O_4
REMARK    4  A    between atoms: O_4  and  C_5
REMARK    5  A    between atoms: C_8  and  C_11
REMARK    6  A    between atoms: C_11  and  N_12
REMARK    7  A    between atoms: C_13  and  C_15
REMARK                            x       y       z     vdW  Elec       q    Type
REMARK                         _______ _______ _______ _____ _____    ______ ____
ROOT
ATOM      1  N   UNL     1      -2.458  -5.187  -3.932  0.00  0.00    -0.308 N 
ATOM      2  C   UNL     1      -2.663  -6.237  -4.752  0.00  0.00    +0.254 C 
ATOM      3  O   UNL     1      -2.596  -7.367  -4.318  0.00  0.00    -0.272 OA
ATOM      4  H   UNL     1      -2.512  -4.283  -4.280  0.00  0.00    +0.149 HD
ENDROOT
BRANCH   2   5
ATOM      5  C   UNL     1      -2.976  -6.006  -6.208  0.00  0.00    +0.266 C 
ATOM      6  C   UNL     1      -1.771  -5.358  -6.892  0.00  0.00    +0.090 C 
ATOM      7  C   UNL     1      -1.968  -5.339  -8.385  0.00  0.00    -0.029 A 
ATOM      8  C   UNL     1      -1.258  -4.448  -9.165  0.00  0.00    +0.004 A 
ATOM      9  C   UNL     1      -1.437  -4.433 -10.537  0.00  0.00    +0.000 A 
ATOM     10  C   UNL     1      -2.325  -5.307 -11.139  0.00  0.00    +0.001 A 
ATOM     11  C   UNL     1      -3.041  -6.203 -10.371  0.00  0.00    +0.015 A 
ATOM     12  C   UNL     1      -2.866  -6.220  -8.989  0.00  0.00    +0.062 A 
ATOM     13  C   UNL     1      -3.630  -7.166  -8.144  0.00  0.00    +0.340 C 
ATOM     14  O   UNL     1      -4.542  -7.828  -8.597  0.00  0.00    -0.245 OA
ATOM     15  O   UNL     1      -3.265  -7.261  -6.840  0.00  0.00    -0.448 OA
ENDBRANCH   2   5
BRANCH   1  16
ATOM     16  C   UNL     1      -2.155  -5.411  -2.517  0.00  0.00    +0.141 C 
BRANCH  16  20
ATOM     17  C   UNL     1      -1.560  -1.691  -0.597  0.00  0.00    +0.215 A 
ATOM     18  C   UNL     1      -2.844  -2.221  -0.625  0.00  0.00    +0.067 A 
ATOM     19  C   UNL     1      -3.056  -3.438  -1.249  0.00  0.00    +0.012 A 
ATOM     20  C   UNL     1      -1.971  -4.084  -1.826  0.00  0.00    -0.012 A 
ATOM     21  C   UNL     1      -0.723  -3.498  -1.761  0.00  0.00    +0.119 A 
ATOM     22  N   UNL     1      -0.552  -2.334  -1.162  0.00  0.00    -0.221 NA
BRANCH  17  23
ATOM     23  O   UNL     1      -1.339  -0.499   0.012  0.00  0.00    -0.474 OA
BRANCH  23  25
ATOM     24  C   UNL     1      -0.019   1.526   0.010  0.00  0.00    +0.051 C 
ATOM     25  C   UNL     1       0.002  -0.004   0.002  0.00  0.00    +0.169 C 
ATOM     26  C   UNL     1       0.742  -0.511   1.242  0.00  0.00    +0.051 C 
ENDBRANCH  23  25
ENDBRANCH  17  23
ENDBRANCH  16  20
ENDBRANCH   1  16
TORSDOF 5
