REMARK  Name = ZINC09009127
REMARK  5 active torsions:
REMARK  status: ('A' for Active; 'I' for Inactive)
REMARK    1  A    between atoms: C_1  and  C_2
REMARK    2  A    between atoms: C_5  and  C_8
REMARK    3  A    between atoms: N_16  and  C_26
REMARK    4  A    between atoms: C_17  and  C_19
REMARK    5  A    between atoms: C_22  and  O_25
REMARK                            x       y       z     vdW  Elec       q    Type
REMARK                         _______ _______ _______ _____ _____    ______ ____
ROOT
ATOM      1  C   UNL     1       0.061  -4.253  -0.021  0.00  0.00    +0.072 A 
ATOM      2  C   UNL     1      -0.699  -5.078   0.744  0.00  0.00    +0.035 A 
ATOM      3  C   UNL     1      -0.328  -6.393   0.384  0.00  0.00    +0.153 A 
ATOM      4  N   UNL     1       0.601  -6.289  -0.546  0.00  0.00    -0.168 NA
ATOM      5  N   UNL     1       0.842  -5.053  -0.805  0.00  0.00    -0.276 N 
ATOM      6  H   UNL     1       1.485  -4.736  -1.458  0.00  0.00    +0.189 HD
ATOM      7  C   UNL     1      -1.131  -7.327   1.193  0.00  0.00    +0.272 C 
ATOM      8  O   UNL     1      -1.057  -8.540   1.130  0.00  0.00    -0.268 OA
ATOM      9  N   UNL     1      -1.954  -6.651   2.012  0.00  0.00    -0.254 N 
ATOM     10  C   UNL     1      -1.757  -5.212   1.805  0.00  0.00    +0.146 C 
ENDROOT
BRANCH   1  15
ATOM     11  C   UNL     1      -0.018   1.503   0.010  0.00  0.00    +0.044 C 
ATOM     12  C   UNL     1       0.002  -0.004   0.002  0.00  0.00    -0.050 A 
ATOM     13  C   UNL     1       0.006  -0.686  -1.202  0.00  0.00    +0.004 A 
ATOM     14  C   UNL     1       0.025  -2.066  -1.216  0.00  0.00    +0.010 A 
ATOM     15  C   UNL     1       0.041  -2.773  -0.013  0.00  0.00    +0.000 A 
ATOM     16  C   UNL     1       0.037  -2.079   1.197  0.00  0.00    +0.010 A 
ATOM     17  C   UNL     1       0.023  -0.699   1.198  0.00  0.00    +0.004 A 
ENDBRANCH   1  15
BRANCH   9  18
ATOM     18  C   UNL     1      -2.855  -7.227   2.916  0.00  0.00    +0.038 A 
ATOM     19  C   UNL     1      -3.660  -6.417   3.706  0.00  0.00    +0.026 A 
ATOM     20  C   UNL     1      -4.548  -6.987   4.597  0.00  0.00    +0.040 A 
ATOM     21  C   UNL     1      -4.636  -8.364   4.703  0.00  0.00    +0.124 A 
ATOM     22  C   UNL     1      -3.834  -9.174   3.916  0.00  0.00    +0.040 A 
ATOM     23  C   UNL     1      -2.949  -8.608   3.019  0.00  0.00    +0.026 A 
ATOM     24  F   UNL     1      -5.505  -8.920   5.575  0.00  0.00    -0.205 F 
ENDBRANCH   9  18
BRANCH  10  25
ATOM     25  C   UNL     1      -3.041  -4.576   1.337  0.00  0.00    -0.022 A 
ATOM     26  C   UNL     1      -3.880  -5.265   0.480  0.00  0.00    +0.009 A 
ATOM     27  C   UNL     1      -5.057  -4.684   0.050  0.00  0.00    +0.046 A 
ATOM     28  C   UNL     1      -5.398  -3.410   0.479  0.00  0.00    +0.117 A 
ATOM     29  C   UNL     1      -4.555  -2.721   1.339  0.00  0.00    +0.046 A 
ATOM     30  C   UNL     1      -3.381  -3.308   1.771  0.00  0.00    +0.009 A 
BRANCH  28  31
ATOM     31  O   UNL     1      -6.556  -2.837   0.057  0.00  0.00    -0.507 OA
ATOM     32  H   UNL     1      -7.315  -3.018   0.627  0.00  0.00    +0.292 HD
ENDBRANCH  28  31
ENDBRANCH  10  25
TORSDOF 4
