REMARK  Name = ZINC39610980
REMARK  7 active torsions:
REMARK  status: ('A' for Active; 'I' for Inactive)
REMARK    1  A    between atoms: C_1  and  N_2
REMARK    2  A    between atoms: C_3  and  N_23
REMARK    3  A    between atoms: C_5  and  C_12
REMARK    4  A    between atoms: N_8  and  C_11
REMARK    5  A    between atoms: C_12  and  C_14
REMARK    6  A    between atoms: C_14  and  S_15
REMARK    7  A    between atoms: S_15  and  C_16
REMARK                            x       y       z     vdW  Elec       q    Type
REMARK                         _______ _______ _______ _____ _____    ______ ____
ROOT
ATOM      1  C   UNL     1      -0.314   1.656  -0.121  0.00  0.00    +0.132 C 
ATOM      2  N   UNL     1      -0.095   0.212  -0.011  0.00  0.00    -0.298 N 
ATOM      3  C   UNL     1      -1.205  -0.733  -0.221  0.00  0.00    +0.056 C 
ATOM      4  C   UNL     1      -0.885  -2.209  -0.087  0.00  0.00    +0.061 C 
ATOM      5  C   UNL     1       0.416  -2.552   0.221  0.00  0.00    +0.253 C 
ATOM      6  O   UNL     1       0.750  -3.852   0.350  0.00  0.00    -0.270 OA
ATOM      7  N   UNL     1       1.368  -1.588   0.395  0.00  0.00    -0.225 N 
ATOM      8  C   UNL     1       1.125  -0.277   0.280  0.00  0.00    +0.310 C 
ATOM      9  O   UNL     1       2.042   0.504   0.449  0.00  0.00    -0.252 OA
ATOM     10  C   UNL     1       2.732  -2.013   0.721  0.00  0.00    +0.143 C 
ENDROOT
BRANCH   3  11
ATOM     11  N   UNL     1      -1.742  -0.508  -1.570  0.00  0.00    +0.393 N 
ATOM     12  H   UNL     1      -1.043  -0.752  -2.255  0.00  0.00    -0.087 HD
ATOM     13  H   UNL     1      -2.561  -1.081  -1.705  0.00  0.00    -0.087 HD
ATOM     14  H   UNL     1      -1.990   0.465  -1.675  0.00  0.00    -0.087 HD
ENDBRANCH   3  11
BRANCH   4  15
ATOM     15  C   UNL     1      -1.867  -3.182  -0.267  0.00  0.00    +0.174 C 
ATOM     16  O   UNL     1      -3.028  -2.853  -0.416  0.00  0.00    -0.291 OA
BRANCH  15  17
ATOM     17  C   UNL     1      -1.490  -4.641  -0.277  0.00  0.00    +0.156 C 
BRANCH  17  18
ATOM     18  S   UNL     1      -2.960  -5.643  -0.631  0.00  0.00    -0.080 S 
BRANCH  18  19
ATOM     19  C   UNL     1      -2.361  -7.300  -0.608  0.00  0.00    +0.169 A 
ATOM     20  N   UNL     1      -3.224  -8.326  -0.847  0.00  0.00    -0.302 N 
ATOM     21  C   UNL     1      -2.772  -9.599  -0.831  0.00  0.00    +0.252 A 
ATOM     22  O   UNL     1      -3.531 -10.530  -1.043  0.00  0.00    -0.268 OA
ATOM     23  C   UNL     1      -1.411  -9.829  -0.566  0.00  0.00    +0.090 A 
ATOM     24  C   UNL     1      -0.593  -8.761  -0.333  0.00  0.00    +0.119 A 
ATOM     25  N   UNL     1      -1.085  -7.525  -0.364  0.00  0.00    -0.232 NA
ATOM     26  H   UNL     1      -4.159  -8.144  -1.027  0.00  0.00    +0.171 HD
ENDBRANCH  18  19
ENDBRANCH  17  18
ENDBRANCH  15  17
ENDBRANCH   4  15
TORSDOF 5
