REMARK  Name = ZINC04772742
REMARK  14 active torsions:
REMARK  status: ('A' for Active; 'I' for Inactive)
REMARK    1  A    between atoms: C_1  and  C_2
REMARK    2  A    between atoms: C_5  and  N_9
REMARK    3  A    between atoms: C_7  and  C_8
REMARK    4  A    between atoms: N_9  and  C_10
REMARK    5  A    between atoms: N_9  and  N_22
REMARK    6  A    between atoms: C_10  and  C_11
REMARK    7  A    between atoms: C_11  and  C_13
REMARK    8  A    between atoms: C_11  and  O_21
REMARK    9  A    between atoms: C_13  and  C_15
REMARK   10  A    between atoms: C_13  and  O_20
REMARK   11  A    between atoms: C_15  and  C_17
REMARK   12  A    between atoms: C_15  and  O_19
REMARK   13  A    between atoms: C_17  and  O_18
REMARK   14  A    between atoms: N_23  and  C_24
REMARK                            x       y       z     vdW  Elec       q    Type
REMARK                         _______ _______ _______ _____ _____    ______ ____
ROOT
ATOM      1  N   UNL     1       2.054   1.120   3.683  0.00  0.00    -0.204 N 
ENDROOT
BRANCH   1   6
ATOM      2  C   UNL     1       0.927  -4.189   5.327  0.00  0.00    +0.044 C 
ATOM      3  C   UNL     1       1.227  -2.779   4.890  0.00  0.00    -0.047 A 
ATOM      4  C   UNL     1       2.431  -2.191   5.233  0.00  0.00    +0.005 A 
ATOM      5  C   UNL     1       2.711  -0.901   4.830  0.00  0.00    +0.025 A 
ATOM      6  C   UNL     1       1.777  -0.188   4.088  0.00  0.00    +0.053 A 
ATOM      7  C   UNL     1       0.568  -0.781   3.746  0.00  0.00    +0.028 A 
ATOM      8  C   UNL     1       0.297  -2.074   4.148  0.00  0.00    -0.046 A 
ATOM      9  C   UNL     1      -1.014  -2.718   3.777  0.00  0.00    +0.044 C 
ENDBRANCH   1   6
BRANCH   1  10
ATOM     10  N   UNL     1       2.534   2.053   4.611  0.00  0.00    -0.074 NA
ATOM     11  N   UNL     1       2.640   1.730   5.856  0.00  0.00    -0.134 NA
BRANCH  11  12
ATOM     12  C   UNL     1       3.109   2.644   6.764  0.00  0.00    +0.088 A 
ATOM     13  C   UNL     1       3.479   3.923   6.344  0.00  0.00    +0.031 A 
ATOM     14  C   UNL     1       3.945   4.840   7.263  0.00  0.00    +0.022 A 
ATOM     15  C   UNL     1       4.058   4.490   8.598  0.00  0.00    +0.041 A 
ATOM     16  C   UNL     1       3.698   3.221   9.020  0.00  0.00    +0.022 A 
ATOM     17  C   UNL     1       3.225   2.298   8.111  0.00  0.00    +0.031 A 
ATOM     18 CL   UNL     1       4.652   5.647   9.748  0.00  0.00    -0.084 Cl
ENDBRANCH  11  12
ENDBRANCH   1  10
BRANCH   1  19
ATOM     19  C   UNL     1       1.844   1.515   2.288  0.00  0.00    +0.167 C 
BRANCH  19  20
ATOM     20  C   UNL     1       3.081   1.153   1.464  0.00  0.00    +0.165 C 
BRANCH  20  21
ATOM     21  O   UNL     1       4.220   1.839   1.987  0.00  0.00    -0.388 OA
ATOM     22  H   UNL     1       4.139   2.803   1.972  0.00  0.00    +0.210 HD
ENDBRANCH  20  21
BRANCH  20  23
ATOM     23  C   UNL     1       2.861   1.565   0.007  0.00  0.00    +0.175 C 
BRANCH  23  24
ATOM     24  O   UNL     1       1.722   0.879  -0.516  0.00  0.00    -0.387 OA
ATOM     25  H   UNL     1       1.803  -0.085  -0.501  0.00  0.00    +0.210 HD
ENDBRANCH  23  24
BRANCH  23  26
ATOM     26  C   UNL     1       4.098   1.203  -0.818  0.00  0.00    +0.171 C 
BRANCH  26  27
ATOM     27  O   UNL     1       5.237   1.890  -0.295  0.00  0.00    -0.387 OA
ATOM     28  H   UNL     1       5.156   2.853  -0.309  0.00  0.00    +0.210 HD
ENDBRANCH  26  27
BRANCH  26  29
ATOM     29  C   UNL     1       3.879   1.616  -2.275  0.00  0.00    +0.189 C 
BRANCH  29  30
ATOM     30  O   UNL     1       4.983   1.174  -3.067  0.00  0.00    -0.392 OA
ATOM     31  H   UNL     1       4.911   1.401  -4.003  0.00  0.00    +0.210 HD
ENDBRANCH  29  30
ENDBRANCH  26  29
ENDBRANCH  23  26
ENDBRANCH  20  23
ENDBRANCH  19  20
ENDBRANCH   1  19
TORSDOF 12
