REMARK  Name = ZINC08686936
REMARK  7 active torsions:
REMARK  status: ('A' for Active; 'I' for Inactive)
REMARK    1  A    between atoms: C_1  and  C_2
REMARK    2  A    between atoms: C_4  and  O_29
REMARK    3  A    between atoms: C_8  and  C_21
REMARK    4  A    between atoms: C_14  and  C_19
REMARK    5  A    between atoms: C_14  and  C_20
REMARK    6  A    between atoms: C_24  and  O_27
REMARK    7  A    between atoms: O_27  and  C_28
REMARK                            x       y       z     vdW  Elec       q    Type
REMARK                         _______ _______ _______ _____ _____    ______ ____
ROOT
ATOM      1  C   UNL     1      -0.018   1.504   0.010  0.00  0.00    +0.044 C 
ATOM      2  C   UNL     1       0.002  -0.004   0.002  0.00  0.00    -0.040 A 
ATOM      3  C   UNL     1       0.009  -0.636  -1.230  0.00  0.00    +0.049 A 
ATOM      4  C   UNL     1      -0.007  -2.018  -1.313  0.00  0.00    +0.121 A 
ATOM      5  C   UNL     1      -0.046  -2.766  -0.148  0.00  0.00    +0.091 A 
ATOM      6  C   UNL     1      -0.041  -2.128   1.083  0.00  0.00    +0.131 A 
ATOM      7  C   UNL     1       0.023  -0.744   1.174  0.00  0.00    +0.005 A 
ATOM      8  C   UNL     1       0.116  -0.058   2.507  0.00  0.00    +0.058 C 
ATOM      9  C   UNL     1       0.002  -1.025   3.688  0.00  0.00    +0.081 C 
ATOM     10  C   UNL     1      -0.793  -2.268   3.315  0.00  0.00    +0.180 C 
ATOM     11  O   UNL     1      -0.126  -2.891   2.206  0.00  0.00    -0.468 OA
ATOM     12  C   UNL     1      -0.851  -3.275   4.463  0.00  0.00    +0.096 C 
ATOM     13  C   UNL     1      -1.672  -2.767   5.641  0.00  0.00    +0.040 C 
ATOM     14  N   UNL     1      -2.823  -1.987   5.205  0.00  0.00    -0.362 N 
ATOM     15  C   UNL     1      -3.082  -1.682   3.909  0.00  0.00    +0.142 C 
ATOM     16  N   UNL     1      -2.157  -1.900   2.927  0.00  0.00    -0.288 N 
ATOM     17  S   UNL     1      -4.555  -1.030   3.506  0.00  0.00    -0.016 SA
ATOM     18  C   UNL     1      -0.807  -1.954   6.601  0.00  0.00    +0.034 C 
ATOM     19  C   UNL     1      -2.204  -3.992   6.412  0.00  0.00    +0.034 C 
ATOM     20  H   UNL     1      -2.402  -1.813   1.992  0.00  0.00    +0.152 HD
ATOM     21  H   UNL     1      -3.441  -1.665   5.884  0.00  0.00    +0.162 HD
ENDROOT
BRANCH   8  22
ATOM     22  C   UNL     1       1.460   0.613   2.634  0.00  0.00    -0.039 A 
ATOM     23  C   UNL     1       2.617  -0.139   2.558  0.00  0.00    +0.008 A 
ATOM     24  C   UNL     1       3.850   0.474   2.675  0.00  0.00    +0.046 A 
ATOM     25  C   UNL     1       3.925   1.846   2.868  0.00  0.00    +0.120 A 
ATOM     26  C   UNL     1       2.762   2.599   2.943  0.00  0.00    +0.046 A 
ATOM     27  C   UNL     1       1.532   1.981   2.821  0.00  0.00    +0.008 A 
BRANCH  25  28
ATOM     28  O   UNL     1       5.136   2.452   2.983  0.00  0.00    -0.495 OA
ATOM     29  C   UNL     1       5.138   3.867   3.181  0.00  0.00    +0.277 C 
ENDBRANCH  25  28
ENDBRANCH   8  22
BRANCH   4  30
ATOM     30  O   UNL     1       0.018  -2.636  -2.523  0.00  0.00    -0.507 OA
ATOM     31  H   UNL     1       0.908  -2.826  -2.849  0.00  0.00    +0.292 HD
ENDBRANCH   4  30
TORSDOF 3
