REMARK  Name = ZINC51752407
REMARK  5 active torsions:
REMARK  status: ('A' for Active; 'I' for Inactive)
REMARK    1  A    between atoms: C_1  and  C_2
REMARK    2  A    between atoms: C_5  and  C_8
REMARK    3  A    between atoms: C_8  and  C_9
REMARK    4  A    between atoms: C_11  and  C_14
REMARK    5  A    between atoms: C_15  and  N_21
REMARK                            x       y       z     vdW  Elec       q    Type
REMARK                         _______ _______ _______ _____ _____    ______ ____
ROOT
ATOM      1  C   UNL     1       1.518  -4.775   0.025  0.00  0.00    +0.176 A 
ATOM      2  N   UNL     1       2.215  -5.064  -1.075  0.00  0.00    -0.191 NA
ATOM      3  C   UNL     1       3.453  -5.375  -0.754  0.00  0.00    +0.263 A 
ATOM      4  O   UNL     1       3.570  -5.287   0.583  0.00  0.00    -0.333 OA
ATOM      5  N   UNL     1       2.295  -4.888   1.065  0.00  0.00    -0.061 NA
ENDROOT
BRANCH   3   6
ATOM      6  C   UNL     1       4.524  -5.753  -1.695  0.00  0.00    +0.095 A 
ATOM      7  C   UNL     1       5.324  -6.877  -1.439  0.00  0.00    +0.040 A 
ATOM      8  C   UNL     1       6.329  -7.222  -2.332  0.00  0.00    +0.023 A 
ATOM      9  C   UNL     1       6.540  -6.464  -3.467  0.00  0.00    +0.005 A 
ATOM     10  C   UNL     1       5.753  -5.354  -3.724  0.00  0.00    +0.039 A 
ATOM     11  C   UNL     1       4.744  -4.997  -2.851  0.00  0.00    +0.137 A 
ATOM     12  F   UNL     1       3.975  -3.917  -3.110  0.00  0.00    -0.205 F 
BRANCH   7  13
ATOM     13  N   UNL     1       5.113  -7.640  -0.295  0.00  0.00    -0.357 N 
ATOM     14  H   UNL     1       4.354  -7.452   0.280  0.00  0.00    +0.142 HD
ATOM     15  H   UNL     1       5.723  -8.360  -0.073  0.00  0.00    +0.142 HD
ENDBRANCH   7  13
ENDBRANCH   3   6
BRANCH   1  16
ATOM     16  C   UNL     1       0.066  -4.373   0.060  0.00  0.00    +0.114 C 
BRANCH  16  21
ATOM     17  C   UNL     1      -0.360   1.372  -0.393  0.00  0.00    +0.044 C 
ATOM     18  C   UNL     1      -0.248  -0.127  -0.275  0.00  0.00    -0.050 A 
ATOM     19  C   UNL     1      -0.252  -0.912  -1.413  0.00  0.00    +0.003 A 
ATOM     20  C   UNL     1      -0.150  -2.286  -1.304  0.00  0.00    +0.004 A 
ATOM     21  C   UNL     1      -0.044  -2.875  -0.058  0.00  0.00    -0.040 A 
ATOM     22  C   UNL     1      -0.040  -2.090   1.079  0.00  0.00    +0.004 A 
ATOM     23  C   UNL     1      -0.138  -0.715   0.971  0.00  0.00    +0.003 A 
ENDBRANCH  16  21
ENDBRANCH   1  16
TORSDOF 4
