REMARK  Name = ZINC39362325
REMARK  9 active torsions:
REMARK  status: ('A' for Active; 'I' for Inactive)
REMARK    1  A    between atoms: C_1  and  O_2
REMARK    2  A    between atoms: O_2  and  C_3
REMARK    3  A    between atoms: C_6  and  N_9
REMARK    4  A    between atoms: C_10  and  C_28
REMARK    5  A    between atoms: C_14  and  S_15
REMARK    6  A    between atoms: S_15  and  C_16
REMARK    7  A    between atoms: C_16  and  C_17
REMARK    8  A    between atoms: N_19  and  C_20
REMARK    9  A    between atoms: C_28  and  C_29
REMARK                            x       y       z     vdW  Elec       q    Type
REMARK                         _______ _______ _______ _____ _____    ______ ____
ROOT
ATOM      1  N   UNL     1      -4.901  -2.580  -0.065  0.00  0.00    -0.258 N 
ATOM      2  C   UNL     1      -5.135  -4.030  -0.169  0.00  0.00    +0.187 C 
ATOM      3  N   UNL     1      -6.600  -4.159  -0.090  0.00  0.00    -0.246 N 
ATOM      4  N   UNL     1      -7.099  -2.858   0.046  0.00  0.00    -0.162 NA
ATOM      5  C   UNL     1      -6.148  -1.986   0.064  0.00  0.00    +0.180 C 
ATOM      6  H   UNL     1      -7.116  -4.980  -0.125  0.00  0.00    +0.170 HD
ENDROOT
BRANCH   1  10
ATOM      7  C   UNL     1      -1.213  -0.638  -0.131  0.00  0.00    +0.120 A 
ATOM      8  C   UNL     1      -2.127  -0.424  -1.151  0.00  0.00    +0.047 A 
ATOM      9  C   UNL     1      -3.349  -1.067  -1.131  0.00  0.00    +0.027 A 
ATOM     10  C   UNL     1      -3.663  -1.928  -0.087  0.00  0.00    +0.038 A 
ATOM     11  C   UNL     1      -2.747  -2.142   0.934  0.00  0.00    +0.027 A 
ATOM     12  C   UNL     1      -1.523  -1.503   0.909  0.00  0.00    +0.047 A 
BRANCH   7  14
ATOM     13  C   UNL     1       0.243   0.871  -1.252  0.00  0.00    +0.277 C 
ATOM     14  O   UNL     1      -0.010  -0.005  -0.152  0.00  0.00    -0.495 OA
ENDBRANCH   7  14
ENDBRANCH   1  10
BRANCH   5  15
ATOM     15  S   UNL     1      -6.403  -0.251   0.229  0.00  0.00    -0.079 S 
BRANCH  15  16
ATOM     16  C   UNL     1      -8.205  -0.082   0.357  0.00  0.00    +0.173 C 
BRANCH  16  17
ATOM     17  C   UNL     1      -8.564   1.375   0.504  0.00  0.00    +0.228 C 
ATOM     18  O   UNL     1      -7.690   2.216   0.521  0.00  0.00    -0.275 OA
ATOM     19  N   UNL     1      -9.855   1.742   0.618  0.00  0.00    -0.283 N 
ATOM     20  H   UNL     1     -10.548   1.066   0.687  0.00  0.00    +0.155 HD
BRANCH  19  21
ATOM     21  C   UNL     1     -10.198   3.101   0.635  0.00  0.00    +0.069 A 
ATOM     22  C   UNL     1      -9.467   4.012  -0.115  0.00  0.00    +0.029 A 
ATOM     23  C   UNL     1      -9.807   5.351  -0.097  0.00  0.00    +0.040 A 
ATOM     24  C   UNL     1     -10.876   5.786   0.668  0.00  0.00    +0.126 A 
ATOM     25  C   UNL     1     -11.607   4.880   1.418  0.00  0.00    +0.078 A 
ATOM     26  C   UNL     1     -11.275   3.538   1.398  0.00  0.00    +0.147 A 
ATOM     27  F   UNL     1     -11.993   2.653   2.124  0.00  0.00    -0.203 F 
ATOM     28  F   UNL     1     -11.205   7.096   0.684  0.00  0.00    -0.205 F 
ENDBRANCH  19  21
ENDBRANCH  16  17
ENDBRANCH  15  16
ENDBRANCH   5  15
BRANCH   2  29
ATOM     29  C   UNL     1      -4.617  -4.563  -1.506  0.00  0.00    +0.097 C 
BRANCH  29  30
ATOM     30  C   UNL     1      -4.869  -6.047  -1.587  0.00  0.00    +0.029 A 
ATOM     31  N   UNL     1      -3.976  -6.926  -1.036  0.00  0.00    -0.311 N 
ATOM     32  C   UNL     1      -4.191  -8.252  -1.102  0.00  0.00    +0.327 A 
ATOM     33  O   UNL     1      -3.385  -9.016  -0.605  0.00  0.00    -0.247 OA
ATOM     34  N   UNL     1      -5.286  -8.746  -1.709  0.00  0.00    -0.275 N 
ATOM     35  C   UNL     1      -6.189  -7.913  -2.264  0.00  0.00    +0.254 A 
ATOM     36  O   UNL     1      -7.181  -8.360  -2.813  0.00  0.00    -0.268 OA
ATOM     37  C   UNL     1      -5.978  -6.515  -2.197  0.00  0.00    +0.091 A 
ATOM     38  H   UNL     1      -5.426  -9.706  -1.747  0.00  0.00    +0.173 HD
ATOM     39  H   UNL     1      -3.181  -6.590  -0.594  0.00  0.00    +0.170 HD
ENDBRANCH  29  30
ENDBRANCH   2  29
TORSDOF 8
