REMARK  Name = ZINC41022335
REMARK  13 active torsions:
REMARK  status: ('A' for Active; 'I' for Inactive)
REMARK    1  A    between atoms: C_1  and  C_2
REMARK    2  A    between atoms: C_2  and  O_3
REMARK    3  A    between atoms: O_3  and  C_4
REMARK    4  A    between atoms: C_9  and  N_10
REMARK    5  A    between atoms: C_11  and  C_13
REMARK    6  A    between atoms: C_14  and  C_40
REMARK    7  A    between atoms: C_21  and  C_23
REMARK    8  A    between atoms: C_26  and  O_31
REMARK    9  A    between atoms: C_27  and  O_29
REMARK   10  A    between atoms: O_29  and  C_30
REMARK   11  A    between atoms: O_31  and  C_32
REMARK   12  A    between atoms: C_32  and  C_33
REMARK   13  A    between atoms: C_33  and  C_34
REMARK                            x       y       z     vdW  Elec       q    Type
REMARK                         _______ _______ _______ _____ _____    ______ ____
ROOT
ATOM      1  C   UNL     1       3.237  -0.649  -5.383  0.00  0.00    +0.060 C 
ATOM      2  C   UNL     1       3.822  -1.080  -6.510  0.00  0.00    +0.018 C 
ATOM      3  N   UNL     1       4.350  -0.216  -7.439  0.00  0.00    -0.286 N 
ATOM      4  C   UNL     1       4.495   1.112  -7.065  0.00  0.00    +0.240 A 
ATOM      5  N   UNL     1       5.140   2.092  -7.629  0.00  0.00    -0.092 NA
ATOM      6  N   UNL     1       5.014   3.170  -6.934  0.00  0.00    -0.021 NA
ATOM      7  N   UNL     1       4.282   2.949  -5.889  0.00  0.00    -0.042 NA
ATOM      8  N   UNL     1       3.917   1.605  -5.939  0.00  0.00    -0.201 N 
ATOM      9  C   UNL     1       3.089   0.810  -5.038  0.00  0.00    +0.179 C 
ATOM     10  C   UNL     1       3.902  -2.562  -6.767  0.00  0.00    +0.061 C 
ATOM     11  H   UNL     1       4.612  -0.523  -8.321  0.00  0.00    +0.155 HD
ENDROOT
BRANCH   9  12
ATOM     12  C   UNL     1       1.645   1.216  -5.184  0.00  0.00    -0.015 A 
ATOM     13  C   UNL     1       1.010   1.079  -6.404  0.00  0.00    +0.010 A 
ATOM     14  C   UNL     1      -0.315   1.451  -6.542  0.00  0.00    +0.050 A 
ATOM     15  C   UNL     1      -1.008   1.962  -5.457  0.00  0.00    +0.162 A 
ATOM     16  C   UNL     1      -0.369   2.099  -4.229  0.00  0.00    +0.162 A 
ATOM     17  C   UNL     1       0.958   1.720  -4.095  0.00  0.00    +0.055 A 
BRANCH  16  18
ATOM     18  O   UNL     1      -1.045   2.600  -3.160  0.00  0.00    -0.491 OA
ATOM     19  C   UNL     1      -0.296   2.820  -1.963  0.00  0.00    +0.277 C 
ENDBRANCH  16  18
BRANCH  15  20
ATOM     20  O   UNL     1      -2.311   2.328  -5.592  0.00  0.00    -0.488 OA
BRANCH  20  21
ATOM     21  C   UNL     1      -2.902   2.159  -6.882  0.00  0.00    +0.234 C 
BRANCH  21  22
ATOM     22  C   UNL     1      -4.360   2.622  -6.839  0.00  0.00    +0.076 C 
BRANCH  22  23
ATOM     23  C   UNL     1      -4.984   2.444  -8.199  0.00  0.00    -0.044 A 
ATOM     24  C   UNL     1      -4.922   3.467  -9.127  0.00  0.00    +0.004 A 
ATOM     25  C   UNL     1      -5.494   3.304 -10.375  0.00  0.00    +0.000 A 
ATOM     26  C   UNL     1      -6.127   2.117 -10.695  0.00  0.00    +0.000 A 
ATOM     27  C   UNL     1      -6.188   1.094  -9.768  0.00  0.00    +0.000 A 
ATOM     28  C   UNL     1      -5.612   1.256  -8.521  0.00  0.00    +0.004 A 
ENDBRANCH  22  23
ENDBRANCH  21  22
ENDBRANCH  20  21
ENDBRANCH  15  20
ENDBRANCH   9  12
BRANCH   1  30
ATOM     29  N   UNL     1       1.570  -2.242  -4.744  0.00  0.00    -0.279 N 
ATOM     30  C   UNL     1       2.730  -1.610  -4.477  0.00  0.00    +0.248 C 
ATOM     31  O   UNL     1       3.342  -1.866  -3.455  0.00  0.00    -0.270 OA
ATOM     32  H   UNL     1       1.102  -2.066  -5.575  0.00  0.00    +0.155 HD
BRANCH  29  38
ATOM     33  C   UNL     1      -0.334  -3.373  -3.766  0.00  0.00    +0.142 A 
ATOM     34  C   UNL     1      -0.851  -4.280  -2.856  0.00  0.00    +0.047 A 
ATOM     35  C   UNL     1      -0.004  -4.962  -2.002  0.00  0.00    +0.004 A 
ATOM     36  C   UNL     1       1.360  -4.741  -2.052  0.00  0.00    +0.002 A 
ATOM     37  C   UNL     1       1.884  -3.838  -2.958  0.00  0.00    +0.027 A 
ATOM     38  C   UNL     1       1.041  -3.154  -3.822  0.00  0.00    +0.076 A 
BRANCH  33  39
ATOM     39  O   UNL     1      -1.165  -2.701  -4.607  0.00  0.00    -0.490 OA
BRANCH  39  41
ATOM     40  C   UNL     1      -3.338  -2.082  -5.466  0.00  0.00    +0.048 C 
ATOM     41  C   UNL     1      -2.569  -2.891  -4.419  0.00  0.00    +0.226 C 
ENDBRANCH  39  41
ENDBRANCH  33  39
ENDBRANCH  29  38
ENDBRANCH   1  30
TORSDOF 10
