REMARK  Name = ZINC12743893
REMARK  5 active torsions:
REMARK  status: ('A' for Active; 'I' for Inactive)
REMARK    1  A    between atoms: C_3  and  N_12
REMARK    2  A    between atoms: C_4  and  C_10
REMARK    3  A    between atoms: C_6  and  N_7
REMARK    4  A    between atoms: C_16  and  C_19
REMARK    5  A    between atoms: C_19  and  O_20
REMARK                            x       y       z     vdW  Elec       q    Type
REMARK                         _______ _______ _______ _____ _____    ______ ____
ROOT
ATOM      1  C   UNL     1      -2.780   3.632  -4.293  0.00  0.00    +0.034 A 
ATOM      2  C   UNL     1      -2.013   3.138  -3.257  0.00  0.00    +0.026 A 
ATOM      3  C   UNL     1      -1.529   3.997  -2.280  0.00  0.00    +0.047 A 
ATOM      4  C   UNL     1      -1.828   5.367  -2.348  0.00  0.00    +0.075 A 
ATOM      5  C   UNL     1      -2.600   5.852  -3.407  0.00  0.00    +0.053 A 
ATOM      6  C   UNL     1      -3.072   4.984  -4.367  0.00  0.00    +0.128 A 
ENDROOT
BRANCH   3   7
ATOM      7  N   UNL     1      -0.756   3.502  -1.235  0.00  0.00    -0.329 N 
ATOM      8  C   UNL     1       0.622   4.002  -1.317  0.00  0.00    +0.105 C 
ATOM      9  C   UNL     1       1.402   3.557  -0.077  0.00  0.00    +0.019 C 
ATOM     10  C   UNL     1       1.397   2.027   0.001  0.00  0.00    +0.009 C 
ATOM     11  C   UNL     1      -0.051   1.531   0.036  0.00  0.00    +0.032 C 
ATOM     12  C   UNL     1      -0.788   2.034  -1.206  0.00  0.00    +0.111 C 
BRANCH  11  13
ATOM     13  C   UNL     1      -0.065   0.001   0.054  0.00  0.00    +0.160 C 
BRANCH  13  14
ATOM     14  O   UNL     1       0.524  -0.467   1.269  0.00  0.00    -0.395 OA
ATOM     15  H   UNL     1       0.549  -1.431   1.349  0.00  0.00    +0.209 HD
ENDBRANCH  13  14
ENDBRANCH  11  13
ENDBRANCH   3   7
BRANCH   6  16
ATOM     16  N   UNL     1      -3.896   5.499  -5.484  0.00  0.00    +0.056 N 
ATOM     17  O   UNL     1      -4.315   4.735  -6.335  0.00  0.00    -0.126 OA
ATOM     18  O   UNL     1      -4.155   6.688  -5.552  0.00  0.00    -0.126 OA
ENDBRANCH   6  16
BRANCH   4  19
ATOM     19  C   UNL     1      -1.340   6.263  -1.343  0.00  0.00    +0.101 C 
ATOM     20  N   UNL     1      -0.953   6.973  -0.545  0.00  0.00    -0.191 NA
ENDBRANCH   4  19
TORSDOF 5
