REMARK  Name = ZINC58357756
REMARK  11 active torsions:
REMARK  status: ('A' for Active; 'I' for Inactive)
REMARK    1  A    between atoms: C_1  and  C_2
REMARK    2  A    between atoms: C_2  and  C_3
REMARK    3  A    between atoms: C_3  and  C_36
REMARK    4  A    between atoms: N_6  and  N_10
REMARK    5  A    between atoms: C_11  and  C_13
REMARK    6  A    between atoms: C_13  and  N_14
REMARK    7  A    between atoms: N_14  and  C_15
REMARK    8  A    between atoms: N_14  and  C_25
REMARK    9  A    between atoms: C_15  and  C_16
REMARK   10  A    between atoms: C_30  and  C_35
REMARK   11  A    between atoms: C_32  and  C_34
REMARK                            x       y       z     vdW  Elec       q    Type
REMARK                         _______ _______ _______ _____ _____    ______ ____
ROOT
ATOM      1  N   UNL     1      -1.721  -5.418   5.347  0.00  0.00    +0.390 N 
ATOM      2  H   UNL     1      -2.323  -5.037   6.062  0.00  0.00    -0.080 HD
ENDROOT
BRANCH   1   3
ATOM      3  C   UNL     1      -1.300  -4.344   4.438  0.00  0.00    -0.064 C 
ATOM      4  C   UNL     1      -0.010  -3.709   4.963  0.00  0.00    -0.015 C 
ATOM      5  C   UNL     1       0.429  -2.590   4.017  0.00  0.00    -0.001 C 
ATOM      6  C   UNL     1      -0.669  -1.527   3.940  0.00  0.00    +0.003 C 
ATOM      7  C   UNL     1      -1.958  -2.162   3.415  0.00  0.00    -0.013 C 
ATOM      8  C   UNL     1      -2.397  -3.281   4.361  0.00  0.00    -0.025 C 
ATOM      9  C   UNL     1      -2.645  -2.702   5.756  0.00  0.00    +0.006 C 
ATOM     10  C   UNL     1      -3.056  -1.099   3.338  0.00  0.00    +0.008 C 
ENDBRANCH   1   3
BRANCH   1  11
ATOM     11  C   UNL     1      -2.451  -6.443   4.588  0.00  0.00    +0.021 C 
BRANCH  11  13
ATOM     12  N   UNL     1      -4.702  -6.706   3.596  0.00  0.00    -0.225 N 
ATOM     13  C   UNL     1      -3.886  -6.015   4.417  0.00  0.00    +0.213 C 
ATOM     14  O   UNL     1      -4.306  -5.049   5.018  0.00  0.00    -0.276 OA
ATOM     15  H   UNL     1      -4.365  -7.478   3.115  0.00  0.00    +0.173 HD
BRANCH  12  19
ATOM     16  C   UNL     1      -7.986  -5.447   2.615  0.00  0.00    +0.111 C 
ATOM     17  C   UNL     1      -6.511  -5.675   2.346  0.00  0.00    +0.263 C 
ATOM     18  O   UNL     1      -5.890  -5.354   1.356  0.00  0.00    -0.271 OA
ATOM     19  N   UNL     1      -6.035  -6.308   3.437  0.00  0.00    -0.137 N 
ATOM     20  C   UNL     1      -6.994  -6.509   4.348  0.00  0.00    +0.326 C 
ATOM     21  O   UNL     1      -6.807  -7.061   5.414  0.00  0.00    -0.251 OA
ATOM     22  N   UNL     1      -8.188  -6.033   3.952  0.00  0.00    -0.284 N 
ATOM     23  C   UNL     1      -8.844  -6.170   1.575  0.00  0.00    +0.041 C 
ATOM     24  H   UNL     1      -9.020  -6.069   4.449  0.00  0.00    +0.151 HD
BRANCH  16  26
ATOM     25  C   UNL     1      -9.736  -3.740   3.130  0.00  0.00    +0.006 C 
ATOM     26  C   UNL     1      -8.306  -3.951   2.629  0.00  0.00    +0.032 C 
ENDBRANCH  16  26
ENDBRANCH  12  19
ENDBRANCH  11  13
ENDBRANCH   1  11
BRANCH   1  27
ATOM     27  C   UNL     1      -0.538  -6.023   5.973  0.00  0.00    -0.042 C 
BRANCH  27  28
ATOM     28  C   UNL     1      -0.050  -5.133   7.087  0.00  0.00    -0.060 A 
ATOM     29  C   UNL     1       1.303  -4.889   7.232  0.00  0.00    +0.005 A 
ATOM     30  C   UNL     1       1.756  -4.073   8.252  0.00  0.00    +0.050 A 
ATOM     31  C   UNL     1       0.854  -3.498   9.132  0.00  0.00    +0.166 A 
ATOM     32  C   UNL     1      -0.509  -3.744   8.986  0.00  0.00    +0.166 A 
ATOM     33  C   UNL     1      -0.956  -4.558   7.958  0.00  0.00    +0.051 A 
ATOM     34  O   UNL     1      -1.181  -3.071   9.966  0.00  0.00    -0.453 OA
ATOM     35  C   UNL     1      -0.189  -2.742  10.956  0.00  0.00    +0.466 C 
ATOM     36  O   UNL     1       1.036  -2.671  10.203  0.00  0.00    -0.453 OA
ENDBRANCH  27  28
ENDBRANCH   1  27
TORSDOF 7
