REMARK  Name = ZINC20610758
REMARK  7 active torsions:
REMARK  status: ('A' for Active; 'I' for Inactive)
REMARK    1  A    between atoms: C_1  and  C_2
REMARK    2  A    between atoms: C_16  and  C_19
REMARK    3  A    between atoms: C_19  and  C_20
REMARK    4  A    between atoms: N_25  and  C_28
REMARK    5  A    between atoms: C_28  and  C_29
REMARK    6  A    between atoms: C_34  and  O_35
REMARK    7  A    between atoms: O_35  and  C_36
REMARK                            x       y       z     vdW  Elec       q    Type
REMARK                         _______ _______ _______ _____ _____    ______ ____
ROOT
ATOM      1  C   UNL     1      -0.018   1.503   0.010  0.00  0.00    +0.045 C 
ATOM      2  C   UNL     1       0.002  -0.004   0.002  0.00  0.00    -0.029 A 
ATOM      3  C   UNL     1       0.006  -0.685  -1.198  0.00  0.00    +0.005 A 
ATOM      4  C   UNL     1       0.024  -2.068  -1.216  0.00  0.00    +0.001 A 
ATOM      5  C   UNL     1       0.039  -2.772  -0.025  0.00  0.00    +0.008 A 
ATOM      6  C   UNL     1       0.035  -2.096   1.175  0.00  0.00    +0.004 A 
ATOM      7  C   UNL     1       0.023  -0.705   1.205  0.00  0.00    +0.042 A 
ATOM      8  N   UNL     1       0.031  -0.250   2.526  0.00  0.00    -0.283 N 
ATOM      9  C   UNL     1       0.054  -1.264   3.412  0.00  0.00    +0.243 C 
ATOM     10  O   UNL     1       0.068  -1.169   4.621  0.00  0.00    -0.273 OA
ATOM     11  C   UNL     1       0.045  -2.538   2.611  0.00  0.00    +0.136 C 
ATOM     12  C   UNL     1       1.276  -3.394   2.929  0.00  0.00    +0.122 C 
ATOM     13  C   UNL     1       0.766  -4.449   3.950  0.00  0.00    +0.107 C 
ATOM     14  C   UNL     1      -0.729  -4.119   4.147  0.00  0.00    +0.076 C 
ATOM     15  N   UNL     1      -1.125  -3.378   2.927  0.00  0.00    -0.295 NA
ATOM     16  C   UNL     1       1.533  -4.114   5.210  0.00  0.00    +0.227 C 
ATOM     17  O   UNL     1       1.437  -4.701   6.266  0.00  0.00    -0.275 OA
ATOM     18  N   UNL     1       2.334  -3.068   4.977  0.00  0.00    -0.237 N 
ATOM     19  C   UNL     1       2.277  -2.579   3.717  0.00  0.00    +0.229 C 
ATOM     20  O   UNL     1       2.914  -1.644   3.284  0.00  0.00    -0.275 OA
ATOM     21  H   UNL     1       0.022   0.687   2.776  0.00  0.00    +0.155 HD
ATOM     22  H   UNL     1      -1.943  -2.811   3.093  0.00  0.00    +0.124 HD
ENDROOT
BRANCH  14  23
ATOM     23  C   UNL     1      -1.543  -5.405   4.298  0.00  0.00    +0.115 C 
BRANCH  23  24
ATOM     24  C   UNL     1      -2.976  -5.059   4.611  0.00  0.00    +0.212 C 
ATOM     25  O   UNL     1      -3.313  -3.898   4.703  0.00  0.00    -0.276 OA
ATOM     26  N   UNL     1      -3.883  -6.040   4.787  0.00  0.00    -0.329 N 
ATOM     27  H   UNL     1      -3.613  -6.969   4.714  0.00  0.00    +0.145 HD
ATOM     28  H   UNL     1      -4.805  -5.817   4.988  0.00  0.00    +0.145 HD
ENDBRANCH  23  24
ENDBRANCH  14  23
BRANCH  18  29
ATOM     29  C   UNL     1       3.211  -2.498   6.004  0.00  0.00    +0.155 C 
BRANCH  29  30
ATOM     30  C   UNL     1       4.551  -3.186   5.959  0.00  0.00    +0.012 A 
ATOM     31  C   UNL     1       4.844  -4.187   6.865  0.00  0.00    +0.009 A 
ATOM     32  C   UNL     1       6.074  -4.819   6.824  0.00  0.00    +0.001 A 
ATOM     33  C   UNL     1       7.012  -4.451   5.878  0.00  0.00    +0.004 A 
ATOM     34  C   UNL     1       6.723  -3.451   4.969  0.00  0.00    +0.046 A 
ATOM     35  C   UNL     1       5.488  -2.819   5.004  0.00  0.00    +0.125 A 
BRANCH  35  36
ATOM     36  O   UNL     1       5.199  -1.839   4.108  0.00  0.00    -0.495 OA
ATOM     37  C   UNL     1       6.212  -1.514   3.154  0.00  0.00    +0.277 C 
ENDBRANCH  35  36
ENDBRANCH  29  30
ENDBRANCH  18  29
TORSDOF 5
