REMARK  Name = ZINC48939031
REMARK  3 active torsions:
REMARK  status: ('A' for Active; 'I' for Inactive)
REMARK    1  A    between atoms: C_2  and  C_18
REMARK    2  A    between atoms: C_8  and  N_9
REMARK    3  A    between atoms: C_10  and  C_12
REMARK                            x       y       z     vdW  Elec       q    Type
REMARK                         _______ _______ _______ _____ _____    ______ ____
ROOT
ATOM      1  C   UNL     1      -0.009   1.360   0.019  0.00  0.00    +0.042 A 
ATOM      2  C   UNL     1       1.208   2.057   0.013  0.00  0.00    +0.073 A 
ATOM      3  C   UNL     1       2.377   1.377  -0.005  0.00  0.00    +0.098 A 
ATOM      4  N   UNL     1       2.393   0.018  -0.019  0.00  0.00    -0.327 N 
ATOM      5  H   UNL     1       3.242  -0.452  -0.032  0.00  0.00    +0.168 HD
ATOM      6  C   UNL     1       1.244  -0.685  -0.014  0.00  0.00    +0.270 A 
ATOM      7  O   UNL     1       1.274  -1.905  -0.026  0.00  0.00    -0.266 OA
ATOM      8  C   UNL     1       0.005  -0.009   0.005  0.00  0.00    +0.099 A 
ENDROOT
BRANCH   8   9
ATOM      9  N   UNL     1      -1.196  -0.729   0.010  0.00  0.00    -0.277 N 
ATOM     10  C   UNL     1      -1.481  -1.572  -1.003  0.00  0.00    +0.258 C 
ATOM     11  O   UNL     1      -0.658  -1.772  -1.877  0.00  0.00    -0.269 OA
ATOM     12  H   UNL     1      -1.823  -0.622   0.742  0.00  0.00    +0.155 HD
BRANCH  10  13
ATOM     13  C   UNL     1      -2.780  -2.247  -1.051  0.00  0.00    +0.112 A 
ATOM     14  C   UNL     1      -3.279  -3.148  -1.983  0.00  0.00    +0.149 A 
ATOM     15  N   UNL     1      -4.492  -3.594  -1.766  0.00  0.00    -0.235 NA
ATOM     16  C   UNL     1      -5.193  -3.209  -0.724  0.00  0.00    +0.158 A 
ATOM     17  S   UNL     1      -4.161  -2.148   0.077  0.00  0.00    -0.069 S 
ATOM     18 CL   UNL     1      -2.349  -3.654  -3.359  0.00  0.00    -0.061 Cl
ENDBRANCH  10  13
ENDBRANCH   8   9
BRANCH   2  19
ATOM     19  C   UNL     1       1.212   3.563   0.028  0.00  0.00    +0.419 C 
ATOM     20  F   UNL     1       2.533   4.026   0.020  0.00  0.00    -0.166 F 
ATOM     21  F   UNL     1       0.543   4.043  -1.103  0.00  0.00    -0.166 F 
ATOM     22  F   UNL     1       0.565   4.021   1.181  0.00  0.00    -0.166 F 
ENDBRANCH   2  19
TORSDOF 3
