REMARK  Name = ZINC12293446
REMARK  6 active torsions:
REMARK  status: ('A' for Active; 'I' for Inactive)
REMARK    1  A    between atoms: C_1  and  C_2
REMARK    2  A    between atoms: C_5  and  C_8
REMARK    3  A    between atoms: C_8  and  C_10
REMARK    4  A    between atoms: C_8  and  O_28
REMARK    5  A    between atoms: C_10  and  N_53
REMARK    6  A    between atoms: C_17  and  O_27
REMARK                            x       y       z     vdW  Elec       q    Type
REMARK                         _______ _______ _______ _____ _____    ______ ____
ROOT
ATOM      1  C   UNL     1      -1.048   2.984  -1.081  0.00  0.00    -0.075 C 
ATOM      2  C   UNL     1      -1.792   3.429  -2.342  0.00  0.00    +0.029 C 
ATOM      3  C   UNL     1      -0.862   3.297  -3.550  0.00  0.00    +0.110 C 
ATOM      4  C   UNL     1      -0.373   1.852  -3.661  0.00  0.00    +0.029 C 
ATOM      5  C   UNL     1       0.329   1.454  -2.360  0.00  0.00    -0.075 C 
ATOM      6  C   UNL     1      -1.623   3.680  -4.824  0.00  0.00    +0.084 C 
ATOM      7  C   UNL     1      -0.704   3.443  -6.025  0.00  0.00    +0.152 C 
ATOM      8  C   UNL     1       0.646   4.059  -5.761  0.00  0.00    +0.024 A 
ATOM      9  C   UNL     1       1.492   4.296  -6.831  0.00  0.00    +0.029 A 
ATOM     10  C   UNL     1       2.741   4.851  -6.624  0.00  0.00    +0.042 A 
ATOM     11  C   UNL     1       3.150   5.172  -5.342  0.00  0.00    +0.023 A 
ATOM     12  C   UNL     1       2.310   4.940  -4.272  0.00  0.00    +0.047 A 
ATOM     13  C   UNL     1       1.052   4.383  -4.478  0.00  0.00    +0.127 A 
ATOM     14  O   UNL     1       0.251   4.176  -3.400  0.00  0.00    -0.485 OA
ATOM     15 CL   UNL     1       3.796   5.144  -7.972  0.00  0.00    -0.084 Cl
ATOM     16  N   UNL     1      -0.631   1.575  -1.242  0.00  0.00    +0.382 N 
ATOM     17  H   UNL     1      -1.458   1.004  -1.450  0.00  0.00    -0.082 HD
ENDROOT
BRANCH   7  18
ATOM     18  O   UNL     1      -1.279   4.039  -7.189  0.00  0.00    -0.387 OA
ATOM     19  H   UNL     1      -0.751   3.926  -7.992  0.00  0.00    +0.210 HD
ENDBRANCH   7  18
BRANCH  16  20
ATOM     20  C   UNL     1      -0.013   1.086   0.008  0.00  0.00    -0.042 C 
BRANCH  20  21
ATOM     21  C   UNL     1       0.201  -0.425  -0.107  0.00  0.00    +0.128 C 
BRANCH  21  26
ATOM     22  C   UNL     1       2.561  -2.413   4.779  0.00  0.00    +0.044 C 
ATOM     23  C   UNL     1       1.945  -1.894   3.505  0.00  0.00    -0.050 A 
ATOM     24  C   UNL     1       2.752  -1.566   2.432  0.00  0.00    +0.004 A 
ATOM     25  C   UNL     1       2.187  -1.090   1.263  0.00  0.00    +0.006 A 
ATOM     26  C   UNL     1       0.816  -0.943   1.167  0.00  0.00    -0.021 A 
ATOM     27  C   UNL     1       0.010  -1.267   2.243  0.00  0.00    +0.006 A 
ATOM     28  C   UNL     1       0.574  -1.747   3.410  0.00  0.00    +0.004 A 
ENDBRANCH  21  26
BRANCH  21  29
ATOM     29  O   UNL     1      -1.057  -1.068  -0.325  0.00  0.00    -0.389 OA
ATOM     30  H   UNL     1      -1.700  -0.924   0.383  0.00  0.00    +0.210 HD
ENDBRANCH  21  29
ENDBRANCH  20  21
ENDBRANCH  16  20
TORSDOF 5
