REMARK  Name = ZINC57477805
REMARK  10 active torsions:
REMARK  status: ('A' for Active; 'I' for Inactive)
REMARK    1  A    between atoms: C_1  and  C_2
REMARK    2  A    between atoms: C_6  and  O_8
REMARK    3  A    between atoms: O_8  and  C_9
REMARK    4  A    between atoms: C_9  and  C_10
REMARK    5  A    between atoms: C_10  and  C_12
REMARK    6  A    between atoms: C_10  and  O_30
REMARK    7  A    between atoms: C_12  and  N_13
REMARK    8  A    between atoms: N_16  and  C_17
REMARK    9  A    between atoms: N_21  and  C_23
REMARK   10  A    between atoms: C_23  and  C_24
REMARK                            x       y       z     vdW  Elec       q    Type
REMARK                         _______ _______ _______ _____ _____    ______ ____
ROOT
ATOM      1  N   UNL     1       0.242  -6.886   4.944  0.00  0.00    -0.297 N 
ATOM      2  C   UNL     1       0.362  -8.218   5.113  0.00  0.00    +0.300 C 
ATOM      3  O   UNL     1       0.459  -8.947   4.144  0.00  0.00    -0.253 OA
ATOM      4  N   UNL     1       0.375  -8.742   6.354  0.00  0.00    -0.298 N 
ATOM      5  H   UNL     1       0.165  -6.304   5.717  0.00  0.00    +0.150 HD
ATOM      6  H   UNL     1       0.297  -8.160   7.127  0.00  0.00    +0.150 HD
ENDROOT
BRANCH   4   7
ATOM      7  C   UNL     1       0.506 -10.189   6.538  0.00  0.00    +0.056 C 
ATOM      8  C   UNL     1      -0.886 -10.862   6.507  0.00  0.00    +0.002 C 
ATOM      9  C   UNL     1      -0.772 -11.945   7.608  0.00  0.00    -0.077 C 
ATOM     10  N   UNL     1       0.042 -11.280   8.657  0.00  0.00    +0.384 N 
ATOM     11  C   UNL     1       1.075 -10.502   7.934  0.00  0.00    -0.056 C 
ATOM     12  H   UNL     1      -0.536 -10.663   9.208  0.00  0.00    -0.081 HD
BRANCH  10  13
ATOM     13  C   UNL     1       0.678 -12.285   9.519  0.00  0.00    -0.043 C 
BRANCH  13  14
ATOM     14  C   UNL     1      -0.381 -13.021  10.298  0.00  0.00    -0.064 A 
ATOM     15  C   UNL     1      -0.786 -12.547  11.532  0.00  0.00    +0.002 A 
ATOM     16  C   UNL     1      -1.758 -13.223  12.247  0.00  0.00    +0.000 A 
ATOM     17  C   UNL     1      -2.325 -14.371  11.727  0.00  0.00    +0.000 A 
ATOM     18  C   UNL     1      -1.921 -14.844  10.493  0.00  0.00    +0.000 A 
ATOM     19  C   UNL     1      -0.952 -14.166   9.776  0.00  0.00    +0.002 A 
ENDBRANCH  13  14
ENDBRANCH  10  13
ENDBRANCH   4   7
BRANCH   1  20
ATOM     20  C   UNL     1       0.228  -6.317   3.594  0.00  0.00    +0.140 C 
BRANCH  20  21
ATOM     21  C   UNL     1       0.083  -4.796   3.683  0.00  0.00    +0.169 C 
BRANCH  21  22
ATOM     22  O   UNL     1      -1.140  -4.473   4.349  0.00  0.00    -0.387 OA
ATOM     23  H   UNL     1      -1.930  -4.810   3.905  0.00  0.00    +0.210 HD
ENDBRANCH  21  22
BRANCH  21  24
ATOM     24  C   UNL     1       0.069  -4.202   2.274  0.00  0.00    +0.261 C 
BRANCH  24  25
ATOM     25  O   UNL     1       0.050  -2.776   2.358  0.00  0.00    -0.489 OA
BRANCH  25  31
ATOM     26  C   UNL     1      -0.018   1.503   0.010  0.00  0.00    +0.044 C 
ATOM     27  C   UNL     1       0.002  -0.004   0.002  0.00  0.00    -0.047 A 
ATOM     28  C   UNL     1       0.006  -0.688  -1.200  0.00  0.00    +0.003 A 
ATOM     29  C   UNL     1       0.024  -2.071  -1.211  0.00  0.00    +0.004 A 
ATOM     30  C   UNL     1       0.039  -2.772  -0.020  0.00  0.00    +0.045 A 
ATOM     31  C   UNL     1       0.035  -2.088   1.186  0.00  0.00    +0.121 A 
ATOM     32  C   UNL     1       0.023  -0.700   1.195  0.00  0.00    +0.049 A 
ENDBRANCH  25  31
ENDBRANCH  24  25
ENDBRANCH  21  24
ENDBRANCH  20  21
ENDBRANCH   1  20
TORSDOF 9
