REMARK  Name = ZINC67019954
REMARK  5 active torsions:
REMARK  status: ('A' for Active; 'I' for Inactive)
REMARK    1  A    between atoms: C_3  and  C_12
REMARK    2  A    between atoms: N_14  and  C_15
REMARK    3  A    between atoms: C_18  and  C_21
REMARK    4  A    between atoms: C_22  and  C_23
REMARK    5  A    between atoms: C_22  and  C_25
REMARK                            x       y       z     vdW  Elec       q    Type
REMARK                         _______ _______ _______ _____ _____    ______ ____
ROOT
ATOM      1  C   UNL     1       2.850   3.571  -0.930  0.00  0.00    +0.252 C 
ATOM      2  O   UNL     1       3.390   3.001  -0.002  0.00  0.00    -0.270 OA
ATOM      3  N   UNL     1       3.468   4.604  -1.537  0.00  0.00    -0.281 N 
ATOM      4  H   UNL     1       3.056   5.032  -2.304  0.00  0.00    +0.155 HD
ENDROOT
BRANCH   1   7
ATOM      5  C   UNL     1      -0.349   3.373  -2.888  0.00  0.00    +0.003 A 
ATOM      6  C   UNL     1       0.894   3.786  -2.459  0.00  0.00    +0.017 A 
ATOM      7  C   UNL     1       1.520   3.133  -1.392  0.00  0.00    +0.080 A 
ATOM      8  C   UNL     1       0.875   2.061  -0.766  0.00  0.00    +0.154 A 
ATOM      9  C   UNL     1      -0.382   1.656  -1.212  0.00  0.00    +0.076 A 
ATOM     10  C   UNL     1      -0.988   2.312  -2.269  0.00  0.00    +0.027 A 
ATOM     11  N   UNL     1      -1.018   0.578  -0.578  0.00  0.00    -0.280 N 
ATOM     12  C   UNL     1      -0.563   0.166   0.625  0.00  0.00    +0.255 C 
ATOM     13  O   UNL     1      -1.077  -0.784   1.178  0.00  0.00    -0.272 OA
ATOM     14  C   UNL     1       0.587   0.890   1.278  0.00  0.00    +0.325 C 
ATOM     15  O   UNL     1       1.459   1.411   0.272  0.00  0.00    -0.480 OA
ATOM     16  H   UNL     1      -1.773   0.136  -0.997  0.00  0.00    +0.155 HD
ENDBRANCH   1   7
BRANCH   3  17
ATOM     17  C   UNL     1       4.696   5.057  -1.063  0.00  0.00    +0.034 A 
ATOM     18  C   UNL     1       4.981   6.420  -1.064  0.00  0.00    +0.024 A 
ATOM     19  C   UNL     1       6.184   6.869  -0.601  0.00  0.00    +0.010 A 
ATOM     20  C   UNL     1       7.134   5.955  -0.123  0.00  0.00    -0.024 A 
ATOM     21  C   UNL     1       6.843   4.583  -0.124  0.00  0.00    +0.010 A 
ATOM     22  C   UNL     1       5.634   4.145  -0.585  0.00  0.00    +0.024 A 
BRANCH  20  23
ATOM     23  C   UNL     1       8.426   6.431   0.375  0.00  0.00    +0.032 C 
ATOM     24  C   UNL     1       8.488   7.559   1.164  0.00  0.00    +0.114 C 
BRANCH  24  25
ATOM     25  C   UNL     1       7.270   8.070   1.812  0.00  0.00    +0.252 C 
ATOM     26  O   UNL     1       6.229   7.446   1.730  0.00  0.00    -0.270 OA
ATOM     27  N   UNL     1       7.307   9.230   2.497  0.00  0.00    -0.325 N 
ATOM     28  H   UNL     1       8.137   9.728   2.563  0.00  0.00    +0.145 HD
ATOM     29  H   UNL     1       6.504   9.567   2.925  0.00  0.00    +0.145 HD
ENDBRANCH  24  25
BRANCH  24  30
ATOM     30  C   UNL     1       9.737   8.233   1.354  0.00  0.00    +0.104 C 
ATOM     31  N   UNL     1      10.727   8.768   1.504  0.00  0.00    -0.191 NA
ENDBRANCH  24  30
ENDBRANCH  20  23
ENDBRANCH   3  17
TORSDOF 5
