REMARK  Name = ZINC11440863
REMARK  12 active torsions:
REMARK  status: ('A' for Active; 'I' for Inactive)
REMARK    1  A    between atoms: C_1  and  C_2
REMARK    2  A    between atoms: C_4  and  C_34
REMARK    3  A    between atoms: C_5  and  N_9
REMARK    4  A    between atoms: C_6  and  C_8
REMARK    5  A    between atoms: C_10  and  C_12
REMARK    6  A    between atoms: C_12  and  C_14
REMARK    7  A    between atoms: C_12  and  O_15
REMARK    8  A    between atoms: O_15  and  C_16
REMARK    9  A    between atoms: C_16  and  C_18
REMARK   10  A    between atoms: C_18  and  C_19
REMARK   11  A    between atoms: C_19  and  N_20
REMARK   12  A    between atoms: N_23  and  C_24
REMARK                            x       y       z     vdW  Elec       q    Type
REMARK                         _______ _______ _______ _____ _____    ______ ____
ROOT
ATOM      1  C   UNL     1      -2.373   6.828   1.397  0.00  0.00    +0.309 C 
ATOM      2  O   UNL     1      -3.496   6.432   1.599  0.00  0.00    -0.251 OA
ENDROOT
BRANCH   1   3
ATOM      3  O   UNL     1      -1.483   6.036   0.778  0.00  0.00    -0.452 OA
BRANCH   3   4
ATOM      4  C   UNL     1      -1.941   4.717   0.380  0.00  0.00    +0.259 C 
ATOM      5  C   UNL     1      -2.517   4.783  -1.036  0.00  0.00    +0.062 C 
BRANCH   4   7
ATOM      6  N   UNL     1      -0.988   2.444   0.168  0.00  0.00    -0.282 N 
ATOM      7  C   UNL     1      -0.781   3.754   0.405  0.00  0.00    +0.258 C 
ATOM      8  O   UNL     1       0.338   4.159   0.639  0.00  0.00    -0.271 OA
ATOM      9  H   UNL     1      -1.890   2.111   0.040  0.00  0.00    +0.155 HD
BRANCH   6  14
ATOM     10  C   UNL     1       3.424  -1.114  -0.070  0.00  0.00    +0.044 C 
ATOM     11  C   UNL     1       2.251  -0.170  -0.007  0.00  0.00    -0.050 A 
ATOM     12  C   UNL     1       2.167   0.885  -0.898  0.00  0.00    +0.008 A 
ATOM     13  C   UNL     1       1.093   1.752  -0.844  0.00  0.00    -0.029 A 
ATOM     14  C   UNL     1       0.098   1.564   0.107  0.00  0.00    +0.039 A 
ATOM     15  C   UNL     1       0.186   0.504   1.000  0.00  0.00    -0.029 A 
ATOM     16  C   UNL     1       1.262  -0.360   0.940  0.00  0.00    +0.008 A 
ATOM     17  C   UNL     1      -0.891   0.297   2.033  0.00  0.00    +0.045 C 
ATOM     18  C   UNL     1       1.001   2.900  -1.815  0.00  0.00    +0.045 C 
ENDBRANCH   6  14
ENDBRANCH   4   7
ENDBRANCH   3   4
ENDBRANCH   1   3
BRANCH   1  19
ATOM     19  C   UNL     1      -1.970   8.211   1.841  0.00  0.00    +0.139 C 
BRANCH  19  20
ATOM     20  C   UNL     1      -3.160   8.898   2.514  0.00  0.00    +0.117 C 
BRANCH  20  21
ATOM     21  N   UNL     1      -2.769  10.242   2.945  0.00  0.00    -0.299 N 
ATOM     22  C   UNL     1      -3.662  11.037   3.566  0.00  0.00    +0.300 C 
ATOM     23  O   UNL     1      -4.793  10.639   3.769  0.00  0.00    -0.253 OA
ATOM     24  N   UNL     1      -3.302  12.274   3.962  0.00  0.00    -0.294 N 
ATOM     25  H   UNL     1      -1.867  10.560   2.783  0.00  0.00    +0.150 HD
ATOM     26  H   UNL     1      -2.400  12.592   3.800  0.00  0.00    +0.151 HD
BRANCH  24  27
ATOM     27  C   UNL     1      -4.273  13.138   4.638  0.00  0.00    +0.037 C 
ATOM     28  C   UNL     1      -5.469  13.380   3.716  0.00  0.00    +0.029 C 
ATOM     29  C   UNL     1      -6.483  14.282   4.421  0.00  0.00    -0.008 C 
ATOM     30  C   UNL     1      -5.824  15.620   4.762  0.00  0.00    +0.007 C 
ATOM     31  C   UNL     1      -4.627  15.379   5.685  0.00  0.00    -0.008 C 
ATOM     32  C   UNL     1      -3.614  14.476   4.979  0.00  0.00    +0.029 C 
ATOM     33  C   UNL     1      -5.104  14.703   6.972  0.00  0.00    +0.007 C 
ATOM     34  C   UNL     1      -5.763  13.365   6.631  0.00  0.00    -0.008 C 
ATOM     35  C   UNL     1      -6.959  13.606   5.708  0.00  0.00    +0.007 C 
ATOM     36  C   UNL     1      -4.749  12.462   5.925  0.00  0.00    +0.029 C 
ENDBRANCH  24  27
ENDBRANCH  20  21
ENDBRANCH  19  20
ENDBRANCH   1  19
TORSDOF 8
