REMARK  Name = ZINC58352450
REMARK  5 active torsions:
REMARK  status: ('A' for Active; 'I' for Inactive)
REMARK    1  A    between atoms: C_1  and  C_2
REMARK    2  A    between atoms: C_3  and  N_12
REMARK    3  A    between atoms: C_5  and  C_9
REMARK    4  A    between atoms: C_13  and  C_15
REMARK    5  A    between atoms: C_15  and  C_16
REMARK                            x       y       z     vdW  Elec       q    Type
REMARK                         _______ _______ _______ _____ _____    ______ ____
ROOT
ATOM      1  N   UNL     1      -0.010   0.019  -2.413  0.00  0.00    -0.285 N 
ATOM      2  C   UNL     1       0.095  -0.641  -3.583  0.00  0.00    +0.219 C 
ATOM      3  O   UNL     1       0.112  -1.854  -3.597  0.00  0.00    -0.275 OA
ATOM      4  H   UNL     1      -0.104   0.984  -2.407  0.00  0.00    +0.155 HD
ENDROOT
BRANCH   1   7
ATOM      5  C   UNL     1      -1.264   1.190  -0.148  0.00  0.00    +0.048 C 
ATOM      6  C   UNL     1      -0.584  -0.153  -0.073  0.00  0.00    +0.006 A 
ATOM      7  C   UNL     1       0.017  -0.689  -1.206  0.00  0.00    +0.040 A 
ATOM      8  C   UNL     1       0.642  -1.924  -1.141  0.00  0.00    +0.036 A 
ATOM      9  C   UNL     1       0.667  -2.627   0.064  0.00  0.00    +0.041 A 
ATOM     10  C   UNL     1       0.061  -2.082   1.197  0.00  0.00    +0.051 A 
ATOM     11  C   UNL     1      -0.556  -0.847   1.124  0.00  0.00    +0.129 A 
ATOM     12  F   UNL     1      -1.138  -0.318   2.223  0.00  0.00    -0.205 F 
BRANCH   9  13
ATOM     13  C   UNL     1       1.332  -3.945   0.140  0.00  0.00    +0.242 C 
ATOM     14  O   UNL     1       1.858  -4.418  -0.848  0.00  0.00    -0.270 OA
ATOM     15  N   UNL     1       1.355  -4.622   1.305  0.00  0.00    -0.325 N 
ATOM     16  H   UNL     1       0.934  -4.245   2.094  0.00  0.00    +0.145 HD
ATOM     17  H   UNL     1       1.791  -5.487   1.355  0.00  0.00    +0.145 HD
ENDBRANCH   9  13
ENDBRANCH   1   7
BRANCH   2  18
ATOM     18  C   UNL     1       0.192   0.128  -4.876  0.00  0.00    +0.120 C 
BRANCH  18  19
ATOM     19  C   UNL     1       0.301  -0.853  -6.046  0.00  0.00    +0.146 C 
ATOM     20  C   UNL     1       0.496  -0.089  -7.330  0.00  0.00    +0.231 C 
ATOM     21  O   UNL     1       1.621   0.027  -7.768  0.00  0.00    -0.274 OA
ATOM     22  N   UNL     1      -0.506   0.464  -8.007  0.00  0.00    -0.284 N 
ATOM     23  C   UNL     1      -1.864   0.340  -7.729  0.00  0.00    +0.047 A 
ATOM     24  C   UNL     1      -2.759   1.238  -8.303  0.00  0.00    +0.024 A 
ATOM     25  C   UNL     1      -4.110   1.142  -8.035  0.00  0.00    +0.002 A 
ATOM     26  C   UNL     1      -4.590   0.153  -7.195  0.00  0.00    +0.001 A 
ATOM     27  C   UNL     1      -3.713  -0.749  -6.621  0.00  0.00    +0.016 A 
ATOM     28  C   UNL     1      -2.357  -0.659  -6.890  0.00  0.00    +0.030 A 
ATOM     29  S   UNL     1      -1.233  -1.820  -6.178  0.00  0.00    -0.110 S 
ATOM     30  H   UNL     1      -0.266   1.009  -8.772  0.00  0.00    +0.155 HD
ENDBRANCH  18  19
ENDBRANCH   2  18
TORSDOF 4
