REMARK  Name = ZINC63159180
REMARK  5 active torsions:
REMARK  status: ('A' for Active; 'I' for Inactive)
REMARK    1  A    between atoms: C_1  and  C_2
REMARK    2  A    between atoms: C_11  and  N_13
REMARK    3  A    between atoms: C_16  and  C_19
REMARK    4  A    between atoms: C_19  and  N_20
REMARK    5  A    between atoms: N_20  and  C_21
REMARK                            x       y       z     vdW  Elec       q    Type
REMARK                         _______ _______ _______ _____ _____    ______ ____
ROOT
ATOM      1  C   UNL     1       2.736  -0.396   5.986  0.00  0.00    +0.046 C 
ATOM      2  C   UNL     1       1.498  -0.338   5.129  0.00  0.00    -0.028 A 
ATOM      3  C   UNL     1       0.644   0.742   5.226  0.00  0.00    +0.020 A 
ATOM      4  C   UNL     1      -0.495   0.805   4.444  0.00  0.00    +0.019 A 
ATOM      5  C   UNL     1      -0.780  -0.222   3.558  0.00  0.00    +0.022 A 
ATOM      6  C   UNL     1       0.071  -1.299   3.460  0.00  0.00    +0.001 A 
ATOM      7  C   UNL     1       1.221  -1.371   4.236  0.00  0.00    +0.042 A 
ATOM      8  N   UNL     1       1.920  -2.546   3.955  0.00  0.00    -0.283 N 
ATOM      9  C   UNL     1       1.309  -3.288   3.017  0.00  0.00    +0.239 C 
ATOM     10  O   UNL     1       1.691  -4.354   2.580  0.00  0.00    -0.273 OA
ATOM     11  C   UNL     1       0.049  -2.552   2.615  0.00  0.00    +0.176 C 
ATOM     12 BR   UNL     1      -1.661   2.287   4.584  0.00  0.00    -0.050 Br
ATOM     13  H   UNL     1       2.751  -2.797   4.388  0.00  0.00    +0.155 HD
ENDROOT
BRANCH  11  14
ATOM     14  N   UNL     1      -1.146  -3.352   2.912  0.00  0.00    -0.288 NA
ATOM     15  C   UNL     1      -1.327  -4.417   1.917  0.00  0.00    +0.085 C 
ATOM     16  C   UNL     1      -2.654  -5.136   2.172  0.00  0.00    +0.017 C 
ATOM     17  C   UNL     1      -2.646  -5.727   3.584  0.00  0.00    -0.026 C 
ATOM     18  C   UNL     1      -2.408  -4.604   4.598  0.00  0.00    +0.017 C 
ATOM     19  C   UNL     1      -1.088  -3.901   4.273  0.00  0.00    +0.085 C 
BRANCH  17  20
ATOM     20  C   UNL     1      -3.993  -6.394   3.867  0.00  0.00    -0.079 C 
BRANCH  20  21
ATOM     21  N   UNL     1      -3.943  -7.064   5.174  0.00  0.00    +0.377 N 
ATOM     22  C   UNL     1      -5.237  -7.704   5.446  0.00  0.00    -0.100 C 
ATOM     23  H   UNL     1      -3.216  -7.764   5.165  0.00  0.00    -0.086 HD
ATOM     24  H   UNL     1      -3.747  -6.384   5.893  0.00  0.00    -0.086 HD
ENDBRANCH  20  21
ENDBRANCH  17  20
ENDBRANCH  11  14
TORSDOF 3
