REMARK  Name = ZINC37008883
REMARK  6 active torsions:
REMARK  status: ('A' for Active; 'I' for Inactive)
REMARK    1  A    between atoms: C_1  and  C_2
REMARK    2  A    between atoms: C_5  and  N_18
REMARK    3  A    between atoms: C_7  and  N_8
REMARK    4  A    between atoms: N_8  and  C_9
REMARK    5  A    between atoms: C_9  and  C_11
REMARK    6  A    between atoms: C_9  and  C_12
REMARK                            x       y       z     vdW  Elec       q    Type
REMARK                         _______ _______ _______ _____ _____    ______ ____
ROOT
ATOM      1  C   UNL     1      -0.018   1.503   0.010  0.00  0.00    +0.045 C 
ATOM      2  C   UNL     1       0.002  -0.004   0.002  0.00  0.00    -0.029 A 
ATOM      3  C   UNL     1       0.006  -0.688  -1.199  0.00  0.00    +0.007 A 
ATOM      4  C   UNL     1       0.025  -2.069  -1.210  0.00  0.00    +0.028 A 
ATOM      5  C   UNL     1       0.041  -2.775  -0.014  0.00  0.00    +0.071 A 
ATOM      6  C   UNL     1       0.037  -2.093   1.193  0.00  0.00    +0.051 A 
ATOM      7  C   UNL     1       0.023  -0.705   1.202  0.00  0.00    +0.033 A 
ENDROOT
BRANCH   5   8
ATOM      8  N   UNL     1       0.060  -4.178  -0.028  0.00  0.00    -0.200 N 
ATOM      9  C   UNL     1       0.164  -4.986  -1.104  0.00  0.00    +0.250 A 
ATOM     10  N   UNL     1       0.142  -6.219  -0.668  0.00  0.00    -0.116 NA
ATOM     11  N   UNL     1       0.031  -6.244   0.611  0.00  0.00    -0.023 NA
ATOM     12  N   UNL     1      -0.020  -5.043   1.078  0.00  0.00    -0.039 NA
ENDBRANCH   5   8
BRANCH   7  13
ATOM     13  N   UNL     1       0.025  -0.013   2.415  0.00  0.00    -0.337 N 
ATOM     14  H   UNL     1       0.012   0.957   2.421  0.00  0.00    +0.147 HD
BRANCH  13  15
ATOM     15  C   UNL     1       0.047  -0.753   3.680  0.00  0.00    +0.104 C 
ATOM     16  C   UNL     1      -1.381  -1.138   4.070  0.00  0.00    +0.033 C 
BRANCH  15  17
ATOM     17  C   UNL     1       0.646   0.113   4.758  0.00  0.00    +0.011 A 
ATOM     18  C   UNL     1       1.504  -0.230   5.749  0.00  0.00    +0.014 A 
ATOM     19  C   UNL     1       1.927   0.743   6.636  0.00  0.00    +0.028 A 
ATOM     20  C   UNL     1       1.470   2.011   6.488  0.00  0.00    +0.078 A 
ATOM     21  S   UNL     1       0.415   1.858   5.056  0.00  0.00    -0.080 S 
ATOM     22 CL   UNL     1       1.824   3.420   7.439  0.00  0.00    -0.076 Cl
ENDBRANCH  15  17
ENDBRANCH  13  15
ENDBRANCH   7  13
TORSDOF 4
