REMARK  Name = ZINC14558670
REMARK  8 active torsions:
REMARK  status: ('A' for Active; 'I' for Inactive)
REMARK    1  A    between atoms: C_5  and  C_7
REMARK    2  A    between atoms: N_11  and  C_15
REMARK    3  A    between atoms: C_15  and  C_16
REMARK    4  A    between atoms: C_16  and  N_17
REMARK    5  A    between atoms: C_18  and  C_20
REMARK    6  A    between atoms: C_20  and  O_21
REMARK    7  A    between atoms: O_21  and  C_22
REMARK    8  A    between atoms: C_27  and  C_28
REMARK                            x       y       z     vdW  Elec       q    Type
REMARK                         _______ _______ _______ _____ _____    ______ ____
ROOT
ATOM      1  C   UNL     1      -1.771  -1.076  -0.963  0.00  0.00    +0.123 C 
ENDROOT
BRANCH   1   2
ATOM      2  N   UNL     1      -3.046  -1.791  -0.874  0.00  0.00    -0.311 N 
ATOM      3  C   UNL     1      -3.650  -2.235  -1.994  0.00  0.00    +0.251 C 
ATOM      4  O   UNL     1      -3.136  -2.042  -3.076  0.00  0.00    -0.272 OA
ATOM      5  H   UNL     1      -3.457  -1.945  -0.009  0.00  0.00    +0.149 HD
BRANCH   3   6
ATOM      6  C   UNL     1      -4.962  -2.970  -1.903  0.00  0.00    +0.324 C 
BRANCH   6   7
ATOM      7  O   UNL     1      -5.396  -3.335  -3.215  0.00  0.00    -0.482 OA
BRANCH   7   8
ATOM      8  C   UNL     1      -6.569  -4.009  -3.310  0.00  0.00    +0.133 A 
ATOM      9  C   UNL     1      -7.289  -4.320  -2.166  0.00  0.00    +0.046 A 
ATOM     10  C   UNL     1      -8.486  -5.001  -2.265  0.00  0.00    +0.004 A 
ATOM     11  C   UNL     1      -8.971  -5.388  -3.503  0.00  0.00    +0.001 A 
ATOM     12  C   UNL     1      -8.266  -5.093  -4.650  0.00  0.00    +0.017 A 
ATOM     13  C   UNL     1      -7.057  -4.399  -4.564  0.00  0.00    +0.078 A 
BRANCH  13  14
ATOM     14  C   UNL     1      -6.297  -4.080  -5.788  0.00  0.00    +0.245 C 
ATOM     15  O   UNL     1      -5.244  -3.476  -5.710  0.00  0.00    -0.270 OA
ATOM     16  N   UNL     1      -6.769  -4.457  -6.993  0.00  0.00    -0.325 N 
ATOM     17  H   UNL     1      -7.609  -4.938  -7.055  0.00  0.00    +0.145 HD
ATOM     18  H   UNL     1      -6.270  -4.247  -7.797  0.00  0.00    +0.145 HD
ENDBRANCH  13  14
ENDBRANCH   7   8
ENDBRANCH   6   7
ENDBRANCH   3   6
ENDBRANCH   1   2
BRANCH   1  19
ATOM     19  C   UNL     1      -1.306  -0.685   0.442  0.00  0.00    +0.136 C 
BRANCH  19  24
ATOM     20  C   UNL     1       1.583   3.323   0.004  0.00  0.00    +0.031 C 
ATOM     21  C   UNL     1       1.283   2.007   0.139  0.00  0.00    +0.080 C 
ATOM     22  C   UNL     1      -0.035   1.346   0.223  0.00  0.00    +0.260 C 
ATOM     23  O   UNL     1      -1.073   1.980   0.171  0.00  0.00    -0.269 OA
ATOM     24  N   UNL     1      -0.031   0.030   0.353  0.00  0.00    -0.227 N 
ATOM     25  C   UNL     1       1.121  -0.669   0.405  0.00  0.00    +0.286 C 
ATOM     26  O   UNL     1       1.272  -1.870   0.520  0.00  0.00    -0.262 OA
ATOM     27  S   UNL     1       2.373   0.596   0.262  0.00  0.00    -0.026 S 
BRANCH  20  32
ATOM     28  C   UNL     1       5.249   3.377   0.787  0.00  0.00    +0.001 A 
ATOM     29  C   UNL     1       5.611   4.619   0.294  0.00  0.00    +0.003 A 
ATOM     30  C   UNL     1       4.667   5.442  -0.294  0.00  0.00    +0.039 A 
ATOM     31  C   UNL     1       3.352   5.029  -0.393  0.00  0.00    +0.131 A 
ATOM     32  C   UNL     1       2.978   3.772   0.104  0.00  0.00    +0.011 A 
ATOM     33  C   UNL     1       3.941   2.951   0.702  0.00  0.00    +0.011 A 
ATOM     34  F   UNL     1       2.430   5.833  -0.966  0.00  0.00    -0.205 F 
ENDBRANCH  20  32
ENDBRANCH  19  24
ENDBRANCH   1  19
TORSDOF 8
