REMARK  Name = ZINC53168460
REMARK  4 active torsions:
REMARK  status: ('A' for Active; 'I' for Inactive)
REMARK    1  A    between atoms: C_4  and  N_7
REMARK    2  A    between atoms: C_8  and  S_12
REMARK    3  A    between atoms: S_12  and  C_13
REMARK    4  A    between atoms: C_14  and  N_21
REMARK                            x       y       z     vdW  Elec       q    Type
REMARK                         _______ _______ _______ _____ _____    ______ ____
ROOT
ATOM      1  S   UNL     1       2.828  -2.820   1.539  0.00  0.00    -0.043 S 
ENDROOT
BRANCH   1   2
ATOM      2  C   UNL     1       3.812  -4.199   2.024  0.00  0.00    +0.074 A 
ATOM      3  C   UNL     1       3.862  -5.338   1.222  0.00  0.00    +0.042 A 
ATOM      4  C   UNL     1       4.638  -6.420   1.607  0.00  0.00    +0.027 A 
ATOM      5  C   UNL     1       5.361  -6.370   2.785  0.00  0.00    +0.043 A 
ATOM      6  C   UNL     1       5.313  -5.240   3.583  0.00  0.00    +0.160 A 
ATOM      7  C   UNL     1       4.544  -4.151   3.202  0.00  0.00    +0.174 A 
ATOM      8  F   UNL     1       4.504  -3.047   3.980  0.00  0.00    -0.201 F 
ATOM      9  F   UNL     1       6.021  -5.196   4.733  0.00  0.00    -0.202 F 
BRANCH   3  10
ATOM     10  N   UNL     1       3.130  -5.389   0.029  0.00  0.00    -0.357 N 
ATOM     11  H   UNL     1       2.587  -4.632  -0.240  0.00  0.00    +0.142 HD
ATOM     12  H   UNL     1       3.165  -6.183  -0.529  0.00  0.00    +0.142 HD
ENDBRANCH   3  10
ENDBRANCH   1   2
BRANCH   1  14
ATOM     13  N   UNL     1       3.624  -0.652  -0.037  0.00  0.00    -0.187 N 
ATOM     14  C   UNL     1       3.920  -1.836   0.569  0.00  0.00    +0.219 A 
ATOM     15  N   UNL     1       5.179  -2.104   0.292  0.00  0.00    -0.101 NA
ATOM     16  N   UNL     1       5.686  -1.178  -0.439  0.00  0.00    -0.022 NA
ATOM     17  N   UNL     1       4.809  -0.267  -0.688  0.00  0.00    -0.038 NA
BRANCH  13  21
ATOM     18  C   UNL     1      -0.017   1.379   0.010  0.00  0.00    +0.000 A 
ATOM     19  C   UNL     1       1.170   2.089   0.002  0.00  0.00    +0.002 A 
ATOM     20  C   UNL     1       2.377   1.419  -0.013  0.00  0.00    +0.028 A 
ATOM     21  C   UNL     1       2.399   0.031  -0.021  0.00  0.00    +0.070 A 
ATOM     22  C   UNL     1       1.207  -0.680  -0.013  0.00  0.00    +0.028 A 
ATOM     23  C   UNL     1       0.002  -0.004   0.002  0.00  0.00    +0.002 A 
ENDBRANCH  13  21
ENDBRANCH   1  14
TORSDOF 4
