REMARK  Name = ZINC54825037
REMARK  5 active torsions:
REMARK  status: ('A' for Active; 'I' for Inactive)
REMARK    1  A    between atoms: C_4  and  C_14
REMARK    2  A    between atoms: C_6  and  N_10
REMARK    3  A    between atoms: N_10  and  C_11
REMARK    4  A    between atoms: C_11  and  C_12
REMARK    5  A    between atoms: C_12  and  O_13
REMARK                            x       y       z     vdW  Elec       q    Type
REMARK                         _______ _______ _______ _____ _____    ______ ____
ROOT
ATOM      1  C   UNL     1      -0.018   1.451   0.010  0.00  0.00    +0.000 C 
ATOM      2  C   UNL     1       1.400   2.058  -0.000  0.00  0.00    +0.001 C 
ATOM      3  C   UNL     1       1.923   2.027  -1.411  0.00  0.00    +0.020 C 
ATOM      4  C   UNL     1       2.769   0.771  -1.697  0.00  0.00    +0.108 C 
ATOM      5  C   UNL     1       2.162  -0.509  -1.093  0.00  0.00    +0.071 C 
ATOM      6  C   UNL     1       0.669  -0.576  -1.266  0.00  0.00    +0.020 C 
ATOM      7  C   UNL     1       0.002  -0.004   0.002  0.00  0.00    +0.002 C 
ENDROOT
BRANCH   5   8
ATOM      8  N   UNL     1       2.767  -1.677  -1.747  0.00  0.00    -0.310 NA
ATOM      9  H   UNL     1       2.327  -1.862  -2.635  0.00  0.00    +0.122 HD
BRANCH   8  10
ATOM     10  C   UNL     1       2.709  -2.858  -0.875  0.00  0.00    +0.109 C 
BRANCH  10  11
ATOM     11  C   UNL     1       3.347  -4.051  -1.589  0.00  0.00    +0.171 C 
BRANCH  11  12
ATOM     12  O   UNL     1       4.739  -3.797  -1.789  0.00  0.00    -0.394 OA
ATOM     13  H   UNL     1       5.209  -4.513  -2.238  0.00  0.00    +0.209 HD
ENDBRANCH  11  12
ENDBRANCH  10  11
ENDBRANCH   8  10
ENDBRANCH   5   8
BRANCH   4  14
ATOM     14  C   UNL     1       2.883   0.598  -3.155  0.00  0.00    +0.067 C 
ATOM     15  N   UNL     1       2.970   0.464  -4.279  0.00  0.00    -0.196 NA
ENDBRANCH   4  14
TORSDOF 5
