REMARK  Name = ZINC24536470
REMARK  8 active torsions:
REMARK  status: ('A' for Active; 'I' for Inactive)
REMARK    1  A    between atoms: C_3  and  C_9
REMARK    2  A    between atoms: C_4  and  N_8
REMARK    3  A    between atoms: C_9  and  O_11
REMARK    4  A    between atoms: O_11  and  C_12
REMARK    5  A    between atoms: C_12  and  C_13
REMARK    6  A    between atoms: N_15  and  C_16
REMARK    7  A    between atoms: C_16  and  C_17
REMARK    8  A    between atoms: N_19  and  C_20
REMARK                            x       y       z     vdW  Elec       q    Type
REMARK                         _______ _______ _______ _____ _____    ______ ____
ROOT
ATOM      1  C   UNL     1       2.654   2.544   0.033  0.00  0.00    +0.251 C 
ATOM      2  O   UNL     1       2.977   3.702   0.195  0.00  0.00    -0.272 OA
ATOM      3  N   UNL     1       1.365   2.178   0.178  0.00  0.00    -0.304 N 
ATOM      4  H   UNL     1       1.072   1.128   0.031  0.00  0.00    +0.149 HD
ENDROOT
BRANCH   1   5
ATOM      5  C   UNL     1       3.693   1.516  -0.331  0.00  0.00    +0.328 C 
BRANCH   5   6
ATOM      6  O   UNL     1       4.993   2.155  -0.427  0.00  0.00    -0.452 OA
BRANCH   6   7
ATOM      7  C   UNL     1       6.040   1.368  -0.747  0.00  0.00    +0.341 C 
ATOM      8  O   UNL     1       5.870   0.180  -0.940  0.00  0.00    -0.245 OA
BRANCH   7  11
ATOM      9  C   UNL     1       8.875   3.821  -0.632  0.00  0.00    +0.002 A 
ATOM     10  C   UNL     1       7.611   3.285  -0.523  0.00  0.00    +0.017 A 
ATOM     11  C   UNL     1       7.389   1.947  -0.863  0.00  0.00    +0.081 A 
ATOM     12  C   UNL     1       8.461   1.158  -1.309  0.00  0.00    +0.057 A 
ATOM     13  C   UNL     1       9.728   1.719  -1.419  0.00  0.00    +0.062 A 
ATOM     14  C   UNL     1       9.931   3.042  -1.079  0.00  0.00    +0.022 A 
ATOM     15 CL   UNL     1      11.059   0.753  -1.976  0.00  0.00    -0.082 Cl
BRANCH  12  16
ATOM     16  N   UNL     1       8.255  -0.174  -1.645  0.00  0.00    -0.356 N 
ATOM     17  H   UNL     1       9.097  -0.789  -1.994  0.00  0.00    +0.142 HD
ATOM     18  H   UNL     1       7.250  -0.613  -1.561  0.00  0.00    +0.142 HD
ENDBRANCH  12  16
ENDBRANCH   7  11
ENDBRANCH   6   7
ENDBRANCH   5   6
ENDBRANCH   1   5
BRANCH   3  19
ATOM     19  C   UNL     1       0.354   3.178   0.532  0.00  0.00    +0.200 C 
BRANCH  19  20
ATOM     20  C   UNL     1      -0.995   2.514   0.632  0.00  0.00    +0.234 C 
ATOM     21  O   UNL     1      -1.103   1.324   0.428  0.00  0.00    -0.274 OA
ATOM     22  N   UNL     1      -2.084   3.246   0.943  0.00  0.00    -0.284 N 
ATOM     23  H   UNL     1      -1.977   4.309   1.201  0.00  0.00    +0.155 HD
BRANCH  22  24
ATOM     24  C   UNL     1      -3.352   2.651   0.936  0.00  0.00    +0.036 A 
ATOM     25  C   UNL     1      -4.457   3.376   0.510  0.00  0.00    +0.026 A 
ATOM     26  C   UNL     1      -5.707   2.787   0.499  0.00  0.00    +0.043 A 
ATOM     27  C   UNL     1      -5.860   1.478   0.922  0.00  0.00    +0.159 A 
ATOM     28  C   UNL     1      -4.759   0.753   1.353  0.00  0.00    +0.160 A 
ATOM     29  C   UNL     1      -3.506   1.338   1.361  0.00  0.00    +0.064 A 
ATOM     30  F   UNL     1      -4.910  -0.524   1.766  0.00  0.00    -0.202 F 
ATOM     31  F   UNL     1      -7.084   0.905   0.915  0.00  0.00    -0.202 F 
ENDBRANCH  22  24
ENDBRANCH  19  20
ENDBRANCH   3  19
TORSDOF 8
