REMARK  Name = ZINC42345679
REMARK  10 active torsions:
REMARK  status: ('A' for Active; 'I' for Inactive)
REMARK    1  A    between atoms: C_1  and  C_2
REMARK    2  A    between atoms: C_2  and  N_3
REMARK    3  A    between atoms: N_3  and  C_4
REMARK    4  A    between atoms: N_3  and  C_6
REMARK    5  A    between atoms: C_4  and  C_5
REMARK    6  A    between atoms: C_6  and  C_8
REMARK    7  A    between atoms: C_6  and  C_21
REMARK    8  A    between atoms: C_8  and  N_9
REMARK    9  A    between atoms: N_12  and  N_13
REMARK   10  A    between atoms: C_14  and  C_16
REMARK                            x       y       z     vdW  Elec       q    Type
REMARK                         _______ _______ _______ _____ _____    ______ ____
ROOT
ATOM      1  N   UNL     1       2.398  -2.396  -2.777  0.00  0.00    -0.299 N 
ATOM      2  C   UNL     1       3.069  -2.672  -3.912  0.00  0.00    +0.316 C 
ATOM      3  O   UNL     1       2.487  -3.170  -4.857  0.00  0.00    -0.251 OA
ATOM      4  N   UNL     1       4.386  -2.396  -4.001  0.00  0.00    -0.218 N 
ATOM      5  H   UNL     1       2.863  -1.999  -2.023  0.00  0.00    +0.150 HD
ATOM      6  H   UNL     1       4.869  -2.595  -4.819  0.00  0.00    +0.174 HD
ENDROOT
BRANCH   4   7
ATOM      7  N   UNL     1       5.056  -1.823  -2.913  0.00  0.00    -0.229 N 
ATOM      8  C   UNL     1       6.373  -1.547  -3.002  0.00  0.00    +0.267 C 
ATOM      9  O   UNL     1       6.979  -1.796  -4.028  0.00  0.00    -0.268 OA
ATOM     10  H   UNL     1       4.574  -1.624  -2.096  0.00  0.00    +0.173 HD
BRANCH   8  11
ATOM     11  C   UNL     1       7.074  -0.947  -1.864  0.00  0.00    +0.075 A 
ATOM     12  C   UNL     1       8.408  -0.585  -1.752  0.00  0.00    +0.021 A 
ATOM     13  C   UNL     1       8.779  -0.038  -0.546  0.00  0.00    +0.008 A 
ATOM     14  C   UNL     1       7.845   0.107   0.426  0.00  0.00    +0.046 A 
ATOM     15  S   UNL     1       6.434  -0.487  -0.265  0.00  0.00    -0.092 S 
ENDBRANCH   8  11
ENDBRANCH   4   7
BRANCH   1  16
ATOM     16  C   UNL     1       0.968  -2.696  -2.680  0.00  0.00    +0.095 C 
BRANCH  16  17
ATOM     17  C   UNL     1       0.418  -2.142  -1.364  0.00  0.00    -0.020 C 
BRANCH  17  18
ATOM     18  C   UNL     1      -0.994  -2.627  -1.165  0.00  0.00    -0.052 A 
ATOM     19  C   UNL     1      -1.258  -3.691  -0.323  0.00  0.00    +0.009 A 
ATOM     20  C   UNL     1      -2.540  -4.103  -0.166  0.00  0.00    +0.045 A 
ATOM     21  S   UNL     1      -3.424  -2.972  -1.228  0.00  0.00    -0.105 S 
ATOM     22  C   UNL     1      -2.026  -2.024  -1.805  0.00  0.00    +0.047 A 
ENDBRANCH  17  18
BRANCH  17  23
ATOM     23  N   UNL     1       0.430  -0.673  -1.408  0.00  0.00    +0.385 N 
ATOM     24  H   UNL     1      -0.056  -0.358  -2.235  0.00  0.00    -0.081 HD
BRANCH  23  26
ATOM     25  C   UNL     1      -0.353   1.380  -0.327  0.00  0.00    -0.017 C 
ATOM     26  C   UNL     1      -0.241  -0.142  -0.214  0.00  0.00    -0.081 C 
ENDBRANCH  23  26
BRANCH  23  27
ATOM     27  C   UNL     1       1.818  -0.195  -1.444  0.00  0.00    -0.081 C 
ATOM     28  C   UNL     1       2.583  -0.759  -0.245  0.00  0.00    -0.017 C 
ENDBRANCH  23  27
ENDBRANCH  17  23
ENDBRANCH  16  17
ENDBRANCH   1  16
TORSDOF 8
