REMARK  Name = ZINC58371270
REMARK  11 active torsions:
REMARK  status: ('A' for Active; 'I' for Inactive)
REMARK    1  A    between atoms: C_1  and  C_2
REMARK    2  A    between atoms: C_2  and  C_3
REMARK    3  A    between atoms: C_2  and  C_4
REMARK    4  A    between atoms: C_4  and  C_5
REMARK    5  A    between atoms: C_5  and  N_6
REMARK    6  A    between atoms: C_14  and  S_15
REMARK    7  A    between atoms: S_15  and  C_16
REMARK    8  A    between atoms: C_16  and  C_17
REMARK    9  A    between atoms: C_17  and  C_19
REMARK   10  A    between atoms: C_20  and  N_31
REMARK   11  A    between atoms: N_21  and  C_28
REMARK                            x       y       z     vdW  Elec       q    Type
REMARK                         _______ _______ _______ _____ _____    ______ ____
ROOT
ATOM      1  C   UNL     1      -4.624  -1.957  -5.318  0.00  0.00    +0.182 C 
ATOM      2  O   UNL     1      -3.498  -1.640  -5.646  0.00  0.00    -0.291 OA
ENDROOT
BRANCH   1   3
ATOM      3  C   UNL     1      -5.489  -2.559  -6.256  0.00  0.00    +0.120 A 
ATOM      4  C   UNL     1      -5.123  -2.679  -7.608  0.00  0.00    +0.116 A 
ATOM      5  N   UNL     1      -5.995  -3.269  -8.478  0.00  0.00    -0.278 N 
ATOM      6  C   UNL     1      -7.185  -3.732  -8.067  0.00  0.00    +0.331 A 
ATOM      7  O   UNL     1      -7.925  -4.249  -8.881  0.00  0.00    -0.246 OA
ATOM      8  N   UNL     1      -7.589  -3.645  -6.789  0.00  0.00    -0.274 N 
ATOM      9  H   UNL     1      -8.459  -3.993  -6.537  0.00  0.00    +0.173 HD
ATOM     10  C   UNL     1      -6.799  -3.084  -5.851  0.00  0.00    +0.266 A 
ATOM     11  O   UNL     1      -7.166  -3.012  -4.692  0.00  0.00    -0.267 OA
BRANCH   5  12
ATOM     12  C   UNL     1      -5.622  -3.400  -9.889  0.00  0.00    +0.094 C 
ATOM     13  C   UNL     1      -5.831  -4.763 -10.552  0.00  0.00    +0.027 C 
ATOM     14  C   UNL     1      -4.417  -4.281 -10.223  0.00  0.00    +0.027 C 
ENDBRANCH   5  12
BRANCH   4  15
ATOM     15  N   UNL     1      -3.920  -2.215  -8.042  0.00  0.00    -0.344 N 
ATOM     16  H   UNL     1      -3.168  -2.171  -7.431  0.00  0.00    +0.144 HD
ATOM     17  H   UNL     1      -3.815  -1.928  -8.963  0.00  0.00    +0.144 HD
ENDBRANCH   4  15
ENDBRANCH   1   3
BRANCH   1  18
ATOM     18  C   UNL     1      -5.096  -1.708  -3.909  0.00  0.00    +0.157 C 
BRANCH  18  19
ATOM     19  S   UNL     1      -3.765  -0.929  -2.954  0.00  0.00    -0.080 S 
BRANCH  19  28
ATOM     20  N   UNL     1      -3.819  -0.147  -0.285  0.00  0.00    -0.319 N 
ATOM     21  C   UNL     1      -4.707  -0.149   0.778  0.00  0.00    +0.069 A 
ATOM     22  C   UNL     1      -4.633   0.283   2.094  0.00  0.00    +0.028 A 
ATOM     23  C   UNL     1      -5.722   0.136   2.928  0.00  0.00    +0.002 A 
ATOM     24  C   UNL     1      -6.893  -0.440   2.459  0.00  0.00    +0.002 A 
ATOM     25  C   UNL     1      -6.985  -0.875   1.155  0.00  0.00    +0.030 A 
ATOM     26  C   UNL     1      -5.891  -0.733   0.298  0.00  0.00    +0.090 A 
ATOM     27  N   UNL     1      -5.679  -1.054  -1.005  0.00  0.00    -0.222 NA
ATOM     28  C   UNL     1      -4.464  -0.706  -1.352  0.00  0.00    +0.170 A 
BRANCH  20  29
ATOM     29  C   UNL     1      -2.446   0.364  -0.269  0.00  0.00    +0.124 C 
BRANCH  29  30
ATOM     30  C   UNL     1      -2.449   1.845  -0.656  0.00  0.00    +0.024 C 
BRANCH  30  32
ATOM     31  C   UNL     1      -1.004   3.823  -1.146  0.00  0.00    +0.007 C 
ATOM     32  C   UNL     1      -1.016   2.379  -0.640  0.00  0.00    -0.016 C 
ATOM     33  C   UNL     1      -0.471   2.335   0.789  0.00  0.00    +0.007 C 
ENDBRANCH  30  32
ENDBRANCH  29  30
ENDBRANCH  20  29
ENDBRANCH  19  28
ENDBRANCH  18  19
ENDBRANCH   1  18
TORSDOF 9
