REMARK  Name = ZINC67040052
REMARK  6 active torsions:
REMARK  status: ('A' for Active; 'I' for Inactive)
REMARK    1  A    between atoms: C_1  and  C_2
REMARK    2  A    between atoms: C_2  and  C_3
REMARK    3  A    between atoms: C_2  and  N_4
REMARK    4  A    between atoms: C_5  and  C_7
REMARK    5  A    between atoms: C_7  and  N_8
REMARK    6  A    between atoms: C_15  and  C_18
REMARK                            x       y       z     vdW  Elec       q    Type
REMARK                         _______ _______ _______ _____ _____    ______ ____
ROOT
ATOM      1  N   UNL     1      -3.088  -3.594  -1.069  0.00  0.00    -0.291 N 
ATOM      2  C   UNL     1      -4.254  -4.264  -1.161  0.00  0.00    +0.303 C 
ATOM      3  O   UNL     1      -5.265  -3.795  -0.674  0.00  0.00    -0.253 OA
ATOM      4  N   UNL     1      -4.300  -5.452  -1.795  0.00  0.00    -0.281 N 
ATOM      5  C   UNL     1      -3.072  -6.096  -2.288  0.00  0.00    +0.137 C 
ATOM      6  C   UNL     1      -3.051  -7.545  -1.786  0.00  0.00    +0.179 C 
ATOM      7  O   UNL     1      -4.284  -8.181  -2.132  0.00  0.00    -0.369 OA
ATOM      8  C   UNL     1      -5.436  -7.591  -1.525  0.00  0.00    +0.166 C 
ATOM      9  C   UNL     1      -5.579  -6.148  -2.009  0.00  0.00    +0.145 C 
ATOM     10  H   UNL     1      -2.269  -3.999  -1.393  0.00  0.00    +0.151 HD
ENDROOT
BRANCH   8  11
ATOM     11  C   UNL     1      -6.664  -8.377  -1.908  0.00  0.00    -0.015 A 
ATOM     12  C   UNL     1      -6.753  -8.951  -3.163  0.00  0.00    +0.009 A 
ATOM     13  C   UNL     1      -7.877  -9.672  -3.517  0.00  0.00    +0.041 A 
ATOM     14  C   UNL     1      -8.916  -9.821  -2.614  0.00  0.00    +0.158 A 
ATOM     15  C   UNL     1      -8.827  -9.246  -1.356  0.00  0.00    +0.159 A 
ATOM     16  C   UNL     1      -7.697  -8.528  -1.003  0.00  0.00    +0.047 A 
ATOM     17  F   UNL     1      -9.840  -9.389  -0.474  0.00  0.00    -0.202 F 
ATOM     18  F   UNL     1     -10.016 -10.525  -2.959  0.00  0.00    -0.202 F 
ENDBRANCH   8  11
BRANCH   1  19
ATOM     19  C   UNL     1      -3.058  -2.254  -0.477  0.00  0.00    +0.201 C 
BRANCH  19  21
ATOM     20  N   UNL     1      -1.375  -0.506   0.004  0.00  0.00    -0.312 N 
ATOM     21  C   UNL     1      -1.645  -1.730  -0.493  0.00  0.00    +0.230 C 
ATOM     22  O   UNL     1      -0.752  -2.409  -0.953  0.00  0.00    -0.274 OA
ATOM     23  H   UNL     1      -2.090   0.036   0.372  0.00  0.00    +0.149 HD
BRANCH  20  25
ATOM     24  C   UNL     1      -0.025   1.533  -0.002  0.00  0.00    +0.027 C 
ATOM     25  C   UNL     1      -0.002   0.003  -0.011  0.00  0.00    +0.067 C 
ATOM     26  C   UNL     1       0.744  -0.503   1.225  0.00  0.00    +0.027 C 
ENDBRANCH  20  25
ENDBRANCH  19  21
ENDBRANCH   1  19
TORSDOF 4
