REMARK  Name = ZINC66670159
REMARK  6 active torsions:
REMARK  status: ('A' for Active; 'I' for Inactive)
REMARK    1  A    between atoms: C_1  and  C_2
REMARK    2  A    between atoms: C_2  and  C_4
REMARK    3  A    between atoms: C_2  and  N_13
REMARK    4  A    between atoms: N_13  and  C_14
REMARK    5  A    between atoms: N_17  and  C_18
REMARK    6  A    between atoms: C_23  and  N_24
REMARK                            x       y       z     vdW  Elec       q    Type
REMARK                         _______ _______ _______ _____ _____    ______ ____
ROOT
ATOM      1  N   UNL     1       0.706  -0.474   1.199  0.00  0.00    -0.279 N 
ATOM      2  C   UNL     1       2.104  -0.097   1.423  0.00  0.00    +0.134 C 
ATOM      3  C   UNL     1       0.073  -1.272   2.081  0.00  0.00    +0.307 C 
ATOM      4  O   UNL     1      -1.087  -1.585   1.895  0.00  0.00    -0.252 OA
ATOM      5  N   UNL     1       0.727  -1.724   3.170  0.00  0.00    -0.266 N 
ATOM      6  H   UNL     1       1.673  -1.543   3.277  0.00  0.00    +0.156 HD
ENDROOT
BRANCH   5   7
ATOM      7  C   UNL     1       0.038  -2.456   4.146  0.00  0.00    +0.079 A 
ATOM      8  C   UNL     1      -1.335  -2.307   4.302  0.00  0.00    +0.028 A 
ATOM      9  C   UNL     1      -1.973  -3.053   5.281  0.00  0.00    +0.022 A 
ATOM     10  C   UNL     1      -1.231  -3.914   6.067  0.00  0.00    +0.113 A 
ATOM     11  N   UNL     1       0.071  -4.037   5.898  0.00  0.00    -0.235 NA
ATOM     12  C   UNL     1       0.720  -3.349   4.973  0.00  0.00    +0.177 A 
BRANCH  12  13
ATOM     13  N   UNL     1       2.101  -3.516   4.825  0.00  0.00    -0.200 N 
ATOM     14  C   UNL     1       2.969  -3.938   5.766  0.00  0.00    +0.226 A 
ATOM     15  N   UNL     1       4.164  -3.958   5.234  0.00  0.00    -0.222 NA
ATOM     16  C   UNL     1       4.101  -3.559   3.964  0.00  0.00    +0.245 A 
ATOM     17  N   UNL     1       2.859  -3.283   3.666  0.00  0.00    -0.152 NA
ENDBRANCH  12  13
ENDBRANCH   5   7
BRANCH   1  19
ATOM     18  C   UNL     1      -0.032   1.547   0.035  0.00  0.00    +0.036 C 
ATOM     19  C   UNL     1      -0.004   0.017   0.015  0.00  0.00    +0.140 C 
BRANCH  19  20
ATOM     20  C   UNL     1       0.705  -0.456  -1.228  0.00  0.00    +0.126 A 
ATOM     21  C   UNL     1       0.096  -0.883  -2.343  0.00  0.00    +0.055 A 
ATOM     22  C   UNL     1       1.165  -1.238  -3.283  0.00  0.00    +0.020 A 
ATOM     23  C   UNL     1       1.194  -1.736  -4.585  0.00  0.00    +0.011 A 
ATOM     24  C   UNL     1       2.395  -1.966  -5.197  0.00  0.00    +0.001 A 
ATOM     25  C   UNL     1       3.584  -1.709  -4.529  0.00  0.00    +0.004 A 
ATOM     26  C   UNL     1       3.575  -1.217  -3.242  0.00  0.00    +0.047 A 
ATOM     27  C   UNL     1       2.366  -0.975  -2.602  0.00  0.00    +0.135 A 
ATOM     28  O   UNL     1       2.039  -0.505  -1.382  0.00  0.00    -0.458 OA
ENDBRANCH  19  20
ENDBRANCH   1  19
TORSDOF 4
