REMARK  Name = ZINC66288079
REMARK  6 active torsions:
REMARK  status: ('A' for Active; 'I' for Inactive)
REMARK    1  A    between atoms: C_2  and  C_3
REMARK    2  A    between atoms: C_3  and  N_4
REMARK    3  A    between atoms: C_5  and  C_7
REMARK    4  A    between atoms: C_12  and  N_13
REMARK    5  A    between atoms: C_14  and  C_16
REMARK    6  A    between atoms: C_16  and  N_17
REMARK                            x       y       z     vdW  Elec       q    Type
REMARK                         _______ _______ _______ _____ _____    ______ ____
ROOT
ATOM      1  N   UNL     1       2.079   6.004  -0.165  0.00  0.00    -0.284 N 
ATOM      2  C   UNL     1       2.264   7.325  -0.356  0.00  0.00    +0.235 C 
ATOM      3  O   UNL     1       3.379   7.760  -0.554  0.00  0.00    -0.274 OA
ATOM      4  H   UNL     1       1.182   5.649  -0.067  0.00  0.00    +0.155 HD
ENDROOT
BRANCH   1  10
ATOM      5  C   UNL     1       3.231   4.135   0.859  0.00  0.00    +0.058 A 
ATOM      6  C   UNL     1       4.335   3.280   0.902  0.00  0.00    +0.015 A 
ATOM      7  C   UNL     1       5.364   3.440  -0.001  0.00  0.00    +0.001 A 
ATOM      8  C   UNL     1       5.310   4.446  -0.952  0.00  0.00    +0.002 A 
ATOM      9  C   UNL     1       4.226   5.299  -1.006  0.00  0.00    +0.024 A 
ATOM     10  C   UNL     1       3.177   5.149  -0.109  0.00  0.00    +0.046 A 
BRANCH   5  12
ATOM     11  N   UNL     1       2.124   2.922   2.672  0.00  0.00    -0.300 N 
ATOM     12  C   UNL     1       2.126   3.968   1.822  0.00  0.00    +0.247 C 
ATOM     13  O   UNL     1       1.216   4.775   1.849  0.00  0.00    -0.270 OA
ATOM     14  H   UNL     1       2.850   2.278   2.650  0.00  0.00    +0.150 HD
BRANCH  11  15
ATOM     15  C   UNL     1       1.027   2.756   3.628  0.00  0.00    +0.193 C 
BRANCH  15  17
ATOM     16  C   UNL     1       1.441   0.583   5.079  0.00  0.00    +0.005 C 
ATOM     17  C   UNL     1       1.257   1.548   4.435  0.00  0.00    -0.087 C 
ENDBRANCH  15  17
ENDBRANCH  11  15
ENDBRANCH   5  12
ENDBRANCH   1  10
BRANCH   2  18
ATOM     18  C   UNL     1       1.085   8.263  -0.325  0.00  0.00    +0.214 C 
BRANCH  18  19
ATOM     19  N   UNL     1       1.545   9.635  -0.557  0.00  0.00    -0.215 N 
ATOM     20  C   UNL     1       1.929  10.482   0.420  0.00  0.00    +0.247 C 
ATOM     21  O   UNL     1       1.958  10.262   1.612  0.00  0.00    -0.273 OA
ATOM     22  C   UNL     1       2.316  11.762  -0.284  0.00  0.00    +0.113 C 
ATOM     23  C   UNL     1       3.785  12.083  -0.034  0.00  0.00    +0.035 C 
ATOM     24  C   UNL     1       4.164  13.365  -0.780  0.00  0.00    +0.003 C 
ATOM     25  C   UNL     1       3.282  14.517  -0.293  0.00  0.00    +0.000 C 
ATOM     26  C   UNL     1       1.814  14.190  -0.572  0.00  0.00    +0.003 C 
ATOM     27  C   UNL     1       1.426  12.911   0.175  0.00  0.00    +0.035 C 
ATOM     28  N   UNL     1       2.088  11.470  -1.705  0.00  0.00    -0.285 N 
ATOM     29  C   UNL     1       1.643  10.200  -1.766  0.00  0.00    +0.310 C 
ATOM     30  O   UNL     1       1.358   9.633  -2.803  0.00  0.00    -0.252 OA
ATOM     31  H   UNL     1       2.233  12.071  -2.452  0.00  0.00    +0.151 HD
ENDBRANCH  18  19
ENDBRANCH   2  18
TORSDOF 6
