REMARK  Name = ZINC48413506
REMARK  3 active torsions:
REMARK  status: ('A' for Active; 'I' for Inactive)
REMARK    1  A    between atoms: C_1  and  C_2
REMARK    2  A    between atoms: C_4  and  C_7
REMARK    3  A    between atoms: C_7  and  C_8
REMARK                            x       y       z     vdW  Elec       q    Type
REMARK                         _______ _______ _______ _____ _____    ______ ____
ROOT
ATOM      1  C   UNL     1      -2.796  -2.639   1.221  0.00  0.00    +0.138 A 
ATOM      2  N   UNL     1      -2.581  -3.243   2.377  0.00  0.00    -0.217 NA
ATOM      3  C   UNL     1      -3.434  -3.160   3.385  0.00  0.00    +0.128 A 
ATOM      4  C   UNL     1      -4.625  -2.398   3.224  0.00  0.00    +0.051 A 
ATOM      5  C   UNL     1      -5.703  -2.167   4.187  0.00  0.00    -0.025 A 
ATOM      6  C   UNL     1      -6.732  -1.397   3.780  0.00  0.00    -0.004 A 
ATOM      7  S   UNL     1      -6.335  -0.937   2.114  0.00  0.00    -0.073 S 
ATOM      8  C   UNL     1      -4.784  -1.784   1.965  0.00  0.00    +0.114 A 
ATOM      9  N   UNL     1      -3.878  -1.914   1.015  0.00  0.00    -0.224 NA
ATOM     10  C   UNL     1      -7.947  -1.015   4.568  0.00  0.00    +0.043 C 
ATOM     11  C   UNL     1      -8.038  -1.935   5.794  0.00  0.00    +0.005 C 
ATOM     12  C   UNL     1      -6.665  -1.988   6.471  0.00  0.00    +0.005 C 
ATOM     13  C   UNL     1      -5.683  -2.763   5.592  0.00  0.00    +0.037 C 
ATOM     14  N   UNL     1      -3.172  -3.807   4.579  0.00  0.00    -0.343 N 
ATOM     15  H   UNL     1      -2.277  -4.128   4.771  0.00  0.00    +0.144 HD
ATOM     16  H   UNL     1      -3.884  -3.940   5.225  0.00  0.00    +0.144 HD
ENDROOT
BRANCH   1  17
ATOM     17  C   UNL     1      -1.780  -2.778   0.117  0.00  0.00    +0.132 C 
BRANCH  17  21
ATOM     18  C   UNL     1      -0.463   2.041   0.399  0.00  0.00    +0.073 C 
ATOM     19  C   UNL     1      -0.233   0.553   0.355  0.00  0.00    +0.076 A 
ATOM     20  N   UNL     1      -1.121  -0.405   0.257  0.00  0.00    -0.249 NA
ATOM     21  C   UNL     1      -0.762  -1.673   0.230  0.00  0.00    +0.056 A 
ATOM     22  C   UNL     1       0.567  -1.938   0.309  0.00  0.00    +0.070 A 
ATOM     23  S   UNL     1       1.227  -0.282   0.413  0.00  0.00    -0.081 S 
ENDBRANCH  17  21
ENDBRANCH   1  17
TORSDOF 2
