REMARK  Name = ZINC27519326
REMARK  7 active torsions:
REMARK  status: ('A' for Active; 'I' for Inactive)
REMARK    1  A    between atoms: C_4  and  C_7
REMARK    2  A    between atoms: N_9  and  C_10
REMARK    3  A    between atoms: C_10  and  C_12
REMARK    4  A    between atoms: C_10  and  C_24
REMARK    5  A    between atoms: N_26  and  N_27
REMARK    6  A    between atoms: C_28  and  C_29
REMARK    7  A    between atoms: C_34  and  N_35
REMARK                            x       y       z     vdW  Elec       q    Type
REMARK                         _______ _______ _______ _____ _____    ______ ____
ROOT
ATOM      1  C   UNL     1       6.094  -0.761   0.104  0.00  0.00    +0.212 C 
ENDROOT
BRANCH   1   2
ATOM      2  C   UNL     1       6.423  -1.092  -1.329  0.00  0.00    +0.099 A 
ATOM      3  C   UNL     1       7.317  -2.209  -1.634  0.00  0.00    +0.013 A 
ATOM      4  C   UNL     1       7.877  -3.001  -0.630  0.00  0.00    +0.010 A 
ATOM      5  C   UNL     1       8.701  -4.038  -0.967  0.00  0.00    +0.001 A 
ATOM      6  C   UNL     1       8.987  -4.320  -2.296  0.00  0.00    +0.001 A 
ATOM      7  C   UNL     1       8.445  -3.559  -3.309  0.00  0.00    +0.014 A 
ATOM      8  C   UNL     1       7.601  -2.496  -2.989  0.00  0.00    +0.050 A 
ATOM      9  C   UNL     1       6.992  -1.648  -4.021  0.00  0.00    +0.272 A 
ATOM     10  O   UNL     1       7.211  -1.853  -5.202  0.00  0.00    -0.266 OA
ATOM     11  N   UNL     1       6.184  -0.637  -3.638  0.00  0.00    -0.242 N 
ATOM     12  H   UNL     1       5.717   0.011  -4.394  0.00  0.00    +0.192 HD
ATOM     13  N   UNL     1       5.918  -0.381  -2.292  0.00  0.00    -0.173 NA
ENDBRANCH   1   2
BRANCH   1  16
ATOM     14  C   UNL     1       3.659  -0.768   0.195  0.00  0.00    +0.245 C 
ATOM     15  O   UNL     1       3.692  -1.984   0.179  0.00  0.00    -0.270 OA
ATOM     16  N   UNL     1       4.807  -0.063   0.161  0.00  0.00    -0.295 N 
ATOM     17  H   UNL     1       4.777   1.036   0.175  0.00  0.00    +0.150 HD
BRANCH  14  21
ATOM     18  C   UNL     1      -0.073   1.254   0.359  0.00  0.00    +0.000 A 
ATOM     19  C   UNL     1       1.104   1.981   0.323  0.00  0.00    +0.001 A 
ATOM     20  C   UNL     1       2.319   1.331   0.270  0.00  0.00    +0.013 A 
ATOM     21  C   UNL     1       2.360  -0.065   0.253  0.00  0.00    +0.037 A 
ATOM     22  C   UNL     1       1.170  -0.792   0.288  0.00  0.00    +0.013 A 
ATOM     23  C   UNL     1      -0.039  -0.129   0.341  0.00  0.00    +0.001 A 
ENDBRANCH  14  21
ENDBRANCH   1  16
BRANCH   1  24
ATOM     24  C   UNL     1       7.171   0.125   0.675  0.00  0.00    +0.259 C 
ATOM     25  O   UNL     1       6.891   1.231   1.089  0.00  0.00    -0.272 OA
ATOM     26  N   UNL     1       8.445  -0.311   0.727  0.00  0.00    -0.205 N 
ATOM     27  H   UNL     1       8.699  -1.313   0.351  0.00  0.00    +0.177 HD
BRANCH  26  28
ATOM     28  N   UNL     1       9.447   0.513   1.258  0.00  0.00    -0.188 NA
ATOM     29  C   UNL     1      10.674   0.093   1.307  0.00  0.00    +0.140 C 
BRANCH  29  30
ATOM     30  C   UNL     1      11.727   0.960   1.866  0.00  0.00    +0.028 A 
ATOM     31  C   UNL     1      11.432   2.276   2.229  0.00  0.00    +0.061 A 
ATOM     32  C   UNL     1      12.423   3.085   2.753  0.00  0.00    +0.167 A 
ATOM     33  C   UNL     1      13.715   2.586   2.918  0.00  0.00    +0.168 A 
ATOM     34  C   UNL     1      14.007   1.279   2.558  0.00  0.00    +0.083 A 
ATOM     35  C   UNL     1      13.022   0.465   2.039  0.00  0.00    +0.138 A 
ATOM     36  O   UNL     1      14.497   3.572   3.448  0.00  0.00    -0.453 OA
ATOM     37  C   UNL     1      13.776   4.798   3.223  0.00  0.00    +0.466 C 
ATOM     38  O   UNL     1      12.398   4.382   3.180  0.00  0.00    -0.453 OA
BRANCH  35  39
ATOM     39  N   UNL     1      13.338  -0.931   1.660  0.00  0.00    +0.057 N 
ATOM     40  O   UNL     1      14.435  -1.397   1.913  0.00  0.00    -0.126 OA
ATOM     41  O   UNL     1      12.502  -1.613   1.095  0.00  0.00    -0.126 OA
ENDBRANCH  35  39
ENDBRANCH  29  30
ENDBRANCH  26  28
ENDBRANCH   1  24
TORSDOF 7
