REMARK  Name = ZINC52833939
REMARK  4 active torsions:
REMARK  status: ('A' for Active; 'I' for Inactive)
REMARK    1  A    between atoms: C_1  and  O_2
REMARK    2  A    between atoms: O_2  and  C_3
REMARK    3  A    between atoms: C_8  and  N_10
REMARK    4  A    between atoms: N_12  and  O_13
REMARK                            x       y       z     vdW  Elec       q    Type
REMARK                         _______ _______ _______ _____ _____    ______ ____
ROOT
ATOM      1  N   UNL     1       2.715  -1.908  -1.019  0.00  0.00    -0.348 N 
ATOM      2  C   UNL     1       3.548  -2.759  -0.323  0.00  0.00    +0.232 C 
ATOM      3  N   UNL     1       4.830  -2.739  -0.544  0.00  0.00    -0.051 NA
ATOM      4  N   UNL     1       3.022  -3.631   0.609  0.00  0.00    -0.367 N 
ATOM      5  H   UNL     1       3.084  -1.295  -1.674  0.00  0.00    +0.163 HD
ATOM      6  H   UNL     1       2.066  -3.645   0.774  0.00  0.00    +0.159 HD
ATOM      7  H   UNL     1       3.608  -4.229   1.098  0.00  0.00    +0.159 HD
ENDROOT
BRANCH   1  12
ATOM      8  C   UNL     1       0.652  -0.570  -1.138  0.00  0.00    +0.140 C 
ATOM      9  C   UNL     1      -0.379  -0.841  -2.253  0.00  0.00    +0.034 C 
ATOM     10  C   UNL     1       0.098  -2.167  -2.897  0.00  0.00    +0.005 C 
ATOM     11  C   UNL     1       0.594  -2.981  -1.675  0.00  0.00    +0.027 C 
ATOM     12  C   UNL     1       1.271  -1.930  -0.770  0.00  0.00    +0.111 C 
BRANCH   8  14
ATOM     13  C   UNL     1      -0.017   1.425   0.010  0.00  0.00    +0.194 C 
ATOM     14  O   UNL     1       0.002  -0.004   0.002  0.00  0.00    -0.378 OA
ENDBRANCH   8  14
ENDBRANCH   1  12
BRANCH   3  15
ATOM     15  O   UNL     1       5.685  -3.612   0.171  0.00  0.00    -0.406 OA
ATOM     16  H   UNL     1       6.620  -3.525  -0.061  0.00  0.00    +0.328 HD
ENDBRANCH   3  15
TORSDOF 3
