REMARK  Name = ZINC05009394
REMARK  9 active torsions:
REMARK  status: ('A' for Active; 'I' for Inactive)
REMARK    1  A    between atoms: C_1  and  C_2
REMARK    2  A    between atoms: C_2  and  C_3
REMARK    3  A    between atoms: N_5  and  C_6
REMARK    4  A    between atoms: C_9  and  N_13
REMARK    5  A    between atoms: C_11  and  C_12
REMARK    6  A    between atoms: C_14  and  C_16
REMARK    7  A    between atoms: C_16  and  S_17
REMARK    8  A    between atoms: S_17  and  C_18
REMARK    9  A    between atoms: C_22  and  C_26
REMARK                            x       y       z     vdW  Elec       q    Type
REMARK                         _______ _______ _______ _____ _____    ______ ____
ROOT
ATOM      1  N   UNL     1      -5.861  -1.148  -0.344  0.00  0.00    -0.285 N 
ATOM      2  C   UNL     1      -6.892  -0.706  -1.091  0.00  0.00    +0.227 C 
ATOM      3  O   UNL     1      -6.839   0.389  -1.611  0.00  0.00    -0.275 OA
ATOM      4  H   UNL     1      -5.931  -1.992   0.128  0.00  0.00    +0.155 HD
ENDROOT
BRANCH   1   8
ATOM      5  C   UNL     1      -2.370   1.116  -0.062  0.00  0.00    +0.036 A 
ATOM      6  C   UNL     1      -2.300  -0.271  -0.067  0.00  0.00    +0.025 A 
ATOM      7  C   UNL     1      -3.456  -1.020  -0.161  0.00  0.00    +0.025 A 
ATOM      8  C   UNL     1      -4.689  -0.387  -0.249  0.00  0.00    +0.034 A 
ATOM      9  C   UNL     1      -4.759   0.999  -0.244  0.00  0.00    +0.028 A 
ATOM     10  C   UNL     1      -3.603   1.749  -0.145  0.00  0.00    -0.027 A 
ATOM     11  C   UNL     1      -3.680   3.254  -0.133  0.00  0.00    +0.046 C 
BRANCH   5  14
ATOM     12  C   UNL     1      -0.097   1.348   0.605  0.00  0.00    +0.217 C 
ATOM     13  O   UNL     1      -0.150   0.255   1.126  0.00  0.00    -0.275 OA
ATOM     14  N   UNL     1      -1.198   1.876   0.033  0.00  0.00    -0.285 N 
ATOM     15  H   UNL     1      -1.178   2.782  -0.312  0.00  0.00    +0.155 HD
BRANCH  12  17
ATOM     16  C   UNL     1       2.284   1.296   1.294  0.00  0.00    +0.013 C 
ATOM     17  C   UNL     1       1.200   2.115   0.591  0.00  0.00    +0.093 C 
ENDBRANCH  12  17
ENDBRANCH   5  14
ENDBRANCH   1   8
BRANCH   2  18
ATOM     18  C   UNL     1      -8.111  -1.572  -1.280  0.00  0.00    +0.173 C 
BRANCH  18  19
ATOM     19  S   UNL     1      -9.310  -0.706  -2.324  0.00  0.00    -0.077 S 
BRANCH  19  20
ATOM     20  C   UNL     1     -10.595  -1.911  -2.378  0.00  0.00    +0.187 A 
ATOM     21  N   UNL     1     -11.727  -1.647  -3.081  0.00  0.00    -0.255 N 
ATOM     22  H   UNL     1     -11.823  -0.773  -3.557  0.00  0.00    +0.191 HD
ATOM     23  N   UNL     1     -12.761  -2.591  -3.144  0.00  0.00    -0.172 NA
ATOM     24  C   UNL     1     -12.633  -3.726  -2.511  0.00  0.00    +0.124 A 
ATOM     25  C   UNL     1     -11.403  -3.981  -1.756  0.00  0.00    +0.295 A 
ATOM     26  O   UNL     1     -11.257  -5.034  -1.155  0.00  0.00    -0.264 OA
ATOM     27  N   UNL     1     -10.442  -3.050  -1.731  0.00  0.00    -0.182 NA
ATOM     28  C   UNL     1     -13.731  -4.757  -2.558  0.00  0.00    +0.073 C 
ENDBRANCH  19  20
ENDBRANCH  18  19
ENDBRANCH   2  18
TORSDOF 6
