REMARK  Name = ZINC53114301
REMARK  6 active torsions:
REMARK  status: ('A' for Active; 'I' for Inactive)
REMARK    1  A    between atoms: C_1  and  C_2
REMARK    2  A    between atoms: C_5  and  C_8
REMARK    3  A    between atoms: C_5  and  N_10
REMARK    4  A    between atoms: C_8  and  O_9
REMARK    5  A    between atoms: N_10  and  C_11
REMARK    6  A    between atoms: C_14  and  N_20
REMARK                            x       y       z     vdW  Elec       q    Type
REMARK                         _______ _______ _______ _____ _____    ______ ____
ROOT
ATOM      1  N   UNL     1      -1.375  -2.101   2.391  0.00  0.00    -0.334 N 
ATOM      2  H   UNL     1      -0.994  -1.410   2.954  0.00  0.00    +0.147 HD
ENDROOT
BRANCH   1   3
ATOM      3  C   UNL     1      -2.660  -2.585   2.651  0.00  0.00    +0.059 A 
ATOM      4  C   UNL     1      -3.190  -3.571   1.879  0.00  0.00    +0.027 A 
ATOM      5  C   UNL     1      -4.468  -4.087   2.098  0.00  0.00    +0.027 A 
ATOM      6  C   UNL     1      -5.274  -3.641   3.098  0.00  0.00    +0.056 A 
ATOM      7  C   UNL     1      -4.798  -2.579   3.990  0.00  0.00    +0.156 A 
ATOM      8  C   UNL     1      -3.444  -2.037   3.763  0.00  0.00    +0.157 A 
ATOM      9  N   UNL     1      -3.218  -1.113   4.664  0.00  0.00    -0.047 NA
ATOM     10  O   UNL     1      -4.366  -1.019   5.490  0.00  0.00    -0.241 OA
ATOM     11  N   UNL     1      -5.321  -1.953   5.016  0.00  0.00    -0.047 NA
BRANCH   6  12
ATOM     12  N   UNL     1      -6.546  -4.191   3.275  0.00  0.00    -0.356 N 
ATOM     13  H   UNL     1      -6.858  -4.894   2.683  0.00  0.00    +0.142 HD
ATOM     14  H   UNL     1      -7.118  -3.871   3.990  0.00  0.00    +0.142 HD
ENDBRANCH   6  12
ENDBRANCH   1   3
BRANCH   1  19
ATOM     15  C   UNL     1      -0.464   1.298  -0.521  0.00  0.00    +0.007 C 
ATOM     16  C   UNL     1      -0.242  -0.201  -0.316  0.00  0.00    -0.014 C 
ATOM     17  C   UNL     1      -1.595  -0.911  -0.240  0.00  0.00    +0.005 C 
ATOM     18  C   UNL     1      -1.373  -2.411  -0.035  0.00  0.00    +0.028 C 
ATOM     19  C   UNL     1      -0.604  -2.639   1.268  0.00  0.00    +0.055 C 
ATOM     20  C   UNL     1       0.749  -1.929   1.192  0.00  0.00    +0.028 C 
ATOM     21  C   UNL     1       0.527  -0.429   0.987  0.00  0.00    +0.005 C 
BRANCH  19  22
ATOM     22  C   UNL     1      -0.382  -4.139   1.473  0.00  0.00    +0.181 C 
BRANCH  22  23
ATOM     23  O   UNL     1       0.368  -4.350   2.671  0.00  0.00    -0.393 OA
ATOM     24  H   UNL     1       0.547  -5.280   2.865  0.00  0.00    +0.209 HD
ENDBRANCH  22  23
ENDBRANCH  19  22
ENDBRANCH   1  19
TORSDOF 5
