REMARK  Name = ZINC02652982
REMARK  10 active torsions:
REMARK  status: ('A' for Active; 'I' for Inactive)
REMARK    1  A    between atoms: C_1  and  C_2
REMARK    2  A    between atoms: C_3  and  N_9
REMARK    3  A    between atoms: C_10  and  C_12
REMARK    4  A    between atoms: C_12  and  O_13
REMARK    5  A    between atoms: O_13  and  C_14
REMARK    6  A    between atoms: C_14  and  C_16
REMARK    7  A    between atoms: C_16  and  C_17
REMARK    8  A    between atoms: C_17  and  C_18
REMARK    9  A    between atoms: N_20  and  C_21
REMARK   10  A    between atoms: C_22  and  C_29
REMARK                            x       y       z     vdW  Elec       q    Type
REMARK                         _______ _______ _______ _____ _____    ______ ____
ROOT
ATOM      1  C   UNL     1       2.784   5.461  -0.036  0.00  0.00    +0.107 C 
ENDROOT
BRANCH   1   2
ATOM      2  C   UNL     1       4.168   6.056  -0.048  0.00  0.00    +0.218 C 
ATOM      3  O   UNL     1       5.140   5.331  -0.054  0.00  0.00    -0.275 OA
ATOM      4  N   UNL     1       4.326   7.394  -0.052  0.00  0.00    -0.279 N 
ATOM      5  H   UNL     1       3.549   7.975  -0.048  0.00  0.00    +0.155 HD
BRANCH   4   6
ATOM      6  C   UNL     1       5.600   7.942  -0.064  0.00  0.00    +0.084 A 
ATOM      7  C   UNL     1       5.962   9.278  -0.075  0.00  0.00    +0.068 A 
ATOM      8  C   UNL     1       7.390   9.593  -0.082  0.00  0.00    -0.023 A 
ATOM      9  C   UNL     1       8.210   8.526  -0.085  0.00  0.00    -0.004 A 
ATOM     10  S   UNL     1       7.124   7.121  -0.074  0.00  0.00    -0.077 S 
ATOM     11  C   UNL     1       9.660   8.929  -0.094  0.00  0.00    +0.043 C 
ATOM     12  C   UNL     1       9.654  10.412   0.340  0.00  0.00    +0.010 C 
ATOM     13  C   UNL     1       8.245  10.861  -0.093  0.00  0.00    +0.037 C 
BRANCH   7  14
ATOM     14  C   UNL     1       4.950  10.339  -0.077  0.00  0.00    +0.244 C 
ATOM     15  O   UNL     1       4.537  10.788   0.976  0.00  0.00    -0.270 OA
ATOM     16  N   UNL     1       4.478  10.818  -1.245  0.00  0.00    -0.325 N 
ATOM     17  H   UNL     1       4.808  10.461  -2.085  0.00  0.00    +0.145 HD
ATOM     18  H   UNL     1       3.809  11.520  -1.247  0.00  0.00    +0.145 HD
ENDBRANCH   7  14
ENDBRANCH   4   6
ENDBRANCH   1   2
BRANCH   1  19
ATOM     19  C   UNL     1       2.885   3.934  -0.033  0.00  0.00    +0.130 C 
BRANCH  19  20
ATOM     20  C   UNL     1       1.500   3.339  -0.021  0.00  0.00    +0.308 C 
ATOM     21  O   UNL     1       0.532   4.062  -0.015  0.00  0.00    -0.251 OA
BRANCH  20  22
ATOM     22  O   UNL     1       1.343   2.006  -0.016  0.00  0.00    -0.455 OA
BRANCH  22  23
ATOM     23  C   UNL     1      -0.019   1.503  -0.005  0.00  0.00    +0.328 C 
BRANCH  23  25
ATOM     24  N   UNL     1      -1.156  -0.694   0.009  0.00  0.00    -0.282 N 
ATOM     25  C   UNL     1       0.002  -0.004  -0.001  0.00  0.00    +0.255 C 
ATOM     26  O   UNL     1       1.060  -0.596  -0.008  0.00  0.00    -0.272 OA
ATOM     27  H   UNL     1      -2.000  -0.224   0.096  0.00  0.00    +0.155 HD
BRANCH  24  30
ATOM     28  C   UNL     1      -3.348  -2.154   1.087  0.00  0.00    +0.047 C 
ATOM     29  C   UNL     1      -2.190  -2.840   0.408  0.00  0.00    -0.011 A 
ATOM     30  C   UNL     1      -1.140  -2.088  -0.104  0.00  0.00    +0.038 A 
ATOM     31  C   UNL     1      -0.072  -2.724  -0.724  0.00  0.00    +0.023 A 
ATOM     32  C   UNL     1      -0.059  -4.101  -0.834  0.00  0.00    +0.003 A 
ATOM     33  C   UNL     1      -1.108  -4.847  -0.328  0.00  0.00    +0.020 A 
ATOM     34  C   UNL     1      -2.174  -4.217   0.290  0.00  0.00    +0.046 A 
ATOM     35 CL   UNL     1      -3.489  -5.157   0.922  0.00  0.00    -0.083 Cl
ENDBRANCH  24  30
ENDBRANCH  23  25
ENDBRANCH  22  23
ENDBRANCH  20  22
ENDBRANCH  19  20
ENDBRANCH   1  19
TORSDOF 9
