REMARK  Name = ZINC39676191
REMARK  5 active torsions:
REMARK  status: ('A' for Active; 'I' for Inactive)
REMARK    1  A    between atoms: C_11  and  C_13
REMARK    2  A    between atoms: C_13  and  N_14
REMARK    3  A    between atoms: C_15  and  C_17
REMARK    4  A    between atoms: C_28  and  C_30
REMARK    5  A    between atoms: C_33  and  C_36
REMARK                            x       y       z     vdW  Elec       q    Type
REMARK                         _______ _______ _______ _____ _____    ______ ____
ROOT
ATOM      1  C   UNL     1       8.712  -0.256  -0.106  0.00  0.00    +0.100 C 
ATOM      2  C   UNL     1       8.382   0.387   1.259  0.00  0.00    +0.121 C 
ATOM      3  N   UNL     1       9.290  -0.283   2.219  0.00  0.00    -0.296 N 
ATOM      4  C   UNL     1      10.569  -0.420   1.481  0.00  0.00    +0.115 C 
ATOM      5  C   UNL     1      10.149  -0.782   0.042  0.00  0.00    -0.004 C 
ATOM      6  C   UNL     1      11.069  -0.097  -0.964  0.00  0.00    -0.010 C 
ATOM      7  C   UNL     1      12.480  -0.677  -0.838  0.00  0.00    -0.082 C 
ATOM      8  N   UNL     1      12.440  -2.123  -1.086  0.00  0.00    +0.379 N 
ATOM      9  C   UNL     1      11.629  -2.786  -0.058  0.00  0.00    -0.082 C 
ATOM     10  C   UNL     1      10.182  -2.295  -0.152  0.00  0.00    -0.010 C 
ATOM     11  C   UNL     1       9.017  -0.678   3.478  0.00  0.00    +0.247 C 
ATOM     12  O   UNL     1       7.880  -0.611   3.902  0.00  0.00    -0.270 OA
ATOM     13  H   UNL     1      12.037  -2.296  -1.994  0.00  0.00    -0.086 HD
ATOM     14  H   UNL     1      13.379  -2.493  -1.062  0.00  0.00    -0.086 HD
ENDROOT
BRANCH  11  15
ATOM     15  C   UNL     1      10.099  -1.195   4.342  0.00  0.00    +0.037 A 
ATOM     16  C   UNL     1      11.431  -0.887   4.058  0.00  0.00    +0.013 A 
ATOM     17  C   UNL     1      12.436  -1.371   4.869  0.00  0.00    +0.013 A 
ATOM     18  C   UNL     1      12.127  -2.161   5.962  0.00  0.00    +0.055 A 
ATOM     19  C   UNL     1      10.809  -2.470   6.249  0.00  0.00    +0.013 A 
ATOM     20  C   UNL     1       9.794  -1.987   5.450  0.00  0.00    +0.013 A 
BRANCH  18  21
ATOM     21  C   UNL     1      13.231  -2.688   6.843  0.00  0.00    +0.417 C 
ATOM     22  F   UNL     1      13.484  -1.772   7.870  0.00  0.00    -0.166 F 
ATOM     23  F   UNL     1      12.842  -3.913   7.396  0.00  0.00    -0.166 F 
ATOM     24  F   UNL     1      14.390  -2.867   6.081  0.00  0.00    -0.166 F 
ENDBRANCH  18  21
ENDBRANCH  11  15
BRANCH   1  26
ATOM     25  N   UNL     1       7.541  -1.779  -1.665  0.00  0.00    -0.308 N 
ATOM     26  C   UNL     1       7.765  -1.393  -0.393  0.00  0.00    +0.219 C 
ATOM     27  O   UNL     1       7.204  -1.960   0.520  0.00  0.00    -0.275 OA
ATOM     28  H   UNL     1       7.990  -1.326  -2.395  0.00  0.00    +0.149 HD
BRANCH  25  29
ATOM     29  C   UNL     1       6.621  -2.884  -1.944  0.00  0.00    +0.178 C 
BRANCH  29  40
ATOM     30  C   UNL     1       7.171  -2.868  -8.311  0.00  0.00    +0.001 A 
ATOM     31  C   UNL     1       7.970  -1.877  -7.754  0.00  0.00    +0.002 A 
ATOM     32  C   UNL     1       8.014  -1.690  -6.391  0.00  0.00    +0.028 A 
ATOM     33  C   UNL     1       7.247  -2.505  -5.556  0.00  0.00    +0.078 A 
ATOM     34  C   UNL     1       6.436  -3.511  -6.125  0.00  0.00    +0.065 A 
ATOM     35  C   UNL     1       6.406  -3.684  -7.508  0.00  0.00    +0.015 A 
ATOM     36  C   UNL     1       5.641  -4.353  -5.218  0.00  0.00    +0.259 A 
ATOM     37  O   UNL     1       4.922  -5.238  -5.645  0.00  0.00    -0.267 OA
ATOM     38  N   UNL     1       5.741  -4.105  -3.892  0.00  0.00    -0.309 N 
ATOM     39  H   UNL     1       5.231  -4.641  -3.263  0.00  0.00    +0.170 HD
ATOM     40  C   UNL     1       6.548  -3.115  -3.431  0.00  0.00    +0.128 A 
ATOM     41  N   UNL     1       7.261  -2.356  -4.207  0.00  0.00    -0.232 NA
ENDBRANCH  29  40
ENDBRANCH  25  29
ENDBRANCH   1  26
TORSDOF 5
