REMARK  Name = ZINC06050257
REMARK  8 active torsions:
REMARK  status: ('A' for Active; 'I' for Inactive)
REMARK    1  A    between atoms: C_1  and  C_2
REMARK    2  A    between atoms: C_2  and  C_21
REMARK    3  A    between atoms: C_4  and  N_11
REMARK    4  A    between atoms: C_7  and  C_9
REMARK    5  A    between atoms: C_7  and  C_10
REMARK    6  A    between atoms: N_14  and  C_15
REMARK    7  A    between atoms: C_21  and  N_22
REMARK    8  A    between atoms: N_25  and  C_26
REMARK                            x       y       z     vdW  Elec       q    Type
REMARK                         _______ _______ _______ _____ _____    ______ ____
ROOT
ATOM      1  C   UNL     1      -0.019   1.526   0.010  0.00  0.00    +0.013 C 
ATOM      2  C   UNL     1       0.002  -0.004   0.002  0.00  0.00    -0.014 C 
ATOM      3  C   UNL     1       0.558  -0.534  -1.310  0.00  0.00    +0.030 C 
ATOM      4  C   UNL     1       2.071  -0.442  -1.408  0.00  0.00    +0.075 C 
ATOM      5  C   UNL     1       2.755  -1.081  -0.212  0.00  0.00    +0.028 C 
ATOM      6  C   UNL     1       2.241  -0.579   1.126  0.00  0.00    -0.033 C 
ATOM      7  C   UNL     1       0.728  -0.551   1.216  0.00  0.00    +0.014 C 
ATOM      8  C   UNL     1       2.838   0.792   1.459  0.00  0.00    +0.011 C 
ATOM      9  C   UNL     1       2.751  -1.561   2.211  0.00  0.00    +0.011 C 
ENDROOT
BRANCH   4  10
ATOM     10  N   UNL     1       2.527   0.925  -1.637  0.00  0.00    -0.297 N 
ATOM     11  C   UNL     1       3.713   1.148  -2.235  0.00  0.00    +0.300 C 
ATOM     12  O   UNL     1       4.404   0.210  -2.585  0.00  0.00    -0.253 OA
ATOM     13  N   UNL     1       4.135   2.410  -2.447  0.00  0.00    -0.297 N 
ATOM     14  H   UNL     1       1.976   1.673  -1.358  0.00  0.00    +0.151 HD
ATOM     15  H   UNL     1       3.584   3.159  -2.168  0.00  0.00    +0.151 HD
BRANCH  13  16
ATOM     16  C   UNL     1       5.425   2.653  -3.097  0.00  0.00    +0.074 C 
ATOM     17  C   UNL     1       6.540   2.612  -2.050  0.00  0.00    +0.022 C 
ATOM     18  C   UNL     1       7.887   2.866  -2.730  0.00  0.00    +0.002 C 
ATOM     19  C   UNL     1       7.869   4.240  -3.402  0.00  0.00    +0.000 C 
ATOM     20  C   UNL     1       6.754   4.280  -4.449  0.00  0.00    +0.002 C 
ATOM     21  C   UNL     1       5.407   4.027  -3.770  0.00  0.00    +0.022 C 
ENDBRANCH  13  16
ENDBRANCH   4  10
BRANCH   2  22
ATOM     22  C   UNL     1      -1.472  -0.471   0.095  0.00  0.00    +0.112 C 
BRANCH  22  23
ATOM     23  N   UNL     1      -2.222   0.046  -1.052  0.00  0.00    -0.299 N 
ATOM     24  C   UNL     1      -3.533  -0.234  -1.183  0.00  0.00    +0.300 C 
ATOM     25  O   UNL     1      -4.095  -0.916  -0.347  0.00  0.00    -0.253 OA
ATOM     26  N   UNL     1      -4.223   0.241  -2.239  0.00  0.00    -0.297 N 
ATOM     27  H   UNL     1      -1.774   0.591  -1.719  0.00  0.00    +0.150 HD
ATOM     28  H   UNL     1      -3.775   0.786  -2.905  0.00  0.00    +0.151 HD
BRANCH  26  29
ATOM     29  C   UNL     1      -5.649  -0.064  -2.380  0.00  0.00    +0.074 C 
ATOM     30  C   UNL     1      -5.814  -1.420  -3.069  0.00  0.00    +0.022 C 
ATOM     31  C   UNL     1      -7.303  -1.738  -3.217  0.00  0.00    +0.002 C 
ATOM     32  C   UNL     1      -7.976  -0.652  -4.059  0.00  0.00    +0.000 C 
ATOM     33  C   UNL     1      -7.811   0.704  -3.370  0.00  0.00    +0.002 C 
ATOM     34  C   UNL     1      -6.321   1.022  -3.222  0.00  0.00    +0.022 C 
ENDBRANCH  26  29
ENDBRANCH  22  23
ENDBRANCH   2  22
TORSDOF 5
