REMARK  Name = ZINC62123870
REMARK  7 active torsions:
REMARK  status: ('A' for Active; 'I' for Inactive)
REMARK    1  A    between atoms: C_1  and  C_2
REMARK    2  A    between atoms: C_7  and  C_14
REMARK    3  A    between atoms: C_14  and  C_15
REMARK    4  A    between atoms: C_15  and  C_16
REMARK    5  A    between atoms: N_18  and  C_19
REMARK    6  A    between atoms: C_19  and  C_20
REMARK    7  A    between atoms: C_20  and  N_21
REMARK                            x       y       z     vdW  Elec       q    Type
REMARK                         _______ _______ _______ _____ _____    ______ ____
ROOT
ATOM      1  C   UNL     1       1.561  -8.377   1.372  0.00  0.00    +0.213 C 
ATOM      2  O   UNL     1       0.522  -8.999   1.302  0.00  0.00    -0.276 OA
ATOM      3  N   UNL     1       2.733  -9.032   1.486  0.00  0.00    -0.314 N 
ATOM      4  H   UNL     1       3.564  -8.534   1.542  0.00  0.00    +0.149 HD
ENDROOT
BRANCH   1   5
ATOM      5  C   UNL     1       1.540  -6.870   1.332  0.00  0.00    +0.100 C 
BRANCH   5   6
ATOM      6  C   UNL     1       0.096  -6.383   1.200  0.00  0.00    +0.050 C 
BRANCH   6  13
ATOM      7  C   UNL     1      -0.018   1.503   0.010  0.00  0.00    +0.044 C 
ATOM      8  C   UNL     1       0.002  -0.004   0.002  0.00  0.00    -0.048 A 
ATOM      9  C   UNL     1       0.006  -0.684  -1.208  0.00  0.00    +0.004 A 
ATOM     10  C   UNL     1       0.024  -2.050  -1.238  0.00  0.00    +0.010 A 
ATOM     11  C   UNL     1       0.040  -2.769  -0.039  0.00  0.00    -0.001 A 
ATOM     12  C   UNL     1       0.060  -4.233  -0.034  0.00  0.00    +0.019 A 
ATOM     13  C   UNL     1       0.075  -4.877   1.159  0.00  0.00    +0.018 A 
ATOM     14  C   UNL     1       0.070  -4.142   2.364  0.00  0.00    +0.252 A 
ATOM     15  O   UNL     1       0.084  -4.740   3.426  0.00  0.00    -0.268 OA
ATOM     16  N   UNL     1       0.052  -2.797   2.370  0.00  0.00    -0.322 N 
ATOM     17  H   UNL     1       0.050  -2.323   3.216  0.00  0.00    +0.169 HD
ATOM     18  C   UNL     1       0.036  -2.083   1.190  0.00  0.00    +0.049 A 
ATOM     19  C   UNL     1       0.023  -0.692   1.196  0.00  0.00    +0.029 A 
ENDBRANCH   6  13
ENDBRANCH   5   6
ENDBRANCH   1   5
BRANCH   3  20
ATOM     20  C   UNL     1       2.753 -10.496   1.525  0.00  0.00    +0.126 C 
BRANCH  20  21
ATOM     21  C   UNL     1       4.198 -10.983   1.657  0.00  0.00    +0.145 C 
BRANCH  21  22
ATOM     22  N   UNL     1       4.218 -12.447   1.696  0.00  0.00    -0.291 N 
ATOM     23  C   UNL     1       4.130 -13.233   2.842  0.00  0.00    +0.070 A 
ATOM     24  C   UNL     1       4.008 -12.938   4.192  0.00  0.00    +0.028 A 
ATOM     25  C   UNL     1       3.944 -13.961   5.116  0.00  0.00    +0.002 A 
ATOM     26  C   UNL     1       4.002 -15.281   4.702  0.00  0.00    +0.002 A 
ATOM     27  C   UNL     1       4.124 -15.585   3.361  0.00  0.00    +0.028 A 
ATOM     28  C   UNL     1       4.189 -14.564   2.425  0.00  0.00    +0.067 A 
ATOM     29  N   UNL     1       4.309 -14.546   1.037  0.00  0.00    -0.306 N 
ATOM     30  H   UNL     1       4.372 -15.324   0.462  0.00  0.00    +0.170 HD
ATOM     31  C   UNL     1       4.318 -13.262   0.629  0.00  0.00    +0.328 A 
ATOM     32  O   UNL     1       4.407 -12.895  -0.528  0.00  0.00    -0.247 OA
ENDBRANCH  21  22
ENDBRANCH  20  21
ENDBRANCH   3  20
TORSDOF 6
