REMARK  Name = ZINC45772623
REMARK  12 active torsions:
REMARK  status: ('A' for Active; 'I' for Inactive)
REMARK    1  A    between atoms: C_1  and  C_2
REMARK    2  A    between atoms: C_2  and  N_3
REMARK    3  A    between atoms: N_3  and  C_4
REMARK    4  A    between atoms: N_3  and  C_15
REMARK    5  A    between atoms: C_4  and  C_5
REMARK    6  A    between atoms: C_8  and  O_13
REMARK    7  A    between atoms: C_9  and  O_11
REMARK    8  A    between atoms: O_11  and  C_12
REMARK    9  A    between atoms: O_13  and  C_14
REMARK   10  A    between atoms: C_15  and  C_16
REMARK   11  A    between atoms: C_18  and  O_19
REMARK   12  A    between atoms: C_28  and  C_30
REMARK                            x       y       z     vdW  Elec       q    Type
REMARK                         _______ _______ _______ _____ _____    ______ ____
ROOT
ATOM      1  C   UNL     1       1.992  -2.217  -0.367  0.00  0.00    -0.047 A 
ATOM      2  C   UNL     1       1.421  -2.077  -1.615  0.00  0.00    +0.090 A 
ATOM      3  C   UNL     1       2.229  -1.932  -2.734  0.00  0.00    +0.285 A 
ATOM      4  O   UNL     1       3.562  -1.924  -2.633  0.00  0.00    -0.425 OA
ATOM      5  C   UNL     1       4.173  -2.057  -1.438  0.00  0.00    +0.141 A 
ATOM      6  C   UNL     1       3.399  -2.203  -0.264  0.00  0.00    +0.019 A 
ATOM      7  C   UNL     1       4.032  -2.337   0.984  0.00  0.00    +0.013 A 
ATOM      8  C   UNL     1       5.388  -2.321   1.062  0.00  0.00    +0.024 A 
ATOM      9  C   UNL     1       6.166  -2.171  -0.099  0.00  0.00    +0.037 A 
ATOM     10  C   UNL     1       5.553  -2.048  -1.347  0.00  0.00    +0.070 A 
ATOM     11  N   UNL     1       7.524  -2.156  -0.008  0.00  0.00    -0.286 N 
ATOM     12  C   UNL     1       8.248  -1.704  -1.013  0.00  0.00    +0.214 C 
ATOM     13  O   UNL     1       7.703  -1.186  -1.972  0.00  0.00    -0.276 OA
ATOM     14  C   UNL     1       9.749  -1.828  -0.976  0.00  0.00    +0.109 C 
ATOM     15  H   UNL     1       7.960  -2.478   0.797  0.00  0.00    +0.155 HD
ENDROOT
BRANCH   3  16
ATOM     16  O   UNL     1       1.658  -1.796  -3.946  0.00  0.00    -0.480 OA
ATOM     17  H   UNL     1       2.292  -1.700  -4.671  0.00  0.00    +0.295 HD
ENDBRANCH   3  16
BRANCH   1  18
ATOM     18  C   UNL     1       1.132  -2.376   0.861  0.00  0.00    -0.042 C 
BRANCH  18  19
ATOM     19  N   UNL     1       0.728  -1.051   1.350  0.00  0.00    +0.385 N 
ATOM     20  H   UNL     1       1.549  -0.485   1.504  0.00  0.00    -0.081 HD
BRANCH  19  22
ATOM     21  C   UNL     1      -0.481   1.012   0.822  0.00  0.00    -0.017 C 
ATOM     22  C   UNL     1      -0.134  -0.403   0.353  0.00  0.00    -0.081 C 
ENDBRANCH  19  22
BRANCH  19  23
ATOM     23  C   UNL     1      -0.009  -1.200   2.612  0.00  0.00    -0.042 C 
BRANCH  23  24
ATOM     24  C   UNL     1       0.906  -1.772   3.664  0.00  0.00    -0.060 A 
ATOM     25  C   UNL     1       0.920  -3.135   3.898  0.00  0.00    +0.005 A 
ATOM     26  C   UNL     1       1.757  -3.665   4.862  0.00  0.00    +0.049 A 
ATOM     27  C   UNL     1       2.585  -2.831   5.595  0.00  0.00    +0.161 A 
ATOM     28  C   UNL     1       2.572  -1.459   5.359  0.00  0.00    +0.162 A 
ATOM     29  C   UNL     1       1.734  -0.935   4.388  0.00  0.00    +0.051 A 
BRANCH  28  30
ATOM     30  O   UNL     1       3.383  -0.636   6.076  0.00  0.00    -0.491 OA
ATOM     31  C   UNL     1       3.316   0.760   5.779  0.00  0.00    +0.277 C 
ENDBRANCH  28  30
BRANCH  27  32
ATOM     32  O   UNL     1       3.409  -3.351   6.544  0.00  0.00    -0.491 OA
ATOM     33  C   UNL     1       3.370  -4.766   6.732  0.00  0.00    +0.277 C 
ENDBRANCH  27  32
ENDBRANCH  23  24
ENDBRANCH  19  23
ENDBRANCH  18  19
ENDBRANCH   1  18
TORSDOF 8
