REMARK  Name = ZINC09597468
REMARK  10 active torsions:
REMARK  status: ('A' for Active; 'I' for Inactive)
REMARK    1  A    between atoms: C_1  and  C_2
REMARK    2  A    between atoms: C_2  and  C_35
REMARK    3  A    between atoms: C_6  and  C_20
REMARK    4  A    between atoms: C_9  and  C_14
REMARK    5  A    between atoms: C_22  and  O_30
REMARK    6  A    between atoms: C_23  and  O_28
REMARK    7  A    between atoms: C_25  and  O_26
REMARK    8  A    between atoms: O_26  and  C_27
REMARK    9  A    between atoms: O_28  and  C_29
REMARK   10  A    between atoms: O_30  and  C_31
REMARK                            x       y       z     vdW  Elec       q    Type
REMARK                         _______ _______ _______ _____ _____    ______ ____
ROOT
ATOM      1  C   UNL     1       0.056   1.401   0.170  0.00  0.00    +0.011 C 
ATOM      2  C   UNL     1       0.086  -0.126   0.086  0.00  0.00    -0.023 C 
ATOM      3  C   UNL     1       0.774  -0.555  -1.214  0.00  0.00    +0.062 C 
ATOM      4  C   UNL     1       2.205  -0.067  -1.202  0.00  0.00    +0.052 C 
ATOM      5  C   UNL     1       2.881   0.079   0.030  0.00  0.00    +0.028 C 
ATOM      6  C   UNL     1       4.316   0.571   0.004  0.00  0.00    +0.093 C 
ATOM      7  C   UNL     1       4.891   0.858  -1.365  0.00  0.00    +0.036 A 
ATOM      8  C   UNL     1       6.099   1.298  -1.798  0.00  0.00    +0.072 A 
ATOM      9  N   UNL     1       6.042   1.370  -3.160  0.00  0.00    -0.275 N 
ATOM     10  N   UNL     1       4.764   0.962  -3.563  0.00  0.00    -0.153 NA
ATOM     11  C   UNL     1       4.062   0.651  -2.486  0.00  0.00    +0.179 A 
ATOM     12  N   UNL     1       2.783   0.206  -2.336  0.00  0.00    -0.231 NA
ATOM     13  C   UNL     1       2.296  -0.200   1.201  0.00  0.00    +0.162 C 
ATOM     14  O   UNL     1       2.997  -0.038   2.344  0.00  0.00    -0.292 OA
ATOM     15  C   UNL     1       0.875  -0.690   1.271  0.00  0.00    +0.086 C 
ATOM     16  C   UNL     1      -1.343  -0.670   0.116  0.00  0.00    +0.011 C 
ATOM     17  H   UNL     1       6.761   1.653  -3.747  0.00  0.00    +0.189 HD
ENDROOT
BRANCH   8  18
ATOM     18  C   UNL     1       7.263   1.638  -0.951  0.00  0.00    +0.000 A 
ATOM     19  C   UNL     1       7.676   0.764   0.056  0.00  0.00    +0.010 A 
ATOM     20  C   UNL     1       8.762   1.087   0.843  0.00  0.00    +0.001 A 
ATOM     21  C   UNL     1       9.442   2.274   0.636  0.00  0.00    +0.000 A 
ATOM     22  C   UNL     1       9.037   3.145  -0.360  0.00  0.00    +0.001 A 
ATOM     23  C   UNL     1       7.956   2.831  -1.158  0.00  0.00    +0.010 A 
ENDBRANCH   8  18
BRANCH   6  24
ATOM     24  C   UNL     1       4.395   1.837   0.819  0.00  0.00    +0.010 A 
ATOM     25  C   UNL     1       3.730   2.973   0.395  0.00  0.00    +0.057 A 
ATOM     26  C   UNL     1       3.800   4.137   1.142  0.00  0.00    +0.162 A 
ATOM     27  C   UNL     1       4.541   4.163   2.320  0.00  0.00    +0.165 A 
ATOM     28  C   UNL     1       5.207   3.025   2.742  0.00  0.00    +0.095 A 
ATOM     29  C   UNL     1       5.130   1.859   1.994  0.00  0.00    +0.128 A 
BRANCH  29  30
ATOM     30  O   UNL     1       5.778   0.739   2.412  0.00  0.00    -0.495 OA
ATOM     31  C   UNL     1       6.516   0.834   3.632  0.00  0.00    +0.277 C 
ENDBRANCH  29  30
BRANCH  27  32
ATOM     32  O   UNL     1       4.612   5.306   3.054  0.00  0.00    -0.491 OA
ATOM     33  C   UNL     1       5.391   5.260   4.251  0.00  0.00    +0.277 C 
ENDBRANCH  27  32
BRANCH  26  34
ATOM     34  O   UNL     1       3.146   5.254   0.725  0.00  0.00    -0.491 OA
ATOM     35  C   UNL     1       2.405   5.155  -0.493  0.00  0.00    +0.277 C 
ENDBRANCH  26  34
ENDBRANCH   6  24
TORSDOF 5
