REMARK  Name = ZINC09235102
REMARK  12 active torsions:
REMARK  status: ('A' for Active; 'I' for Inactive)
REMARK    1  A    between atoms: C_1  and  C_2
REMARK    2  A    between atoms: C_2  and  C_3
REMARK    3  A    between atoms: C_2  and  C_4
REMARK    4  A    between atoms: C_9  and  N_10
REMARK    5  A    between atoms: C_11  and  C_13
REMARK    6  A    between atoms: C_13  and  O_14
REMARK    7  A    between atoms: O_14  and  C_15
REMARK    8  A    between atoms: C_18  and  C_23
REMARK    9  A    between atoms: C_20  and  O_21
REMARK   10  A    between atoms: O_21  and  C_22
REMARK   11  A    between atoms: C_24  and  C_25
REMARK   12  A    between atoms: C_26  and  N_34
REMARK                            x       y       z     vdW  Elec       q    Type
REMARK                         _______ _______ _______ _____ _____    ______ ____
ROOT
ATOM      1  C   UNL     1      -0.501  -3.318  -6.546  0.00  0.00    +0.163 A 
ATOM      2  C   UNL     1       0.870  -3.099  -6.578  0.00  0.00    +0.050 A 
ATOM      3  C   UNL     1       1.607  -3.481  -7.677  0.00  0.00    +0.012 A 
ATOM      4  C   UNL     1       0.974  -4.092  -8.765  0.00  0.00    -0.021 A 
ATOM      5  C   UNL     1      -0.407  -4.313  -8.732  0.00  0.00    +0.057 A 
ATOM      6  C   UNL     1      -1.137  -3.931  -7.623  0.00  0.00    +0.162 A 
ENDROOT
BRANCH   6   7
ATOM      7  O   UNL     1      -2.479  -4.149  -7.586  0.00  0.00    -0.491 OA
ATOM      8  C   UNL     1      -3.066  -4.782  -8.725  0.00  0.00    +0.277 C 
ENDBRANCH   6   7
BRANCH   4   9
ATOM      9  C   UNL     1       1.759  -4.501  -9.941  0.00  0.00    +0.010 C 
ATOM     10  C   UNL     1       3.088  -4.288  -9.970  0.00  0.00    +0.031 C 
BRANCH  10  11
ATOM     11  C   UNL     1       3.871  -4.696 -11.144  0.00  0.00    +0.105 A 
ATOM     12  C   UNL     1       5.226  -4.385 -11.225  0.00  0.00    +0.215 A 
ATOM     13  C   UNL     1       5.940  -4.791 -12.360  0.00  0.00    +0.285 A 
ATOM     14  O   UNL     1       7.129  -4.538 -12.469  0.00  0.00    -0.265 OA
ATOM     15  N   UNL     1       5.291  -5.468 -13.330  0.00  0.00    -0.272 N 
ATOM     16  H   UNL     1       5.772  -5.757 -14.122  0.00  0.00    +0.174 HD
ATOM     17  C   UNL     1       3.967  -5.748 -13.203  0.00  0.00    +0.349 A 
ATOM     18  O   UNL     1       3.340  -6.426 -14.187  0.00  0.00    -0.245 OA
ATOM     19  N   UNL     1       3.286  -5.378 -12.145  0.00  0.00    -0.191 NA
BRANCH  12  20
ATOM     20  N   UNL     1       5.897  -3.639 -10.136  0.00  0.00    +0.064 N 
ATOM     21  O   UNL     1       5.295  -3.381  -9.120  0.00  0.00    -0.126 OA
ATOM     22  O   UNL     1       7.047  -3.289 -10.263  0.00  0.00    -0.126 OA
ENDBRANCH  12  20
ENDBRANCH  10  11
ENDBRANCH   4   9
BRANCH   1  23
ATOM     23  O   UNL     1      -1.222  -2.939  -5.458  0.00  0.00    -0.479 OA
BRANCH  23  24
ATOM     24  C   UNL     1      -0.507  -2.316  -4.390  0.00  0.00    +0.325 C 
BRANCH  24  26
ATOM     25  N   UNL     1      -1.011  -1.368  -2.161  0.00  0.00    -0.282 N 
ATOM     26  C   UNL     1      -1.464  -1.968  -3.280  0.00  0.00    +0.255 C 
ATOM     27  O   UNL     1      -2.644  -2.228  -3.393  0.00  0.00    -0.272 OA
ATOM     28  H   UNL     1      -0.078  -1.110  -2.094  0.00  0.00    +0.155 HD
BRANCH  25  34
ATOM     29  C   UNL     1      -1.394  -1.020   0.197  0.00  0.00    -0.024 A 
ATOM     30  C   UNL     1      -2.259  -0.766   1.244  0.00  0.00    +0.006 A 
ATOM     31  C   UNL     1      -3.612  -0.616   1.004  0.00  0.00    +0.000 A 
ATOM     32  C   UNL     1      -4.105  -0.719  -0.284  0.00  0.00    +0.002 A 
ATOM     33  C   UNL     1      -3.245  -0.971  -1.335  0.00  0.00    +0.023 A 
ATOM     34  C   UNL     1      -1.885  -1.118  -1.098  0.00  0.00    +0.037 A 
BRANCH  29  36
ATOM     35  C   UNL     1       0.655   0.136   0.982  0.00  0.00    +0.012 C 
ATOM     36  C   UNL     1       0.081  -1.183   0.460  0.00  0.00    +0.015 C 
ATOM     37  C   UNL     1       0.294  -2.281   1.504  0.00  0.00    +0.012 C 
ENDBRANCH  29  36
ENDBRANCH  25  34
ENDBRANCH  24  26
ENDBRANCH  23  24
ENDBRANCH   1  23
TORSDOF 9
