REMARK  Name = ZINC65259096
REMARK  9 active torsions:
REMARK  status: ('A' for Active; 'I' for Inactive)
REMARK    1  A    between atoms: C_1  and  C_2
REMARK    2  A    between atoms: C_5  and  C_9
REMARK    3  A    between atoms: C_7  and  C_8
REMARK    4  A    between atoms: C_9  and  N_10
REMARK    5  A    between atoms: N_10  and  S_11
REMARK    6  A    between atoms: S_11  and  C_14
REMARK    7  A    between atoms: C_16  and  C_20
REMARK    8  A    between atoms: C_18  and  C_19
REMARK    9  A    between atoms: C_22  and  C_26
REMARK                            x       y       z     vdW  Elec       q    Type
REMARK                         _______ _______ _______ _____ _____    ______ ____
ROOT
ATOM      1  C   UNL     1       0.411  -7.248  -0.742  0.00  0.00    +0.146 A 
ATOM      2  C   UNL     1       1.300  -7.866  -1.651  0.00  0.00    +0.076 A 
ATOM      3  C   UNL     1       0.547  -8.578  -2.509  0.00  0.00    +0.138 A 
ATOM      4  O   UNL     1      -0.743  -8.425  -2.168  0.00  0.00    -0.460 OA
ATOM      5  C   UNL     1      -0.831  -7.623  -1.095  0.00  0.00    +0.129 A 
ATOM      6  C   UNL     1      -2.106  -7.212  -0.404  0.00  0.00    +0.088 C 
ENDROOT
BRANCH   3   7
ATOM      7  C   UNL     1       1.063  -9.407  -3.656  0.00  0.00    +0.230 C 
ATOM      8  C   UNL     1       0.904 -10.889  -3.363  0.00  0.00    +0.068 C 
ATOM      9  C   UNL     1       0.075 -11.322  -4.338  0.00  0.00    +0.145 C 
ATOM     10  N   UNL     1      -0.267 -10.301  -5.155  0.00  0.00    -0.161 NA
ATOM     11  N   UNL     1       0.232  -9.210  -4.856  0.00  0.00    -0.171 NA
BRANCH   8  12
ATOM     12  C   UNL     1       1.510 -11.668  -2.273  0.00  0.00    +0.247 C 
ATOM     13  O   UNL     1       2.324 -11.149  -1.534  0.00  0.00    -0.270 OA
ATOM     14  N   UNL     1       1.163 -12.958  -2.094  0.00  0.00    -0.298 N 
ATOM     15  C   UNL     1       0.277 -13.737  -2.971  0.00  0.00    +0.108 C 
ATOM     16  C   UNL     1       0.149 -15.147  -2.358  0.00  0.00    +0.020 C 
ATOM     17  C   UNL     1       0.516 -14.914  -0.869  0.00  0.00    +0.020 C 
ATOM     18  C   UNL     1       1.613 -13.823  -0.989  0.00  0.00    +0.108 C 
ENDBRANCH   8  12
ENDBRANCH   3   7
BRANCH   1  19
ATOM     19  S   UNL     1       0.848  -6.193   0.601  0.00  0.00    +0.062 S 
ATOM     20  O   UNL     1       0.009  -5.050   0.509  0.00  0.00    -0.153 OA
ATOM     21  O   UNL     1       2.266  -6.100   0.599  0.00  0.00    -0.153 OA
BRANCH  19  22
ATOM     22  N   UNL     1       0.427  -6.979   1.997  0.00  0.00    -0.186 NA
ATOM     23  H   UNL     1      -0.268  -6.616   2.567  0.00  0.00    +0.148 HD
BRANCH  22  24
ATOM     24  C   UNL     1       1.106  -8.222   2.371  0.00  0.00    +0.141 C 
BRANCH  24  29
ATOM     25  C   UNL     1       0.078  -9.381   7.938  0.00  0.00    +0.044 C 
ATOM     26  C   UNL     1       0.346  -9.079   6.486  0.00  0.00    -0.048 A 
ATOM     27  C   UNL     1      -0.505  -9.564   5.510  0.00  0.00    +0.004 A 
ATOM     28  C   UNL     1      -0.259  -9.287   4.179  0.00  0.00    +0.005 A 
ATOM     29  C   UNL     1       0.838  -8.524   3.823  0.00  0.00    -0.032 A 
ATOM     30  C   UNL     1       1.688  -8.038   4.798  0.00  0.00    +0.008 A 
ATOM     31  C   UNL     1       1.439  -8.312   6.131  0.00  0.00    -0.047 A 
ATOM     32  C   UNL     1       2.363  -7.777   7.195  0.00  0.00    +0.044 C 
ENDBRANCH  24  29
ENDBRANCH  22  24
ENDBRANCH  19  22
ENDBRANCH   1  19
TORSDOF 6
