REMARK  Name = ZINC12654131
REMARK  16 active torsions:
REMARK  status: ('A' for Active; 'I' for Inactive)
REMARK    1  A    between atoms: C_1  and  C_2
REMARK    2  A    between atoms: C_2  and  C_3
REMARK    3  A    between atoms: C_8  and  O_9
REMARK    4  A    between atoms: O_9  and  C_10
REMARK    5  A    between atoms: C_10  and  C_12
REMARK    6  A    between atoms: C_10  and  C_13
REMARK    7  A    between atoms: N_15  and  C_16
REMARK    8  A    between atoms: C_16  and  C_18
REMARK    9  A    between atoms: C_16  and  C_22
REMARK   10  A    between atoms: C_18  and  C_19
REMARK   11  A    between atoms: C_19  and  C_20
REMARK   12  A    between atoms: C_19  and  C_21
REMARK   13  A    between atoms: N_24  and  C_25
REMARK   14  A    between atoms: C_25  and  C_26
REMARK   15  A    between atoms: C_31  and  C_34
REMARK   16  A    between atoms: C_36  and  C_39
REMARK                            x       y       z     vdW  Elec       q    Type
REMARK                         _______ _______ _______ _____ _____    ______ ____
ROOT
ATOM      1  C   UNL     1       4.916   4.849   0.090  0.00  0.00    +0.255 C 
ATOM      2  C   UNL     1       5.444   4.543  -1.313  0.00  0.00    +0.062 C 
ENDROOT
BRANCH   1   3
ATOM      3  C   UNL     1       5.987   5.548   0.888  0.00  0.00    +0.254 C 
ATOM      4  O   UNL     1       5.786   6.659   1.331  0.00  0.00    -0.272 OA
ATOM      5  N   UNL     1       7.168   4.937   1.110  0.00  0.00    -0.301 N 
ATOM      6  H   UNL     1       7.329   4.049   0.756  0.00  0.00    +0.150 HD
BRANCH   5   7
ATOM      7  C   UNL     1       8.209   5.616   1.885  0.00  0.00    +0.159 C 
BRANCH   7   8
ATOM      8  C   UNL     1       9.122   4.591   2.507  0.00  0.00    +0.234 C 
ATOM      9  O   UNL     1       8.922   3.409   2.321  0.00  0.00    -0.274 OA
ATOM     10  N   UNL     1      10.160   4.987   3.271  0.00  0.00    -0.305 N 
ATOM     11  H   UNL     1      10.319   5.932   3.420  0.00  0.00    +0.149 HD
BRANCH  10  12
ATOM     12  C   UNL     1      11.047   3.990   3.875  0.00  0.00    +0.199 C 
BRANCH  12  13
ATOM     13  C   UNL     1      12.117   4.688   4.673  0.00  0.00    +0.228 C 
ATOM     14  O   UNL     1      12.138   5.899   4.731  0.00  0.00    -0.274 OA
ATOM     15  N   UNL     1      13.053   3.967   5.322  0.00  0.00    -0.328 N 
ATOM     16  H   UNL     1      13.037   2.998   5.275  0.00  0.00    +0.145 HD
ATOM     17  H   UNL     1      13.742   4.416   5.835  0.00  0.00    +0.145 HD
ENDBRANCH  12  13
ENDBRANCH  10  12
ENDBRANCH   7   8
BRANCH   7  18
ATOM     18  C   UNL     1       9.020   6.528   0.962  0.00  0.00    +0.034 C 
BRANCH  18  19
ATOM     19  C   UNL     1       8.120   7.644   0.428  0.00  0.00    -0.015 C 
ATOM     20  C   UNL     1       7.673   8.537   1.588  0.00  0.00    +0.007 C 
ATOM     21  C   UNL     1       8.896   8.481  -0.590  0.00  0.00    +0.007 C 
ENDBRANCH  18  19
ENDBRANCH   7  18
ENDBRANCH   5   7
ENDBRANCH   1   3
BRANCH   1  22
ATOM     22  O   UNL     1       3.767   5.693  -0.006  0.00  0.00    -0.480 OA
BRANCH  22  28
ATOM     23  C   UNL     1       1.402   5.842  -0.205  0.00  0.00    -0.005 A 
ATOM     24  C   UNL     1       0.192   5.243  -0.412  0.00  0.00    +0.022 A 
ATOM     25  C   UNL     1       0.130   3.867  -0.635  0.00  0.00    +0.065 A 
ATOM     26  C   UNL     1       1.304   3.094  -0.648  0.00  0.00    +0.142 A 
ATOM     27  C   UNL     1       2.526   3.719  -0.435  0.00  0.00    +0.093 A 
ATOM     28  C   UNL     1       2.572   5.085  -0.214  0.00  0.00    +0.128 A 
ATOM     29  O   UNL     1       1.243   1.765  -0.864  0.00  0.00    -0.462 OA
ATOM     30  C   UNL     1       0.101   1.109  -1.076  0.00  0.00    +0.210 A 
ATOM     31  C   UNL     1      -1.109   1.732  -1.096  0.00  0.00    +0.089 A 
ATOM     32  C   UNL     1      -1.158   3.187  -0.864  0.00  0.00    +0.202 A 
ATOM     33  O   UNL     1      -2.212   3.799  -0.866  0.00  0.00    -0.286 OA
BRANCH  31  34
ATOM     34  C   UNL     1      -2.348   0.965  -1.339  0.00  0.00    +0.115 A 
ATOM     35  N   UNL     1      -2.504  -0.332  -1.566  0.00  0.00    -0.244 NA
ATOM     36  C   UNL     1      -3.695  -0.850  -1.761  0.00  0.00    +0.046 A 
ATOM     37  C   UNL     1      -4.793  -0.051  -1.742  0.00  0.00    +0.070 A 
ATOM     38  S   UNL     1      -4.040   1.538  -1.415  0.00  0.00    -0.075 S 
ATOM     39  C   UNL     1      -3.843  -2.329  -2.012  0.00  0.00    +0.066 C 
ENDBRANCH  31  34
BRANCH  23  41
ATOM     40  C   UNL     1       1.752   8.046  -1.285  0.00  0.00    +0.009 C 
ATOM     41  C   UNL     1       1.471   7.328   0.037  0.00  0.00    +0.035 C 
ENDBRANCH  23  41
ENDBRANCH  22  28
ENDBRANCH   1  22
TORSDOF 11
