REMARK  Name = ZINC40839482
REMARK  7 active torsions:
REMARK  status: ('A' for Active; 'I' for Inactive)
REMARK    1  A    between atoms: C_1  and  C_2
REMARK    2  A    between atoms: C_2  and  C_4
REMARK    3  A    between atoms: C_2  and  C_16
REMARK    4  A    between atoms: N_18  and  C_19
REMARK    5  A    between atoms: C_20  and  C_28
REMARK    6  A    between atoms: C_28  and  O_30
REMARK    7  A    between atoms: O_30  and  C_31
REMARK                            x       y       z     vdW  Elec       q    Type
REMARK                         _______ _______ _______ _____ _____    ______ ____
ROOT
ATOM      1  C   UNL     1      -1.412  -0.526   0.013  0.00  0.00    +0.222 C 
ATOM      2  O   UNL     1      -1.790  -1.233   0.922  0.00  0.00    -0.275 OA
ATOM      3  N   UNL     1      -2.256  -0.206  -0.988  0.00  0.00    -0.279 N 
ATOM      4  H   UNL     1      -1.953   0.360  -1.716  0.00  0.00    +0.155 HD
ENDROOT
BRANCH   3   5
ATOM      5  C   UNL     1      -3.556  -0.686  -0.979  0.00  0.00    +0.086 A 
ATOM      6  C   UNL     1      -4.553  -0.467  -1.918  0.00  0.00    +0.091 A 
ATOM      7  C   UNL     1      -5.843  -1.089  -1.673  0.00  0.00    -0.021 A 
ATOM      8  C   UNL     1      -5.900  -1.814  -0.536  0.00  0.00    -0.004 A 
ATOM      9  S   UNL     1      -4.284  -1.671   0.170  0.00  0.00    -0.077 S 
ATOM     10  C   UNL     1      -7.081  -2.569  -0.008  0.00  0.00    +0.043 C 
ATOM     11  C   UNL     1      -8.333  -2.091  -0.758  0.00  0.00    +0.005 C 
ATOM     12  C   UNL     1      -8.038  -2.083  -2.261  0.00  0.00    +0.005 C 
ATOM     13  C   UNL     1      -7.050  -0.962  -2.592  0.00  0.00    +0.037 C 
BRANCH   6  14
ATOM     14  C   UNL     1      -4.315   0.355  -3.106  0.00  0.00    +0.342 C 
ATOM     15  O   UNL     1      -3.904  -0.158  -4.129  0.00  0.00    -0.245 OA
BRANCH  14  16
ATOM     16  O   UNL     1      -4.551   1.683  -3.065  0.00  0.00    -0.464 OA
ATOM     17  C   UNL     1      -4.297   2.424  -4.260  0.00  0.00    +0.280 C 
ENDBRANCH  14  16
ENDBRANCH   6  14
ENDBRANCH   3   5
BRANCH   1  19
ATOM     18  C   UNL     1      -0.019   1.526   0.010  0.00  0.00    +0.019 C 
ATOM     19  C   UNL     1       0.002  -0.004   0.002  0.00  0.00    +0.094 C 
BRANCH  19  20
ATOM     20  C   UNL     1       0.742  -0.511   1.242  0.00  0.00    +0.149 C 
ATOM     21  C   UNL     1       2.152   0.014   1.237  0.00  0.00    +0.231 C 
ATOM     22  O   UNL     1       3.023  -0.687   0.767  0.00  0.00    -0.274 OA
ATOM     23  N   UNL     1       2.496   1.204   1.721  0.00  0.00    -0.284 N 
ATOM     24  C   UNL     1       1.637   2.143   2.287  0.00  0.00    +0.047 A 
ATOM     25  C   UNL     1       2.020   3.479   2.335  0.00  0.00    +0.024 A 
ATOM     26  C   UNL     1       1.183   4.423   2.897  0.00  0.00    +0.002 A 
ATOM     27  C   UNL     1      -0.043   4.051   3.417  0.00  0.00    +0.001 A 
ATOM     28  C   UNL     1      -0.438   2.727   3.374  0.00  0.00    +0.016 A 
ATOM     29  C   UNL     1       0.397   1.777   2.810  0.00  0.00    +0.030 A 
ATOM     30  S   UNL     1      -0.102   0.081   2.740  0.00  0.00    -0.110 S 
ATOM     31  H   UNL     1       3.436   1.441   1.676  0.00  0.00    +0.155 HD
ENDBRANCH  19  20
ENDBRANCH   1  19
TORSDOF 5
