REMARK  Name = ZINC55154586
REMARK  8 active torsions:
REMARK  status: ('A' for Active; 'I' for Inactive)
REMARK    1  A    between atoms: C_1  and  C_2
REMARK    2  A    between atoms: N_8  and  C_9
REMARK    3  A    between atoms: C_9  and  C_10
REMARK    4  A    between atoms: C_10  and  N_11
REMARK    5  A    between atoms: C_12  and  C_14
REMARK    6  A    between atoms: C_14  and  C_15
REMARK    7  A    between atoms: C_15  and  C_16
REMARK    8  A    between atoms: N_18  and  C_19
REMARK                            x       y       z     vdW  Elec       q    Type
REMARK                         _______ _______ _______ _____ _____    ______ ____
ROOT
ATOM      1  N   UNL     1       0.053  -2.476   6.034  0.00  0.00    -0.314 N 
ATOM      2  C   UNL     1       0.067  -3.183   7.181  0.00  0.00    +0.214 C 
ATOM      3  O   UNL     1       0.075  -4.395   7.146  0.00  0.00    -0.276 OA
ATOM      4  H   UNL     1       0.047  -1.506   6.062  0.00  0.00    +0.149 HD
ENDROOT
BRANCH   1   5
ATOM      5  C   UNL     1       0.049  -3.171   4.745  0.00  0.00    +0.123 C 
BRANCH   5   6
ATOM      6  C   UNL     1       0.034  -2.143   3.611  0.00  0.00    +0.121 C 
BRANCH   6  14
ATOM      7  C   UNL     1      -0.017   1.502   0.010  0.00  0.00    +0.044 C 
ATOM      8  C   UNL     1      -0.007  -0.005   0.002  0.00  0.00    -0.046 A 
ATOM      9  C   UNL     1      -0.011  -0.709  -1.196  0.00  0.00    +0.021 A 
ATOM     10  C   UNL     1      -0.001  -2.089  -1.169  0.00  0.00    +0.084 A 
ATOM     11  N   UNL     1       0.012  -2.744  -0.023  0.00  0.00    -0.350 N 
ATOM     12  C   UNL     1       0.016  -2.109   1.139  0.00  0.00    +0.096 A 
ATOM     13  C   UNL     1       0.012  -0.719   1.186  0.00  0.00    +0.045 A 
ATOM     14  N   UNL     1       0.029  -2.839   2.322  0.00  0.00    -0.329 N 
ATOM     15  H   UNL     1       0.036  -3.808   2.294  0.00  0.00    +0.147 HD
ATOM     16  H   UNL     1       0.019  -3.714  -0.033  0.00  0.00    +0.166 HD
ENDBRANCH   6  14
ENDBRANCH   5   6
ENDBRANCH   1   5
BRANCH   2  17
ATOM     17  C   UNL     1       0.071  -2.468   8.508  0.00  0.00    +0.105 C 
BRANCH  17  18
ATOM     18  C   UNL     1       0.086  -3.495   9.641  0.00  0.00    +0.105 C 
BRANCH  18  19
ATOM     19  C   UNL     1       0.091  -2.780  10.968  0.00  0.00    +0.218 C 
ATOM     20  O   UNL     1       0.083  -1.567  11.003  0.00  0.00    -0.275 OA
ATOM     21  N   UNL     1       0.104  -3.487  12.115  0.00  0.00    -0.285 N 
ATOM     22  H   UNL     1       0.043  -4.455  12.089  0.00  0.00    +0.155 HD
BRANCH  21  23
ATOM     23  C   UNL     1       0.206  -2.825  13.345  0.00  0.00    +0.035 A 
ATOM     24  C   UNL     1       0.920  -3.401  14.387  0.00  0.00    +0.026 A 
ATOM     25  C   UNL     1       1.020  -2.747  15.599  0.00  0.00    +0.041 A 
ATOM     26  C   UNL     1       0.409  -1.517  15.776  0.00  0.00    +0.142 A 
ATOM     27  C   UNL     1      -0.304  -0.940  14.738  0.00  0.00    +0.078 A 
ATOM     28  C   UNL     1      -0.402  -1.590  13.521  0.00  0.00    +0.046 A 
ATOM     29 CL   UNL     1      -1.070   0.602  14.962  0.00  0.00    -0.081 Cl
ATOM     30  F   UNL     1       0.507  -0.879  16.963  0.00  0.00    -0.204 F 
ENDBRANCH  21  23
ENDBRANCH  18  19
ENDBRANCH  17  18
ENDBRANCH   2  17
TORSDOF 7
