REMARK  Name = ZINC48417391
REMARK  7 active torsions:
REMARK  status: ('A' for Active; 'I' for Inactive)
REMARK    1  A    between atoms: C_1  and  C_2
REMARK    2  A    between atoms: C_2  and  C_3
REMARK    3  A    between atoms: C_2  and  C_4
REMARK    4  A    between atoms: C_2  and  C_5
REMARK    5  A    between atoms: C_7  and  N_11
REMARK    6  A    between atoms: N_8  and  C_10
REMARK    7  A    between atoms: C_12  and  C_14
REMARK                            x       y       z     vdW  Elec       q    Type
REMARK                         _______ _______ _______ _____ _____    ______ ____
ROOT
ATOM      1  N   UNL     1       3.602  -1.374  -3.169  0.00  0.00    -0.270 N 
ATOM      2  C   UNL     1       4.688  -0.778  -2.639  0.00  0.00    +0.222 C 
ATOM      3  O   UNL     1       4.581  -0.101  -1.638  0.00  0.00    -0.275 OA
ATOM      4  H   UNL     1       3.688  -1.915  -3.969  0.00  0.00    +0.156 HD
ENDROOT
BRANCH   2   5
ATOM      5  C   UNL     1       6.036  -0.952  -3.290  0.00  0.00    +0.079 C 
ATOM      6  C   UNL     1       7.014   0.142  -2.805  0.00  0.00    +0.016 C 
ATOM      7  C   UNL     1       8.166  -0.640  -2.104  0.00  0.00    -0.010 C 
ATOM      8  C   UNL     1       7.527  -1.180  -0.789  0.00  0.00    +0.004 C 
ATOM      9  C   UNL     1       6.539  -2.273  -1.254  0.00  0.00    +0.004 C 
ATOM     10  C   UNL     1       6.688  -2.295  -2.838  0.00  0.00    +0.001 C 
ATOM     11  C   UNL     1       8.211  -1.939  -2.983  0.00  0.00    +0.008 C 
ENDBRANCH   2   5
BRANCH   1  14
ATOM     12  C   UNL     1       0.721  -0.585  -1.185  0.00  0.00    +0.070 A 
ATOM     13  C   UNL     1       2.090  -0.484  -1.447  0.00  0.00    +0.069 A 
ATOM     14  C   UNL     1       2.354  -1.212  -2.566  0.00  0.00    +0.123 A 
ATOM     15  N   UNL     1       1.187  -1.750  -2.989  0.00  0.00    -0.253 N 
ATOM     16  N   UNL     1       0.181  -1.345  -2.103  0.00  0.00    -0.174 NA
ATOM     17  C   UNL     1       1.008  -2.608  -4.163  0.00  0.00    +0.174 C 
BRANCH  12  19
ATOM     18  C   UNL     1      -0.173   1.560  -0.319  0.00  0.00    +0.017 C 
ATOM     19  C   UNL     1      -0.008   0.065  -0.037  0.00  0.00    +0.006 C 
ATOM     20  C   UNL     1       0.797  -0.125   1.251  0.00  0.00    +0.017 C 
ATOM     21  C   UNL     1      -1.386  -0.580   0.123  0.00  0.00    +0.017 C 
ENDBRANCH  12  19
ENDBRANCH   1  14
TORSDOF 3
