REMARK  Name = ZINC12886920
REMARK  18 active torsions:
REMARK  status: ('A' for Active; 'I' for Inactive)
REMARK    1  A    between atoms: C_1  and  C_2
REMARK    2  A    between atoms: C_2  and  C_3
REMARK    3  A    between atoms: C_2  and  C_4
REMARK    4  A    between atoms: C_4  and  C_5
REMARK    5  A    between atoms: C_5  and  C_7
REMARK    6  A    between atoms: C_5  and  N_28
REMARK    7  A    between atoms: N_9  and  C_10
REMARK    8  A    between atoms: C_10  and  C_11
REMARK    9  A    between atoms: C_14  and  C_17
REMARK   10  A    between atoms: N_19  and  CA_20
REMARK   11  A    between atoms: CA_20  and  CB_22
REMARK   12  A    between atoms: CA_20  and  C_26
REMARK   13  A    between atoms: CB_22  and  CG_23
REMARK   14  A    between atoms: C_29  and  O_31
REMARK   15  A    between atoms: O_31  and  C_32
REMARK   16  A    between atoms: C_32  and  C_33
REMARK   17  A    between atoms: C_32  and  C_34
REMARK   18  A    between atoms: C_32  and  C_35
REMARK                            x       y       z     vdW  Elec       q    Type
REMARK                         _______ _______ _______ _____ _____    ______ ____
ROOT
ATOM      1  C   UNK A   0       0.994  -2.293  -3.970  0.00  0.00    +0.006 C 
ATOM      2  C   UNK A   0       2.079  -2.607  -2.938  0.00  0.00    +0.006 C 
ATOM      3  C   UNK A   0       2.352  -4.112  -2.926  0.00  0.00    +0.013 C 
ATOM      4  C   UNK A   0       2.822  -4.557  -4.312  0.00  0.00    +0.075 C 
ATOM      5  C   UNK A   0       1.736  -4.243  -5.344  0.00  0.00    +0.013 C 
ATOM      6  C   UNK A   0       1.464  -2.737  -5.356  0.00  0.00    +0.006 C 
ENDROOT
BRANCH   4   7
ATOM      7  C   UNK A   0       4.086  -3.821  -4.674  0.00  0.00    +0.217 C 
ATOM      8  O   UNK A   0       4.116  -3.115  -5.660  0.00  0.00    -0.275 OA
ATOM      9  N   ASN A   1       5.184  -3.947  -3.902  0.00  0.00    -0.302 N 
ATOM     10  H   ASN A   1       5.160  -4.511  -3.114  0.00  0.00    +0.150 HD
BRANCH   9  11
ATOM     11  CA  ASN A   1       6.413  -3.231  -4.253  0.00  0.00    +0.195 C 
BRANCH  11  12
ATOM     12  C   ASN A   1       6.357  -1.833  -3.694  0.00  0.00    +0.376 C 
ATOM     13  O   ASN A   1       5.390  -1.471  -3.067  0.00  0.00    -0.244 OA
ATOM     14  OXT ASN A   1       7.382  -0.989  -3.894  0.00  0.00    -0.244 OA
ENDBRANCH  11  12
BRANCH  11  15
ATOM     15  CB  ASN A   1       7.618  -3.968  -3.665  0.00  0.00    +0.129 C 
BRANCH  15  16
ATOM     16  CG  ASN A   1       7.745  -5.322  -4.315  0.00  0.00    +0.213 C 
ATOM     17  OD1 ASN A   1       6.950  -5.664  -5.165  0.00  0.00    -0.276 OA
ATOM     18  ND2 ASN A   1       8.742  -6.152  -3.952  0.00  0.00    -0.329 N 
ATOM     19 HD21 ASN A   1       9.378  -5.879  -3.272  0.00  0.00    +0.145 HD
ATOM     20 HD22 ASN A   1       8.824  -7.024  -4.370  0.00  0.00    +0.145 HD
ENDBRANCH  15  16
ENDBRANCH  11  15
ENDBRANCH   9  11
ENDBRANCH   4   7
BRANCH   1  21
ATOM     21  C   UNK A   0       0.722  -0.787  -3.982  0.00  0.00    +0.107 C 
BRANCH  21  24
ATOM     22  C   UNK A   0      -0.162   0.908  -2.471  0.00  0.00    +0.233 C 
ATOM     23  O   UNK A   0       0.016   1.734  -3.341  0.00  0.00    -0.274 OA
ATOM     24  N   UNK A   0       0.159  -0.383  -2.692  0.00  0.00    -0.314 N 
ATOM     25  H   UNK A   0       0.017  -1.043  -1.996  0.00  0.00    +0.149 HD
BRANCH  22  26
ATOM     26  C   UNK A   0      -0.741   1.324  -1.144  0.00  0.00    +0.162 C 
BRANCH  26  27
ATOM     27  N   UNK A   0      -0.930   2.777  -1.128  0.00  0.00    -0.270 N 
ATOM     28  C   UNK A   0      -1.795   3.334  -0.258  0.00  0.00    +0.401 C 
ATOM     29  O   UNK A   0      -2.350   2.644   0.574  0.00  0.00    -0.226 OA
ATOM     30  H   UNK A   0      -0.433   3.338  -1.744  0.00  0.00    +0.153 HD
BRANCH  28  31
ATOM     31  O   UNK A   0      -2.045   4.656  -0.309  0.00  0.00    -0.445 OA
BRANCH  31  32
ATOM     32  C   UNK A   0      -2.987   5.188   0.659  0.00  0.00    +0.107 C 
ATOM     33  C   UNK A   0      -2.469   4.923   2.074  0.00  0.00    +0.055 C 
ATOM     34  C   UNK A   0      -3.141   6.695   0.446  0.00  0.00    +0.055 C 
ATOM     35  C   UNK A   0      -4.345   4.506   0.476  0.00  0.00    +0.055 C 
ENDBRANCH  31  32
ENDBRANCH  28  31
ENDBRANCH  26  27
BRANCH  26  36
ATOM     36  C   UNK A   0       0.217   0.922  -0.021  0.00  0.00    +0.035 C 
BRANCH  36  38
ATOM     37  C   UNK A   0       2.384   1.475   1.093  0.00  0.00    +0.007 C 
ATOM     38  C   UNK A   0       1.503   1.745  -0.128  0.00  0.00    -0.015 C 
ATOM     39  C   UNK A   0       2.257   1.348  -1.399  0.00  0.00    +0.007 C 
ENDBRANCH  36  38
ENDBRANCH  26  36
ENDBRANCH  22  26
ENDBRANCH  21  24
ENDBRANCH   1  21
TORSDOF 13
