REMARK  Name = ZINC24763475
REMARK  11 active torsions:
REMARK  status: ('A' for Active; 'I' for Inactive)
REMARK    1  A    between atoms: C_1  and  C_2
REMARK    2  A    between atoms: C_2  and  O_3
REMARK    3  A    between atoms: O_3  and  C_4
REMARK    4  A    between atoms: C_4  and  C_6
REMARK    5  A    between atoms: C_7  and  C_35
REMARK    6  A    between atoms: C_8  and  C_13
REMARK    7  A    between atoms: C_11  and  C_12
REMARK    8  A    between atoms: N_15  and  C_16
REMARK    9  A    between atoms: C_18  and  C_34
REMARK   10  A    between atoms: C_20  and  C_33
REMARK   11  A    between atoms: C_24  and  C_25
REMARK                            x       y       z     vdW  Elec       q    Type
REMARK                         _______ _______ _______ _____ _____    ______ ____
ROOT
ATOM      1  C   UNL     1       1.020   5.939  -0.684  0.00  0.00    +0.063 A 
ATOM      2  C   UNL     1       0.528   5.403   0.576  0.00  0.00    +0.033 A 
ATOM      3  C   UNL     1      -0.554   5.859   1.370  0.00  0.00    -0.037 A 
ATOM      4  C   UNL     1      -0.853   5.193   2.535  0.00  0.00    +0.027 A 
ATOM      5  C   UNL     1      -0.098   4.098   2.931  0.00  0.00    +0.040 A 
ATOM      6  N   UNL     1       0.908   3.677   2.190  0.00  0.00    -0.245 NA
ATOM      7  C   UNL     1       1.229   4.277   1.064  0.00  0.00    +0.111 A 
ATOM      8  S   UNL     1       2.487   3.995  -0.158  0.00  0.00    -0.062 S 
ATOM      9  C   UNL     1       2.097   5.324  -1.280  0.00  0.00    +0.098 A 
ATOM     10  C   UNL     1      -0.434   3.382   4.213  0.00  0.00    +0.065 C 
ATOM     11  C   UNL     1      -1.368   7.052   0.941  0.00  0.00    +0.044 C 
ENDROOT
BRANCH   9  12
ATOM     12  C   UNL     1       2.763   5.677  -2.533  0.00  0.00    +0.255 C 
ATOM     13  O   UNL     1       2.316   5.278  -3.593  0.00  0.00    -0.269 OA
ATOM     14  N   UNL     1       3.872   6.443  -2.514  0.00  0.00    -0.293 N 
ATOM     15  C   UNL     1       4.495   6.843  -1.243  0.00  0.00    +0.136 C 
ATOM     16  C   UNL     1       5.994   6.510  -1.319  0.00  0.00    +0.179 C 
ATOM     17  O   UNL     1       6.544   7.088  -2.505  0.00  0.00    -0.377 OA
ATOM     18  C   UNL     1       5.986   6.578  -3.718  0.00  0.00    +0.179 C 
ATOM     19  C   UNL     1       4.490   6.910  -3.765  0.00  0.00    +0.136 C 
ENDBRANCH   9  12
BRANCH   1  22
ATOM     20  C   UNL     1       1.069   8.223  -1.320  0.00  0.00    +0.265 C 
ATOM     21  O   UNL     1       2.226   8.293  -0.949  0.00  0.00    -0.268 OA
ATOM     22  N   UNL     1       0.416   7.045  -1.271  0.00  0.00    -0.279 N 
ATOM     23  H   UNL     1      -0.595   6.959  -1.697  0.00  0.00    +0.155 HD
BRANCH  20  26
ATOM     24  C   UNL     1      -0.093  11.526  -2.393  0.00  0.00    +0.083 A 
ATOM     25  C   UNL     1       0.891  10.688  -1.821  0.00  0.00    -0.006 A 
ATOM     26  C   UNL     1       0.385   9.422  -1.820  0.00  0.00    +0.106 A 
ATOM     27  N   UNL     1      -0.880   9.460  -2.364  0.00  0.00    -0.354 N 
ATOM     28  H   UNL     1      -1.470   8.536  -2.452  0.00  0.00    +0.166 HD
ATOM     29  C   UNL     1      -1.174  10.724  -2.711  0.00  0.00    +0.028 A 
ATOM     30  C   UNL     1      -2.463  11.189  -3.338  0.00  0.00    +0.064 C 
ATOM     31  C   UNL     1       2.244  11.113  -1.312  0.00  0.00    +0.047 C 
BRANCH  24  32
ATOM     32  C   UNL     1       0.010  12.979  -2.604  0.00  0.00    +0.341 C 
ATOM     33  O   UNL     1      -0.354  13.747  -1.734  0.00  0.00    -0.245 OA
BRANCH  32  34
ATOM     34  O   UNL     1       0.508  13.459  -3.761  0.00  0.00    -0.461 OA
BRANCH  34  36
ATOM     35  C   UNL     1       1.167  15.254  -5.268  0.00  0.00    +0.048 C 
ATOM     36  C   UNL     1       0.580  14.902  -3.900  0.00  0.00    +0.229 C 
ENDBRANCH  34  36
ENDBRANCH  32  34
ENDBRANCH  24  32
ENDBRANCH  20  26
ENDBRANCH   1  22
TORSDOF 6
