REMARK  Name = ZINC48861004
REMARK  4 active torsions:
REMARK  status: ('A' for Active; 'I' for Inactive)
REMARK    1  A    between atoms: N_4  and  C_6
REMARK    2  A    between atoms: C_9  and  C_12
REMARK    3  A    between atoms: C_18  and  C_20
REMARK    4  A    between atoms: C_20  and  O_21
REMARK                            x       y       z     vdW  Elec       q    Type
REMARK                         _______ _______ _______ _____ _____    ______ ____
ROOT
ATOM      1  C   UNL     1       1.748  -1.740   0.027  0.00  0.00    +0.046 A 
ATOM      2  C   UNL     1       2.951  -2.062  -0.592  0.00  0.00    +0.027 A 
ATOM      3  C   UNL     1       3.385  -3.369  -0.621  0.00  0.00    +0.015 A 
ATOM      4  C   UNL     1       2.614  -4.372  -0.028  0.00  0.00    +0.037 A 
ATOM      5  C   UNL     1       1.405  -4.045   0.592  0.00  0.00    +0.015 A 
ATOM      6  C   UNL     1       0.981  -2.735   0.622  0.00  0.00    +0.027 A 
ENDROOT
BRANCH   4   7
ATOM      7  C   UNL     1       3.075  -5.774  -0.057  0.00  0.00    +0.247 C 
ATOM      8  O   UNL     1       4.259  -6.022  -0.172  0.00  0.00    -0.270 OA
ATOM      9  N   UNL     1       2.182  -6.779   0.042  0.00  0.00    -0.292 N 
ATOM     10  C   UNL     1       0.716  -6.627   0.058  0.00  0.00    +0.108 C 
ATOM     11  C   UNL     1       0.171  -7.991  -0.435  0.00  0.00    +0.021 C 
ATOM     12  C   UNL     1       1.175  -8.980   0.214  0.00  0.00    +0.026 C 
ATOM     13  C   UNL     1       2.509  -8.208   0.147  0.00  0.00    +0.102 C 
BRANCH  13  14
ATOM     14  C   UNL     1       3.320  -8.464   1.420  0.00  0.00    +0.178 C 
BRANCH  14  15
ATOM     15  O   UNL     1       2.512  -8.181   2.564  0.00  0.00    -0.393 OA
ATOM     16  H   UNL     1       2.962  -8.322   3.408  0.00  0.00    +0.209 HD
ENDBRANCH  14  15
ENDBRANCH  13  14
ENDBRANCH   4   7
BRANCH   1  20
ATOM     17  C   UNL     1       0.086   1.369   0.452  0.00  0.00    +0.019 A 
ATOM     18  C   UNL     1       1.237   1.763  -0.260  0.00  0.00    +0.019 A 
ATOM     19  C   UNL     1       1.969   0.654  -0.491  0.00  0.00    +0.091 A 
ATOM     20  N   UNL     1       1.312  -0.412   0.054  0.00  0.00    -0.323 N 
ATOM     21  C   UNL     1       0.157   0.035   0.631  0.00  0.00    +0.091 A 
ENDBRANCH   1  20
TORSDOF 4
