REMARK  Name = ZINC63786682
REMARK  11 active torsions:
REMARK  status: ('A' for Active; 'I' for Inactive)
REMARK    1  A    between atoms: C_1  and  C_2
REMARK    2  A    between atoms: C_4  and  C_18
REMARK    3  A    between atoms: C_7  and  N_10
REMARK    4  A    between atoms: N_10  and  C_11
REMARK    5  A    between atoms: C_11  and  C_12
REMARK    6  A    between atoms: C_12  and  O_13
REMARK    7  A    between atoms: O_13  and  C_14
REMARK    8  A    between atoms: C_15  and  C_17
REMARK    9  A    between atoms: C_18  and  N_20
REMARK   10  A    between atoms: C_27  and  O_31
REMARK   11  A    between atoms: O_31  and  C_32
REMARK                            x       y       z     vdW  Elec       q    Type
REMARK                         _______ _______ _______ _____ _____    ______ ____
ROOT
ATOM      1  C   UNL     1      -0.988   1.748  -0.974  0.00  0.00    +0.025 C 
ATOM      2  C   UNL     1      -0.668   0.277  -0.701  0.00  0.00    +0.075 C 
ATOM      3  C   UNL     1      -1.930  -0.565  -0.991  0.00  0.00    +0.154 C 
ATOM      4  S   UNL     1      -2.126  -1.504   0.583  0.00  0.00    -0.108 S 
ATOM      5  C   UNL     1      -0.427  -1.202   1.247  0.00  0.00    +0.205 C 
ATOM      6  N   UNL     1      -0.180   0.152   0.675  0.00  0.00    -0.286 NA
ATOM      7  H   UNL     1       0.797   0.394   0.735  0.00  0.00    +0.125 HD
ENDROOT
BRANCH   5   8
ATOM      8  N   UNL     1      -0.423  -1.173   2.712  0.00  0.00    -0.275 N 
ATOM      9  C   UNL     1      -0.448   0.006   3.362  0.00  0.00    +0.214 C 
ATOM     10  O   UNL     1      -0.577   1.040   2.740  0.00  0.00    -0.276 OA
ATOM     11  C   UNL     1      -0.314   0.042   4.863  0.00  0.00    +0.109 C 
BRANCH   8  12
ATOM     12  C   UNL     1      -0.392  -2.427   3.469  0.00  0.00    +0.138 C 
BRANCH  12  13
ATOM     13  C   UNL     1       1.056  -2.896   3.620  0.00  0.00    +0.178 C 
BRANCH  13  14
ATOM     14  O   UNL     1       1.781  -1.956   4.416  0.00  0.00    -0.381 OA
ATOM     15  C   UNL     1       3.152  -2.302   4.619  0.00  0.00    +0.194 C 
ENDBRANCH  13  14
ENDBRANCH  12  13
ENDBRANCH   8  12
ENDBRANCH   5   8
BRANCH   3  16
ATOM     16  C   UNL     1      -3.123   0.321  -1.243  0.00  0.00    +0.253 C 
ATOM     17  O   UNL     1      -3.424   0.626  -2.381  0.00  0.00    -0.272 OA
BRANCH  16  18
ATOM     18  N   UNL     1      -3.845   0.769  -0.222  0.00  0.00    -0.156 NA
ATOM     19  C   UNL     1      -4.960   1.461  -0.448  0.00  0.00    +0.164 A 
ATOM     20  N   UNL     1      -5.560   1.706  -1.640  0.00  0.00    -0.335 N 
ATOM     21  H   UNL     1      -5.173   1.359  -2.459  0.00  0.00    +0.168 HD
ATOM     22  C   UNL     1      -6.725   2.452  -1.684  0.00  0.00    +0.055 A 
ATOM     23  C   UNL     1      -7.498   2.819  -2.793  0.00  0.00    +0.030 A 
ATOM     24  C   UNL     1      -8.637   3.573  -2.636  0.00  0.00    +0.048 A 
ATOM     25  C   UNL     1      -9.054   3.991  -1.378  0.00  0.00    +0.121 A 
ATOM     26  C   UNL     1      -8.304   3.639  -0.264  0.00  0.00    +0.062 A 
ATOM     27  C   UNL     1      -7.166   2.885  -0.425  0.00  0.00    +0.042 A 
ATOM     28  S   UNL     1      -5.947   2.223   0.679  0.00  0.00    -0.052 S 
BRANCH  25  29
ATOM     29  O   UNL     1     -10.182   4.737  -1.240  0.00  0.00    -0.495 OA
ATOM     30  C   UNL     1     -10.898   5.059  -2.434  0.00  0.00    +0.277 C 
ENDBRANCH  25  29
ENDBRANCH  16  18
ENDBRANCH   3  16
TORSDOF 7
