REMARK  Name = ZINC41637008
REMARK  4 active torsions:
REMARK  status: ('A' for Active; 'I' for Inactive)
REMARK    1  A    between atoms: C_1  and  C_2
REMARK    2  A    between atoms: C_8  and  C_10
REMARK    3  A    between atoms: C_10  and  C_12
REMARK    4  A    between atoms: C_10  and  N_19
REMARK                            x       y       z     vdW  Elec       q    Type
REMARK                         _______ _______ _______ _____ _____    ______ ____
ROOT
ATOM      1  C   UNL     1       0.085  -5.916   0.773  0.00  0.00    +0.008 C 
ENDROOT
BRANCH   1   9
ATOM      2  C   UNL     1      -0.018   1.503   0.010  0.00  0.00    +0.090 C 
ATOM      3  C   UNL     1       0.002  -0.004   0.002  0.00  0.00    +0.150 A 
ATOM      4  N   UNL     1       0.008  -0.769  -1.088  0.00  0.00    -0.205 NA
ATOM      5  C   UNL     1       0.026  -2.025  -0.733  0.00  0.00    +0.199 A 
ATOM      6  N   UNL     1       0.033  -2.116   0.625  0.00  0.00    -0.170 N 
ATOM      7  N   UNL     1       0.022  -0.766   1.063  0.00  0.00    -0.147 NA
ATOM      8  C   UNL     1       0.052  -3.377   1.171  0.00  0.00    +0.282 A 
ATOM      9  C   UNL     1       0.063  -4.460   0.386  0.00  0.00    +0.050 A 
ATOM     10  S   UNL     1       0.047  -3.727  -1.243  0.00  0.00    -0.050 S 
ATOM     11  O   UNL     1       0.060  -3.525   2.523  0.00  0.00    -0.265 OA
ENDBRANCH   1   9
BRANCH   1  12
ATOM     12  C   UNL     1      -1.196  -6.574   0.328  0.00  0.00    -0.021 A 
ATOM     13  C   UNL     1      -1.219  -7.329  -0.829  0.00  0.00    +0.005 A 
ATOM     14  C   UNL     1      -2.394  -7.932  -1.238  0.00  0.00    +0.000 A 
ATOM     15  C   UNL     1      -3.546  -7.781  -0.489  0.00  0.00    +0.003 A 
ATOM     16  C   UNL     1      -3.525  -7.027   0.669  0.00  0.00    +0.038 A 
ATOM     17  C   UNL     1      -2.348  -6.426   1.082  0.00  0.00    +0.125 A 
ATOM     18  F   UNL     1      -2.325  -5.693   2.216  0.00  0.00    -0.205 F 
ENDBRANCH   1  12
BRANCH   1  19
ATOM     19  N   UNL     1       1.226  -6.578   0.126  0.00  0.00    +0.388 N 
ATOM     20  C   UNL     1       2.502  -5.999   0.620  0.00  0.00    -0.078 C 
ATOM     21  C   UNL     1       3.536  -7.113   0.319  0.00  0.00    -0.020 C 
ATOM     22  C   UNL     1       2.745  -8.408   0.614  0.00  0.00    -0.020 C 
ATOM     23  C   UNL     1       1.262  -8.009   0.496  0.00  0.00    -0.078 C 
ATOM     24  H   UNL     1       1.163  -6.479  -0.876  0.00  0.00    -0.080 HD
ENDBRANCH   1  19
TORSDOF 3
