REMARK  Name = ZINC40266846
REMARK  6 active torsions:
REMARK  status: ('A' for Active; 'I' for Inactive)
REMARK    1  A    between atoms: C_1  and  C_2
REMARK    2  A    between atoms: C_2  and  C_3
REMARK    3  A    between atoms: C_3  and  S_4
REMARK    4  A    between atoms: S_4  and  C_5
REMARK    5  A    between atoms: N_7  and  C_22
REMARK    6  A    between atoms: C_22  and  C_23
REMARK                            x       y       z     vdW  Elec       q    Type
REMARK                         _______ _______ _______ _____ _____    ______ ____
ROOT
ATOM      1  C   UNL     1       1.641  -2.747   2.702  0.00  0.00    +0.198 A 
ATOM      2  N   UNL     1       2.127  -1.901   3.560  0.00  0.00    -0.142 NA
ATOM      3  N   UNL     1       2.749  -2.617   4.590  0.00  0.00    -0.221 N 
ATOM      4  C   UNL     1       2.609  -3.943   4.303  0.00  0.00    +0.238 A 
ATOM      5  N   UNL     1       1.916  -4.032   3.130  0.00  0.00    -0.222 N 
ATOM      6  C   UNL     1       1.618  -5.231   2.591  0.00  0.00    +0.270 A 
ATOM      7  O   UNL     1       1.003  -5.298   1.540  0.00  0.00    -0.266 OA
ATOM      8  C   UNL     1       2.031  -6.420   3.261  0.00  0.00    +0.076 A 
ATOM      9  C   UNL     1       1.812  -7.812   2.859  0.00  0.00    -0.023 A 
ATOM     10  C   UNL     1       2.304  -8.769   3.670  0.00  0.00    -0.004 A 
ATOM     11  S   UNL     1       3.079  -7.892   5.001  0.00  0.00    -0.073 S 
ATOM     12  C   UNL     1       2.737  -6.235   4.464  0.00  0.00    +0.118 A 
ATOM     13  N   UNL     1       3.009  -5.030   4.942  0.00  0.00    -0.205 NA
ATOM     14  C   UNL     1       2.213 -10.253   3.484  0.00  0.00    +0.043 C 
ATOM     15  C   UNL     1       1.149 -10.543   2.416  0.00  0.00    +0.005 C 
ATOM     16  C   UNL     1       1.399  -9.628   1.213  0.00  0.00    +0.005 C 
ATOM     17  C   UNL     1       1.063  -8.183   1.581  0.00  0.00    +0.037 C 
ENDROOT
BRANCH   1  18
ATOM     18  S   UNL     1       0.767  -2.325   1.232  0.00  0.00    -0.086 S 
BRANCH  18  19
ATOM     19  C   UNL     1       0.742  -0.511   1.242  0.00  0.00    +0.077 C 
BRANCH  19  21
ATOM     20  C   UNL     1      -0.019   1.526   0.010  0.00  0.00    +0.004 C 
ATOM     21  C   UNL     1       0.002  -0.004   0.002  0.00  0.00    +0.008 C 
ENDBRANCH  19  21
ENDBRANCH  18  19
ENDBRANCH   1  18
BRANCH   3  22
ATOM     22  C   UNL     1       3.424  -2.049   5.760  0.00  0.00    +0.242 C 
BRANCH  22  23
ATOM     23  C   UNL     1       4.880  -1.826   5.440  0.00  0.00    +0.232 C 
ATOM     24  O   UNL     1       5.311  -2.115   4.343  0.00  0.00    -0.274 OA
ATOM     25  N   UNL     1       5.703  -1.307   6.372  0.00  0.00    -0.328 N 
ATOM     26  H   UNL     1       5.359  -1.076   7.249  0.00  0.00    +0.145 HD
ATOM     27  H   UNL     1       6.640  -1.164   6.166  0.00  0.00    +0.145 HD
ENDBRANCH  22  23
ENDBRANCH   3  22
TORSDOF 5
