REMARK  Name = ZINC06016046
REMARK  7 active torsions:
REMARK  status: ('A' for Active; 'I' for Inactive)
REMARK    1  A    between atoms: C_2  and  C_3
REMARK    2  A    between atoms: C_2  and  N_9
REMARK    3  A    between atoms: N_9  and  N_10
REMARK    4  A    between atoms: C_11  and  C_13
REMARK    5  A    between atoms: C_16  and  N_19
REMARK    6  A    between atoms: N_19  and  S_20
REMARK    7  A    between atoms: S_20  and  C_23
REMARK                            x       y       z     vdW  Elec       q    Type
REMARK                         _______ _______ _______ _____ _____    ______ ____
ROOT
ATOM      1  C   UNL     1       1.545   2.068  -0.104  0.00  0.00    +0.038 A 
ATOM      2  C   UNL     1       0.288   1.462  -0.031  0.00  0.00    +0.015 A 
ATOM      3  C   UNL     1       0.189   0.089  -0.003  0.00  0.00    +0.027 A 
ATOM      4  C   UNL     1       1.339  -0.694  -0.047  0.00  0.00    +0.074 A 
ATOM      5  C   UNL     1       2.592  -0.093  -0.119  0.00  0.00    +0.027 A 
ATOM      6  C   UNL     1       2.698   1.279  -0.148  0.00  0.00    +0.015 A 
ENDROOT
BRANCH   1   8
ATOM      7  N   UNL     1       2.868   4.123  -0.205  0.00  0.00    -0.232 N 
ATOM      8  C   UNL     1       1.655   3.539  -0.135  0.00  0.00    +0.260 C 
ATOM      9  O   UNL     1       0.652   4.225  -0.097  0.00  0.00    -0.269 OA
ATOM     10  H   UNL     1       3.776   3.502  -0.239  0.00  0.00    +0.173 HD
BRANCH   7  11
ATOM     11  N   UNL     1       2.973   5.520  -0.234  0.00  0.00    -0.264 N 
ATOM     12  H   UNL     1       2.065   6.140  -0.200  0.00  0.00    +0.170 HD
BRANCH  11  14
ATOM     13  C   UNL     1       5.333   5.370  -0.349  0.00  0.00    +0.036 C 
ATOM     14  C   UNL     1       4.229   6.124  -0.307  0.00  0.00    +0.051 C 
BRANCH  14  15
ATOM     15  C   UNL     1       4.339   7.594  -0.338  0.00  0.00    +0.035 A 
ATOM     16  C   UNL     1       5.464   8.374  -0.407  0.00  0.00    +0.019 A 
ATOM     17  C   UNL     1       5.319   9.744  -0.423  0.00  0.00    +0.028 A 
ATOM     18  C   UNL     1       4.070  10.278  -0.370  0.00  0.00    +0.079 A 
ATOM     19  S   UNL     1       3.042   8.820  -0.302  0.00  0.00    -0.075 S 
ATOM     20 CL   UNL     1       3.596  11.948  -0.376  0.00  0.00    -0.076 Cl
ENDBRANCH  14  15
ENDBRANCH  11  14
ENDBRANCH   7  11
ENDBRANCH   1   8
BRANCH   4  21
ATOM     21  N   UNL     1       1.235  -2.081  -0.018  0.00  0.00    -0.097 NA
BRANCH  21  22
ATOM     22  S   UNL     1       0.738  -2.903  -1.366  0.00  0.00    +0.098 S 
ATOM     23  O   UNL     1       0.778  -4.285  -1.038  0.00  0.00    -0.148 OA
ATOM     24  O   UNL     1      -0.447  -2.262  -1.819  0.00  0.00    -0.148 OA
BRANCH  22  25
ATOM     25  C   UNL     1       1.957  -2.645  -2.612  0.00  0.00    +0.148 A 
ATOM     26  C   UNL     1       3.017  -3.422  -2.942  0.00  0.00    +0.037 A 
ATOM     27  C   UNL     1       3.851  -3.017  -3.968  0.00  0.00    +0.010 A 
ATOM     28  C   UNL     1       3.584  -1.855  -4.613  0.00  0.00    +0.047 A 
ATOM     29  S   UNL     1       2.111  -1.297  -3.773  0.00  0.00    -0.077 S 
ENDBRANCH  22  25
ENDBRANCH  21  22
ENDBRANCH   4  21
TORSDOF 7
