REMARK  Name = ZINC35807321
REMARK  7 active torsions:
REMARK  status: ('A' for Active; 'I' for Inactive)
REMARK    1  A    between atoms: C_1  and  C_2
REMARK    2  A    between atoms: C_2  and  C_3
REMARK    3  A    between atoms: C_3  and  C_5
REMARK    4  A    between atoms: C_3  and  N_6
REMARK    5  A    between atoms: C_7  and  C_9
REMARK    6  A    between atoms: C_14  and  N_15
REMARK    7  A    between atoms: C_31  and  C_36
REMARK                            x       y       z     vdW  Elec       q    Type
REMARK                         _______ _______ _______ _____ _____    ______ ____
ROOT
ATOM      1  N   UNL     1       4.453   0.322   4.649  0.00  0.00    -0.192 N 
ATOM      2  C   UNL     1       4.447  -0.884   5.254  0.00  0.00    +0.248 C 
ATOM      3  O   UNL     1       4.944  -1.910   4.842  0.00  0.00    -0.273 OA
ATOM      4  C   UNL     1       3.691  -0.692   6.553  0.00  0.00    +0.169 C 
ATOM      5  C   UNL     1       4.617  -0.994   7.737  0.00  0.00    +0.069 C 
ATOM      6  C   UNL     1       4.137  -0.239   8.951  0.00  0.00    -0.015 A 
ATOM      7  C   UNL     1       4.452  -0.513  10.341  0.00  0.00    +0.003 A 
ATOM      8  C   UNL     1       5.238  -1.492  10.957  0.00  0.00    +0.010 A 
ATOM      9  C   UNL     1       5.316  -1.453  12.327  0.00  0.00    +0.001 A 
ATOM     10  C   UNL     1       4.652  -0.494  13.075  0.00  0.00    +0.002 A 
ATOM     11  C   UNL     1       3.868   0.486  12.492  0.00  0.00    +0.026 A 
ATOM     12  C   UNL     1       3.771   0.471  11.102  0.00  0.00    +0.047 A 
ATOM     13  N   UNL     1       3.101   1.272  10.222  0.00  0.00    -0.356 N 
ATOM     14  H   UNL     1       2.551   2.032  10.466  0.00  0.00    +0.166 HD
ATOM     15  C   UNL     1       3.324   0.838   8.942  0.00  0.00    +0.041 A 
ATOM     16  C   UNL     1       2.749   1.446   7.678  0.00  0.00    +0.122 C 
ATOM     17  N   UNL     1       3.380   0.754   6.544  0.00  0.00    -0.265 N 
ATOM     18  C   UNL     1       3.832   1.251   5.391  0.00  0.00    +0.317 C 
ATOM     19  O   UNL     1       3.695   2.409   5.052  0.00  0.00    -0.252 OA
ATOM     20  C   UNL     1       1.237   1.218   7.626  0.00  0.00    +0.035 C 
ENDROOT
BRANCH   1  26
ATOM     21  C   UNL     1       4.284   0.437   2.232  0.00  0.00    +0.059 A 
ATOM     22  C   UNL     1       4.880   0.696   0.996  0.00  0.00    +0.015 A 
ATOM     23  C   UNL     1       6.202   1.079   0.937  0.00  0.00    +0.001 A 
ATOM     24  C   UNL     1       6.946   1.208   2.099  0.00  0.00    +0.002 A 
ATOM     25  C   UNL     1       6.370   0.955   3.328  0.00  0.00    +0.025 A 
ATOM     26  C   UNL     1       5.038   0.574   3.407  0.00  0.00    +0.058 A 
BRANCH  21  28
ATOM     27  N   UNL     1       2.148  -0.104   1.172  0.00  0.00    -0.309 N 
ATOM     28  C   UNL     1       2.869   0.026   2.303  0.00  0.00    +0.246 C 
ATOM     29  O   UNL     1       2.352  -0.194   3.381  0.00  0.00    -0.270 OA
ATOM     30  H   UNL     1       2.559   0.072   0.311  0.00  0.00    +0.149 HD
BRANCH  27  31
ATOM     31  C   UNL     1       0.742  -0.511   1.242  0.00  0.00    +0.070 C 
ATOM     32  C   UNL     1       0.655  -2.037   1.299  0.00  0.00    +0.028 C 
BRANCH  31  34
ATOM     33  C   UNL     1      -0.019   1.526   0.010  0.00  0.00    +0.005 C 
ATOM     34  C   UNL     1       0.002  -0.004   0.002  0.00  0.00    +0.018 C 
ENDBRANCH  31  34
ENDBRANCH  27  31
ENDBRANCH  21  28
ENDBRANCH   1  26
TORSDOF 4
