REMARK  Name = ZINC05948900
REMARK  6 active torsions:
REMARK  status: ('A' for Active; 'I' for Inactive)
REMARK    1  A    between atoms: C_12  and  C_21
REMARK    2  A    between atoms: C_14  and  C_18
REMARK    3  A    between atoms: C_15  and  N_17
REMARK    4  A    between atoms: C_24  and  O_27
REMARK    5  A    between atoms: O_27  and  C_28
REMARK    6  A    between atoms: C_28  and  C_29
REMARK                            x       y       z     vdW  Elec       q    Type
REMARK                         _______ _______ _______ _____ _____    ______ ____
ROOT
ATOM      1  C   UNL     1      -0.009   1.081  -0.057  0.00  0.00    +0.001 A 
ATOM      2  C   UNL     1       1.184   1.788  -0.038  0.00  0.00    +0.004 A 
ATOM      3  C   UNL     1       1.184   3.167   0.005  0.00  0.00    +0.047 A 
ATOM      4  C   UNL     1      -0.020   3.859   0.029  0.00  0.00    +0.143 A 
ATOM      5  C   UNL     1      -1.228   3.144   0.010  0.00  0.00    +0.060 A 
ATOM      6  C   UNL     1      -1.214   1.748  -0.038  0.00  0.00    +0.015 A 
ATOM      7  C   UNL     1      -2.496   3.890   0.036  0.00  0.00    +0.152 A 
ATOM      8  C   UNL     1      -2.441   5.252   0.073  0.00  0.00    +0.092 A 
ATOM      9  C   UNL     1      -1.192   5.897   0.090  0.00  0.00    +0.345 A 
ATOM     10  O   UNL     1      -1.154   7.114   0.124  0.00  0.00    -0.245 OA
ATOM     11  O   UNL     1      -0.040   5.209   0.069  0.00  0.00    -0.422 OA
ATOM     12  C   UNL     1      -3.704   6.070   0.097  0.00  0.00    +0.099 C 
ATOM     13  C   UNL     1      -4.875   5.206   0.478  0.00  0.00    +0.083 C 
ATOM     14  C   UNL     1      -4.794   3.854   0.420  0.00  0.00    +0.193 C 
ATOM     15  O   UNL     1      -3.670   3.232   0.021  0.00  0.00    -0.441 OA
ENDROOT
BRANCH  12  16
ATOM     16  C   UNL     1      -3.945   6.656  -1.270  0.00  0.00    -0.035 A 
ATOM     17  C   UNL     1      -4.099   5.821  -2.362  0.00  0.00    +0.008 A 
ATOM     18  C   UNL     1      -4.326   6.356  -3.615  0.00  0.00    +0.046 A 
ATOM     19  C   UNL     1      -4.387   7.732  -3.780  0.00  0.00    +0.122 A 
ATOM     20  C   UNL     1      -4.226   8.568  -2.685  0.00  0.00    +0.046 A 
ATOM     21  C   UNL     1      -4.006   8.028  -1.432  0.00  0.00    +0.008 A 
BRANCH  19  22
ATOM     22  O   UNL     1      -4.603   8.261  -5.014  0.00  0.00    -0.477 OA
BRANCH  22  23
ATOM     23  C   UNL     1      -4.759   7.341  -6.096  0.00  0.00    +0.346 C 
BRANCH  23  24
ATOM     24  C   UNL     1      -4.984   8.086  -7.345  0.00  0.00    +0.104 C 
ATOM     25  N   UNL     1      -5.157   8.661  -8.309  0.00  0.00    -0.193 NA
ENDBRANCH  23  24
ENDBRANCH  22  23
ENDBRANCH  19  22
ENDBRANCH  12  16
BRANCH  13  26
ATOM     26  C   UNL     1      -6.071   5.810   0.902  0.00  0.00    +0.243 C 
ATOM     27  O   UNL     1      -6.169   6.236   2.040  0.00  0.00    -0.271 OA
ATOM     28  N   UNL     1      -7.110   5.919   0.050  0.00  0.00    -0.325 N 
ATOM     29  H   UNL     1      -7.032   5.580  -0.855  0.00  0.00    +0.145 HD
ATOM     30  H   UNL     1      -7.935   6.335   0.343  0.00  0.00    +0.145 HD
ENDBRANCH  13  26
BRANCH  14  31
ATOM     31  N   UNL     1      -5.883   3.103   0.775  0.00  0.00    -0.329 N 
ATOM     32  H   UNL     1      -6.723   3.538   0.992  0.00  0.00    +0.145 HD
ATOM     33  H   UNL     1      -5.815   2.136   0.811  0.00  0.00    +0.145 HD
ENDBRANCH  14  31
TORSDOF 6
