REMARK  Name = ZINC20144495
REMARK  8 active torsions:
REMARK  status: ('A' for Active; 'I' for Inactive)
REMARK    1  A    between atoms: C_1  and  C_2
REMARK    2  A    between atoms: C_4  and  N_12
REMARK    3  A    between atoms: C_6  and  C_9
REMARK    4  A    between atoms: C_7  and  O_8
REMARK    5  A    between atoms: C_13  and  C_15
REMARK    6  A    between atoms: C_15  and  O_16
REMARK    7  A    between atoms: O_16  and  C_17
REMARK    8  A    between atoms: C_18  and  C_25
REMARK                            x       y       z     vdW  Elec       q    Type
REMARK                         _______ _______ _______ _____ _____    ______ ____
ROOT
ATOM      1  N   UNL     1       0.027  -2.759  -2.441  0.00  0.00    -0.283 N 
ATOM      2  C   UNL     1       0.146  -4.101  -2.463  0.00  0.00    +0.255 C 
ATOM      3  O   UNL     1       0.160  -4.727  -1.424  0.00  0.00    -0.272 OA
ATOM      4  H   UNL     1      -0.052  -2.265  -3.272  0.00  0.00    +0.155 HD
ENDROOT
BRANCH   1   8
ATOM      5  C   UNL     1       1.238   1.220   0.180  0.00  0.00    +0.047 C 
ATOM      6  C   UNL     1       0.598  -0.141   0.084  0.00  0.00    -0.006 A 
ATOM      7  C   UNL     1       0.604  -0.821  -1.117  0.00  0.00    +0.030 A 
ATOM      8  C   UNL     1       0.016  -2.077  -1.216  0.00  0.00    +0.035 A 
ATOM      9  C   UNL     1      -0.581  -2.656  -0.110  0.00  0.00    +0.042 A 
ATOM     10  C   UNL     1      -0.591  -1.974   1.111  0.00  0.00    +0.106 A 
ATOM     11  C   UNL     1       0.009  -0.709   1.204  0.00  0.00    +0.134 A 
BRANCH  10  12
ATOM     12  C   UNL     1      -1.223  -2.581   2.293  0.00  0.00    +0.390 C 
ATOM     13  O   UNL     1      -1.741  -3.686   2.209  0.00  0.00    -0.240 OA
ATOM     14  O   UNL     1      -1.230  -1.982   3.359  0.00  0.00    -0.240 OA
ENDBRANCH  10  12
BRANCH  11  15
ATOM     15  O   UNL     1       0.009  -0.041   2.385  0.00  0.00    -0.506 OA
ATOM     16  H   UNL     1      -0.761   0.530   2.514  0.00  0.00    +0.292 HD
ENDBRANCH  11  15
ENDBRANCH   1   8
BRANCH   2  17
ATOM     17  C   UNL     1       0.262  -4.825  -3.780  0.00  0.00    +0.325 C 
BRANCH  17  18
ATOM     18  O   UNL     1       0.377  -6.230  -3.543  0.00  0.00    -0.481 OA
BRANCH  18  19
ATOM     19  C   UNL     1       0.491  -7.033  -4.634  0.00  0.00    +0.138 A 
ATOM     20  C   UNL     1      -0.646  -7.544  -5.242  0.00  0.00    -0.007 A 
ATOM     21  C   UNL     1      -0.528  -8.359  -6.351  0.00  0.00    +0.022 A 
ATOM     22  C   UNL     1       0.723  -8.666  -6.855  0.00  0.00    +0.019 A 
ATOM     23  C   UNL     1       1.859  -8.158  -6.250  0.00  0.00    +0.034 A 
ATOM     24  C   UNL     1       1.745  -7.337  -5.144  0.00  0.00    +0.061 A 
ATOM     25 BR   UNL     1       3.297  -6.636  -4.322  0.00  0.00    -0.046 Br
ATOM     26 BR   UNL     1       0.881  -9.782  -8.374  0.00  0.00    -0.050 Br
ATOM     27  C   UNL     1      -2.009  -7.210  -4.693  0.00  0.00    +0.047 C 
ENDBRANCH  18  19
ENDBRANCH  17  18
ENDBRANCH   2  17
TORSDOF 6
