REMARK  Name = ZINC37084768
REMARK  7 active torsions:
REMARK  status: ('A' for Active; 'I' for Inactive)
REMARK    1  A    between atoms: C_1  and  C_2
REMARK    2  A    between atoms: C_5  and  N_12
REMARK    3  A    between atoms: N_9  and  C_11
REMARK    4  A    between atoms: N_12  and  C_13
REMARK    5  A    between atoms: C_16  and  C_23
REMARK    6  A    between atoms: C_19  and  C_21
REMARK    7  A    between atoms: C_19  and  C_22
REMARK                            x       y       z     vdW  Elec       q    Type
REMARK                         _______ _______ _______ _____ _____    ______ ____
ROOT
ATOM      1  C   UNL     1       1.535   2.431  -1.172  0.00  0.00    +0.068 C 
ATOM      2  C   UNL     1       2.438   1.370  -1.747  0.00  0.00    +0.069 A 
ATOM      3  C   UNL     1       2.044   0.315  -2.674  0.00  0.00    +0.043 A 
ATOM      4  C   UNL     1       0.837  -0.047  -3.285  0.00  0.00    +0.038 A 
ATOM      5  C   UNL     1       0.840  -1.142  -4.133  0.00  0.00    +0.046 A 
ATOM      6  C   UNL     1       2.029  -1.838  -4.347  0.00  0.00    +0.136 A 
ATOM      7  N   UNL     1       3.149  -1.479  -3.760  0.00  0.00    -0.234 NA
ATOM      8  C   UNL     1       3.205  -0.438  -2.939  0.00  0.00    +0.158 A 
ATOM      9  N   UNL     1       4.216   0.137  -2.215  0.00  0.00    -0.249 N 
ATOM     10  N   UNL     1       3.711   1.234  -1.510  0.00  0.00    -0.174 NA
ATOM     11  C   UNL     1       5.607  -0.321  -2.188  0.00  0.00    +0.174 C 
ENDROOT
BRANCH   5  12
ATOM     12  N   UNL     1      -0.340  -1.546  -4.769  0.00  0.00    -0.340 N 
ATOM     13  H   UNL     1      -1.165  -1.059  -4.617  0.00  0.00    +0.146 HD
BRANCH  12  14
ATOM     14  C   UNL     1      -0.329  -2.706  -5.665  0.00  0.00    +0.071 C 
ATOM     15  C   UNL     1      -1.766  -3.163  -5.926  0.00  0.00    +0.025 C 
ATOM     16  C   UNL     1      -2.553  -2.023  -6.576  0.00  0.00    -0.012 C 
ATOM     17  C   UNL     1      -1.892  -1.638  -7.901  0.00  0.00    +0.009 C 
ATOM     18  C   UNL     1      -0.455  -1.181  -7.640  0.00  0.00    -0.033 C 
ATOM     19  C   UNL     1       0.332  -2.321  -6.990  0.00  0.00    +0.028 C 
ATOM     20  C   UNL     1      -0.467   0.029  -6.705  0.00  0.00    +0.011 C 
ATOM     21  C   UNL     1       0.206  -0.796  -8.965  0.00  0.00    +0.011 C 
ATOM     22  C   UNL     1      -3.990  -2.480  -6.837  0.00  0.00    +0.007 C 
ENDBRANCH  12  14
ENDBRANCH   5  12
TORSDOF 2
