REMARK  Name = ZINC50818646
REMARK  4 active torsions:
REMARK  status: ('A' for Active; 'I' for Inactive)
REMARK    1  A    between atoms: C_1  and  N_2
REMARK    2  A    between atoms: N_2  and  C_3
REMARK    3  A    between atoms: C_4  and  C_8
REMARK    4  A    between atoms: C_8  and  N_9
REMARK                            x       y       z     vdW  Elec       q    Type
REMARK                         _______ _______ _______ _____ _____    ______ ____
ROOT
ATOM      1  N   UNL     1       0.147  -3.355   1.378  0.00  0.00    -0.223 N 
ATOM      2  C   UNL     1      -0.435  -4.402   1.999  0.00  0.00    +0.275 A 
ATOM      3  O   UNL     1      -1.270  -5.077   1.424  0.00  0.00    -0.266 OA
ATOM      4  C   UNL     1      -0.043  -4.711   3.379  0.00  0.00    +0.050 A 
ATOM      5  C   UNL     1      -0.601  -5.776   4.085  0.00  0.00    +0.014 A 
ATOM      6  C   UNL     1      -0.193  -6.018   5.378  0.00  0.00    +0.001 A 
ATOM      7  C   UNL     1       0.764  -5.212   5.982  0.00  0.00    +0.001 A 
ATOM      8  C   UNL     1       1.324  -4.162   5.310  0.00  0.00    +0.010 A 
ATOM      9  C   UNL     1       0.931  -3.894   3.997  0.00  0.00    +0.007 A 
ATOM     10  C   UNL     1       1.499  -2.783   3.233  0.00  0.00    +0.141 A 
ATOM     11  N   UNL     1       1.110  -2.569   2.011  0.00  0.00    -0.176 NA
ENDROOT
BRANCH   1  12
ATOM     12  C   UNL     1      -0.237  -3.039  -0.000  0.00  0.00    +0.207 C 
BRANCH  12  14
ATOM     13  C   UNL     1      -1.194  -0.717   0.010  0.00  0.00    +0.111 A 
ATOM     14  C   UNL     1      -1.390  -2.068   0.010  0.00  0.00    +0.114 A 
ATOM     15  N   UNL     1      -2.639  -2.476   0.019  0.00  0.00    -0.142 NA
ATOM     16  N   UNL     1      -3.587  -1.600   0.027  0.00  0.00    -0.108 NA
ATOM     17  S   UNL     1      -2.772  -0.136   0.028  0.00  0.00    +0.052 S 
BRANCH  13  19
ATOM     18  C   UNL     1      -0.018   1.461   0.010  0.00  0.00    +0.126 C 
ATOM     19  N   UNL     1       0.002  -0.004   0.002  0.00  0.00    -0.339 N 
ATOM     20  H   UNL     1       0.849  -0.478  -0.009  0.00  0.00    +0.146 HD
ENDBRANCH  13  19
ENDBRANCH  12  14
ENDBRANCH   1  12
TORSDOF 3
