REMARK  Name = ZINC40227759
REMARK  3 active torsions:
REMARK  status: ('A' for Active; 'I' for Inactive)
REMARK    1  A    between atoms: C_5  and  O_8
REMARK    2  A    between atoms: C_6  and  N_7
REMARK    3  A    between atoms: O_8  and  C_9
REMARK                            x       y       z     vdW  Elec       q    Type
REMARK                         _______ _______ _______ _____ _____    ______ ____
ROOT
ATOM      1  C   UNL     1       0.009   1.380   0.280  0.00  0.00    +0.032 A 
ATOM      2  C   UNL     1       1.175   2.086   0.077  0.00  0.00    -0.015 A 
ATOM      3  C   UNL     1       2.375   1.430  -0.160  0.00  0.00    +0.041 A 
ATOM      4  C   UNL     1       2.391   0.036  -0.192  0.00  0.00    +0.071 A 
ATOM      5  C   UNL     1       1.225  -0.677   0.011  0.00  0.00    +0.143 A 
ATOM      6  C   UNL     1       0.026  -0.007   0.249  0.00  0.00    +0.067 A 
ATOM      7  N   UNL     1       3.406   2.357  -0.333  0.00  0.00    -0.285 N 
ATOM      8  C   UNL     1       2.973   3.625  -0.226  0.00  0.00    +0.222 C 
ATOM      9  O   UNL     1       3.647   4.628  -0.332  0.00  0.00    -0.275 OA
ATOM     10  C   UNL     1       1.486   3.565   0.050  0.00  0.00    +0.133 C 
ATOM     11  H   UNL     1       4.329   2.114  -0.510  0.00  0.00    +0.155 HD
ENDROOT
BRANCH   6  12
ATOM     12  N   UNL     1      -1.157  -0.731   0.454  0.00  0.00    -0.355 N 
ATOM     13  H   UNL     1      -1.990  -0.263   0.619  0.00  0.00    +0.142 HD
ATOM     14  H   UNL     1      -1.142  -1.701   0.431  0.00  0.00    +0.142 HD
ENDBRANCH   6  12
BRANCH   5  15
ATOM     15  O   UNL     1       1.247  -2.037  -0.022  0.00  0.00    -0.487 OA
BRANCH  15  16
ATOM     16  C   UNL     1       2.526  -2.662  -0.149  0.00  0.00    +0.174 C 
ATOM     17  C   UNL     1       2.920  -2.693  -1.640  0.00  0.00    +0.044 C 
ATOM     18  C   UNL     1       4.412  -2.860  -1.736  0.00  0.00    +0.004 C 
ATOM     19  C   UNL     1       4.832  -4.335  -1.888  0.00  0.00    +0.000 C 
ATOM     20  C   UNL     1       4.027  -5.282  -0.978  0.00  0.00    +0.000 C 
ATOM     21  C   UNL     1       3.821  -4.718   0.402  0.00  0.00    +0.004 C 
ATOM     22  C   UNL     1       2.460  -3.993   0.436  0.00  0.00    +0.044 C 
ENDBRANCH  15  16
ENDBRANCH   5  15
TORSDOF 3
