REMARK  Name = ZINC39606878
REMARK  8 active torsions:
REMARK  status: ('A' for Active; 'I' for Inactive)
REMARK    1  A    between atoms: C_1  and  C_2
REMARK    2  A    between atoms: C_5  and  C_9
REMARK    3  A    between atoms: C_6  and  C_8
REMARK    4  A    between atoms: C_9  and  N_10
REMARK    5  A    between atoms: C_11  and  C_13
REMARK    6  A    between atoms: C_24  and  C_26
REMARK    7  A    between atoms: C_26  and  C_27
REMARK    8  A    between atoms: C_27  and  C_28
REMARK                            x       y       z     vdW  Elec       q    Type
REMARK                         _______ _______ _______ _____ _____    ______ ____
ROOT
ATOM      1  C   UNL     1      -2.909  -6.633   0.512  0.00  0.00    +0.100 C 
ATOM      2  C   UNL     1      -3.350  -6.313   1.958  0.00  0.00    +0.121 C 
ATOM      3  N   UNL     1      -4.126  -7.502   2.384  0.00  0.00    -0.300 N 
ATOM      4  C   UNL     1      -3.381  -8.651   1.815  0.00  0.00    +0.115 C 
ATOM      5  C   UNL     1      -2.930  -8.168   0.422  0.00  0.00    -0.004 C 
ATOM      6  C   UNL     1      -1.534  -8.697   0.107  0.00  0.00    -0.010 C 
ATOM      7  C   UNL     1      -1.591 -10.221  -0.034  0.00  0.00    -0.082 C 
ATOM      8  N   UNL     1      -2.527 -10.580  -1.107  0.00  0.00    +0.379 N 
ATOM      9  C   UNL     1      -3.884 -10.149  -0.753  0.00  0.00    -0.082 C 
ATOM     10  C   UNL     1      -3.924  -8.622  -0.642  0.00  0.00    -0.010 C 
ATOM     11  C   UNL     1      -5.253  -7.532   3.121  0.00  0.00    +0.216 C 
ATOM     12  O   UNL     1      -5.774  -8.594   3.390  0.00  0.00    -0.276 OA
ATOM     13  H   UNL     1      -2.244 -10.127  -1.963  0.00  0.00    -0.086 HD
ATOM     14  H   UNL     1      -2.517 -11.580  -1.239  0.00  0.00    -0.086 HD
ENDROOT
BRANCH   1  16
ATOM     15  N   UNL     1      -1.149  -5.750  -0.985  0.00  0.00    -0.311 N 
ATOM     16  C   UNL     1      -1.518  -6.111   0.260  0.00  0.00    +0.218 C 
ATOM     17  O   UNL     1      -0.731  -6.015   1.178  0.00  0.00    -0.275 OA
ATOM     18  H   UNL     1      -1.778  -5.827  -1.719  0.00  0.00    +0.149 HD
BRANCH  15  19
ATOM     19  C   UNL     1       0.204  -5.243  -1.230  0.00  0.00    +0.139 C 
BRANCH  19  24
ATOM     20  C   UNL     1       0.801  -3.985  -6.838  0.00  0.00    +0.044 C 
ATOM     21  C   UNL     1       0.645  -4.313  -5.375  0.00  0.00    -0.050 A 
ATOM     22  C   UNL     1       1.145  -5.502  -4.877  0.00  0.00    +0.004 A 
ATOM     23  C   UNL     1       1.003  -5.803  -3.535  0.00  0.00    +0.006 A 
ATOM     24  C   UNL     1       0.360  -4.915  -2.692  0.00  0.00    -0.027 A 
ATOM     25  C   UNL     1      -0.139  -3.726  -3.191  0.00  0.00    -0.046 A 
ATOM     26  C   UNL     1       0.008  -3.423  -4.532  0.00  0.00    +0.007 A 
ATOM     27  C   UNL     1      -0.839  -2.759  -2.272  0.00  0.00    +0.044 C 
ENDBRANCH  19  24
ENDBRANCH  15  19
ENDBRANCH   1  16
BRANCH  11  28
ATOM     28  C   UNL     1      -5.867  -6.246   3.612  0.00  0.00    +0.100 C 
BRANCH  28  29
ATOM     29  C   UNL     1      -7.129  -6.558   4.419  0.00  0.00    +0.044 C 
BRANCH  29  30
ATOM     30  C   UNL     1      -7.743  -5.272   4.910  0.00  0.00    -0.047 A 
ATOM     31  C   UNL     1      -7.364  -4.748   6.132  0.00  0.00    +0.003 A 
ATOM     32  C   UNL     1      -7.927  -3.569   6.582  0.00  0.00    +0.000 A 
ATOM     33  C   UNL     1      -8.868  -2.913   5.810  0.00  0.00    +0.000 A 
ATOM     34  C   UNL     1      -9.246  -3.437   4.588  0.00  0.00    +0.000 A 
ATOM     35  C   UNL     1      -8.680  -4.614   4.135  0.00  0.00    +0.003 A 
ENDBRANCH  29  30
ENDBRANCH  28  29
ENDBRANCH  11  28
TORSDOF 6
