REMARK  Name = ZINC65257732
REMARK  4 active torsions:
REMARK  status: ('A' for Active; 'I' for Inactive)
REMARK    1  A    between atoms: C_1  and  C_2
REMARK    2  A    between atoms: C_4  and  C_7
REMARK    3  A    between atoms: C_7  and  N_13
REMARK    4  A    between atoms: C_14  and  C_16
REMARK                            x       y       z     vdW  Elec       q    Type
REMARK                         _______ _______ _______ _____ _____    ______ ____
ROOT
ATOM      1  N   UNL     1      -1.099  -3.103  -2.615  0.00  0.00    -0.298 N 
ATOM      2  C   UNL     1      -1.218  -2.031  -3.424  0.00  0.00    +0.258 C 
ATOM      3  O   UNL     1      -0.383  -1.152  -3.392  0.00  0.00    -0.272 OA
ATOM      4  H   UNL     1      -1.767  -3.806  -2.641  0.00  0.00    +0.150 HD
ENDROOT
BRANCH   2   5
ATOM      5  C   UNL     1      -2.387  -1.925  -4.368  0.00  0.00    +0.296 C 
ATOM      6  C   UNL     1      -2.304  -3.037  -5.423  0.00  0.00    +0.283 C 
ATOM      7  O   UNL     1      -3.419  -2.899  -6.309  0.00  0.00    -0.484 OA
ATOM      8  C   UNL     1      -3.683  -1.645  -6.769  0.00  0.00    +0.162 A 
ATOM      9  C   UNL     1      -4.492  -1.485  -7.884  0.00  0.00    +0.049 A 
ATOM     10  C   UNL     1      -4.772  -0.218  -8.361  0.00  0.00    +0.004 A 
ATOM     11  C   UNL     1      -4.247   0.893  -7.727  0.00  0.00    +0.004 A 
ATOM     12  C   UNL     1      -3.440   0.740  -6.616  0.00  0.00    +0.049 A 
ATOM     13  C   UNL     1      -3.154  -0.528  -6.133  0.00  0.00    +0.163 A 
ATOM     14  O   UNL     1      -2.351  -0.663  -5.042  0.00  0.00    -0.473 OA
ENDBRANCH   2   5
BRANCH   1  15
ATOM     15  C   UNL     1       0.038  -3.206  -1.697  0.00  0.00    +0.113 C 
ATOM     16  C   UNL     1       1.342  -3.202  -2.498  0.00  0.00    +0.035 C 
ATOM     17  C   UNL     1       1.353  -4.391  -3.460  0.00  0.00    +0.003 C 
ATOM     18  C   UNL     1       1.249  -5.693  -2.663  0.00  0.00    +0.000 C 
ATOM     19  C   UNL     1      -0.055  -5.697  -1.862  0.00  0.00    +0.003 C 
ATOM     20  C   UNL     1      -0.067  -4.508  -0.900  0.00  0.00    +0.035 C 
BRANCH  15  24
ATOM     21  C   UNL     1      -0.018   1.503   0.010  0.00  0.00    +0.091 C 
ATOM     22  C   UNL     1       0.002  -0.004   0.002  0.00  0.00    +0.169 A 
ATOM     23  N   UNL     1       0.008  -0.776  -1.091  0.00  0.00    -0.195 NA
ATOM     24  C   UNL     1       0.026  -2.034  -0.750  0.00  0.00    +0.251 A 
ATOM     25  O   UNL     1       0.033  -2.107   0.587  0.00  0.00    -0.336 OA
ATOM     26  N   UNL     1       0.023  -0.767   1.057  0.00  0.00    -0.062 NA
ENDBRANCH  15  24
ENDBRANCH   1  15
TORSDOF 3
