REMARK  Name = ZINC36385541
REMARK  3 active torsions:
REMARK  status: ('A' for Active; 'I' for Inactive)
REMARK    1  A    between atoms: N_12  and  N_13
REMARK    2  A    between atoms: N_13  and  C_14
REMARK    3  A    between atoms: C_14  and  N_16
REMARK                            x       y       z     vdW  Elec       q    Type
REMARK                         _______ _______ _______ _____ _____    ______ ____
ROOT
ATOM      1  C   UNL     1      -0.018   1.441   0.010  0.00  0.00    +0.191 C 
ATOM      2  C   UNL     1       1.487   1.812  -0.002  0.00  0.00    +0.191 C 
ATOM      3  O   UNL     1       2.049   0.759  -0.827  0.00  0.00    -0.346 OA
ATOM      4  C   UNL     1       1.272  -0.395  -0.509  0.00  0.00    +0.177 C 
ATOM      5  O   UNL     1       0.002  -0.004   0.002  0.00  0.00    -0.346 OA
ATOM      6  C   UNL     1       1.120  -1.313  -1.737  0.00  0.00    +0.061 C 
ATOM      7  C   UNL     1       2.555  -1.940  -1.843  0.00  0.00    +0.002 C 
ATOM      8  C   UNL     1       2.221  -3.366  -2.392  0.00  0.00    +0.008 C 
ATOM      9  C   UNL     1       1.173  -3.735  -1.290  0.00  0.00    +0.002 C 
ATOM     10  C   UNL     1       0.207  -2.503  -1.352  0.00  0.00    +0.047 C 
ATOM     11  C   UNL     1      -0.213  -2.372   0.110  0.00  0.00    +0.044 C 
ATOM     12  N   UNL     1      -1.389  -2.199   0.586  0.00  0.00    -0.189 NA
ATOM     13  C   UNL     1       1.113  -2.497   0.870  0.00  0.00    +0.047 C 
ATOM     14  C   UNL     1       1.974  -3.437   0.013  0.00  0.00    +0.006 C 
ATOM     15  C   UNL     1       2.890  -2.246  -0.347  0.00  0.00    +0.005 C 
ATOM     16  C   UNL     1       2.018  -1.301   0.493  0.00  0.00    +0.061 C 
ENDROOT
BRANCH  12  17
ATOM     17  N   UNL     1      -2.489  -2.108  -0.278  0.00  0.00    -0.219 N 
ATOM     18  H   UNL     1      -2.359  -2.176  -1.237  0.00  0.00    +0.176 HD
BRANCH  17  19
ATOM     19  C   UNL     1      -3.726  -1.927   0.224  0.00  0.00    +0.147 C 
ATOM     20  S   UNL     1      -5.070  -1.816  -0.832  0.00  0.00    -0.017 S 
BRANCH  19  21
ATOM     21  N   UNL     1      -3.907  -1.833   1.556  0.00  0.00    -0.339 N 
ATOM     22  H   UNL     1      -3.145  -1.896   2.154  0.00  0.00    +0.144 HD
ATOM     23  H   UNL     1      -4.797  -1.703   1.917  0.00  0.00    +0.144 HD
ENDBRANCH  19  21
ENDBRANCH  17  19
ENDBRANCH  12  17
TORSDOF 3
