REMARK  Name = ZINC20800435
REMARK  2 active torsions:
REMARK  status: ('A' for Active; 'I' for Inactive)
REMARK    1  A    between atoms: C_10  and  C_18
REMARK    2  A    between atoms: CA_13  and  C_15
REMARK                            x       y       z     vdW  Elec       q    Type
REMARK                         _______ _______ _______ _____ _____    ______ ____
ROOT
ATOM      1  C   UNL     1       4.630  -0.255   0.541  0.00  0.00    +0.002 A 
ATOM      2  C   UNL     1       3.423  -0.758   0.089  0.00  0.00    +0.002 A 
ATOM      3  C   UNL     1       2.216  -0.407   0.672  0.00  0.00    +0.028 A 
ATOM      4  C   UNL     1       2.264   0.481   1.740  0.00  0.00    +0.071 A 
ATOM      5  C   UNL     1       3.498   0.998   2.207  0.00  0.00    +0.091 A 
ATOM      6  C   UNL     1       4.705   0.629   1.603  0.00  0.00    +0.030 A 
ATOM      7  N   UNL     1       3.226   1.817   3.237  0.00  0.00    -0.211 NA
ATOM      8  C   UNL     1       1.936   1.845   3.440  0.00  0.00    +0.232 A 
ATOM      9  N   UNL     1       1.297   1.032   2.533  0.00  0.00    -0.305 N 
ATOM     10  C   UNL     1      -0.155   0.854   2.494  0.00  0.00    +0.100 C 
ATOM     11  C   UNL     1      -0.772   1.423   3.742  0.00  0.00    +0.088 C 
ATOM     12  CA  UNL     1      -0.116   2.201   4.594  0.00  0.00    +0.135 C 
ATOM     13  N   UNL     1       1.229   2.552   4.398  0.00  0.00    -0.210 NA
ENDROOT
BRANCH  10  14
ATOM     14  C   UNL     1      -0.723   1.577   1.271  0.00  0.00    +0.016 C 
ATOM     15  C   UNL     1      -0.540   3.087   1.439  0.00  0.00    +0.010 C 
ATOM     16  C   UNL     1      -0.950   3.771   0.133  0.00  0.00    +0.027 C 
ATOM     17  C   UNL     1      -2.290   3.268  -0.316  0.00  0.00    -0.031 C 
ATOM     18  C   UNL     1      -2.840   2.181   0.121  0.00  0.00    -0.031 C 
ATOM     19  C   UNL     1      -2.219   1.277   1.146  0.00  0.00    +0.032 C 
ENDBRANCH  10  14
BRANCH  12  20
ATOM     20  C   UNL     1      -0.822   2.713   5.783  0.00  0.00    +0.401 C 
ATOM     21  O   UNL     1      -1.986   2.421   5.971  0.00  0.00    -0.239 OA
ATOM     22  OXT UNL     1      -0.175   3.504   6.662  0.00  0.00    -0.239 OA
ENDBRANCH  12  20
TORSDOF 2
