REMARK  Name = ZINC06038889
REMARK  7 active torsions:
REMARK  status: ('A' for Active; 'I' for Inactive)
REMARK    1  A    between atoms: C_1  and  C_2
REMARK    2  A    between atoms: C_5  and  C_8
REMARK    3  A    between atoms: C_11  and  S_14
REMARK    4  A    between atoms: N_12  and  N_13
REMARK    5  A    between atoms: S_14  and  C_15
REMARK    6  A    between atoms: C_15  and  C_17
REMARK    7  A    between atoms: C_15  and  C_18
REMARK                            x       y       z     vdW  Elec       q    Type
REMARK                         _______ _______ _______ _____ _____    ______ ____
ROOT
ATOM      1  C   UNL     1      -6.889  -0.631   1.257  0.00  0.00    +0.182 A 
ATOM      2  N   UNL     1      -6.070  -1.352   0.527  0.00  0.00    -0.127 NA
ATOM      3  N   UNL     1      -4.964  -0.721   0.355  0.00  0.00    -0.121 NA
ATOM      4  C   UNL     1      -5.009   0.443   0.965  0.00  0.00    +0.209 A 
ATOM      5  N   UNL     1      -6.232   0.538   1.565  0.00  0.00    -0.224 N 
ENDROOT
BRANCH   1  10
ATOM      6  C   UNL     1     -12.210  -2.095   2.885  0.00  0.00    +0.044 C 
ATOM      7  C   UNL     1     -10.817  -1.712   2.458  0.00  0.00    -0.050 A 
ATOM      8  C   UNL     1      -9.959  -2.676   1.961  0.00  0.00    +0.004 A 
ATOM      9  C   UNL     1      -8.682  -2.332   1.569  0.00  0.00    +0.012 A 
ATOM     10  C   UNL     1      -8.256  -1.007   1.675  0.00  0.00    +0.021 A 
ATOM     11  C   UNL     1      -9.124  -0.040   2.183  0.00  0.00    +0.012 A 
ATOM     12  C   UNL     1     -10.401  -0.397   2.567  0.00  0.00    +0.004 A 
ENDBRANCH   1  10
BRANCH   5  13
ATOM     13  N   UNL     1      -6.705   1.578   2.313  0.00  0.00    -0.295 N 
ATOM     14  H   UNL     1      -7.181   2.253   1.734  0.00  0.00    +0.163 HD
ATOM     15  H   UNL     1      -7.307   1.247   3.052  0.00  0.00    +0.163 HD
ENDBRANCH   5  13
BRANCH   4  16
ATOM     16  S   UNL     1      -3.727   1.651   1.007  0.00  0.00    -0.074 S 
BRANCH  16  17
ATOM     17  C   UNL     1      -2.467   0.807   0.018  0.00  0.00    +0.117 C 
ATOM     18  C   UNL     1      -2.971   0.645  -1.418  0.00  0.00    +0.027 C 
BRANCH  17  19
ATOM     19  C   UNL     1      -1.200   1.623   0.017  0.00  0.00    +0.124 A 
ATOM     20  N   UNL     1      -0.011   0.966   0.007  0.00  0.00    -0.309 N 
ATOM     21  H   UNL     1       0.003  -0.034   0.006  0.00  0.00    +0.170 HD
ATOM     22  C   UNL     1       1.155   1.652  -0.000  0.00  0.00    +0.259 A 
ATOM     23  O   UNL     1       2.228   1.077  -0.013  0.00  0.00    -0.267 OA
ATOM     24  C   UNL     1       1.077   3.121   0.009  0.00  0.00    +0.065 A 
ATOM     25  C   UNL     1       2.218   3.920   0.002  0.00  0.00    +0.015 A 
ATOM     26  C   UNL     1       2.086   5.291   0.011  0.00  0.00    +0.001 A 
ATOM     27  C   UNL     1       0.828   5.880   0.027  0.00  0.00    +0.002 A 
ATOM     28  C   UNL     1      -0.312   5.108   0.033  0.00  0.00    +0.028 A 
ATOM     29  C   UNL     1      -0.204   3.716   0.024  0.00  0.00    +0.078 A 
ATOM     30  N   UNL     1      -1.301   2.917   0.030  0.00  0.00    -0.233 NA
ENDBRANCH  17  19
ENDBRANCH  16  17
ENDBRANCH   4  16
TORSDOF 5
