REMARK  Name = ZINC67255079
REMARK  11 active torsions:
REMARK  status: ('A' for Active; 'I' for Inactive)
REMARK    1  A    between atoms: C_1  and  C_2
REMARK    2  A    between atoms: C_5  and  C_7
REMARK    3  A    between atoms: C_8  and  C_13
REMARK    4  A    between atoms: C_13  and  N_14
REMARK    5  A    between atoms: N_14  and  C_15
REMARK    6  A    between atoms: C_15  and  C_16
REMARK    7  A    between atoms: C_16  and  C_18
REMARK    8  A    between atoms: C_16  and  O_30
REMARK    9  A    between atoms: C_18  and  O_19
REMARK   10  A    between atoms: O_19  and  C_20
REMARK   11  A    between atoms: C_23  and  C_26
REMARK                            x       y       z     vdW  Elec       q    Type
REMARK                         _______ _______ _______ _____ _____    ______ ____
ROOT
ATOM      1  N   UNL     1       4.170  -1.207  -0.595  0.00  0.00    +0.384 N 
ATOM      2  H   UNL     1       3.469  -0.815   0.016  0.00  0.00    -0.085 HD
ATOM      3  H   UNL     1       4.880  -1.664  -0.042  0.00  0.00    -0.085 HD
ENDROOT
BRANCH   1   4
ATOM      4  C   UNL     1       3.543  -2.186  -1.494  0.00  0.00    -0.043 C 
BRANCH   4   6
ATOM      5  C   UNL     1       1.667  -3.226  -0.023  0.00  0.00    +0.129 A 
ATOM      6  C   UNL     1       2.915  -3.287  -0.678  0.00  0.00    -0.016 A 
ATOM      7  C   UNL     1       3.445  -4.506  -0.446  0.00  0.00    +0.107 A 
ATOM      8  N   UNL     1       2.578  -5.199   0.324  0.00  0.00    -0.284 N 
ATOM      9  H   UNL     1       2.702  -6.107   0.644  0.00  0.00    +0.188 HD
ATOM     10  N   UNL     1       1.472  -4.380   0.583  0.00  0.00    -0.171 NA
BRANCH   5  15
ATOM     11  C   UNL     1      -0.018   1.503   0.010  0.00  0.00    +0.086 C 
ATOM     12  C   UNL     1       0.002  -0.004   0.002  0.00  0.00    +0.103 A 
ATOM     13  C   UNL     1      -1.081  -0.804   0.003  0.00  0.00    +0.045 A 
ATOM     14  C   UNL     1      -0.613  -2.134  -0.007  0.00  0.00    +0.052 A 
ATOM     15  C   UNL     1       0.745  -2.070  -0.013  0.00  0.00    +0.155 A 
ATOM     16  O   UNL     1       1.104  -0.772  -0.013  0.00  0.00    -0.458 OA
ENDBRANCH   5  15
ENDBRANCH   4   6
ENDBRANCH   1   4
BRANCH   1  17
ATOM     17  C   UNL     1       4.782  -0.135  -1.389  0.00  0.00    -0.047 C 
BRANCH  17  18
ATOM     18  C   UNL     1       5.435   0.885  -0.453  0.00  0.00    +0.135 C 
BRANCH  18  19
ATOM     19  O   UNL     1       4.442   1.440   0.412  0.00  0.00    -0.390 OA
ATOM     20  H   UNL     1       3.727   1.896  -0.052  0.00  0.00    +0.210 HD
ENDBRANCH  18  19
BRANCH  18  21
ATOM     21  C   UNL     1       6.073   2.002  -1.280  0.00  0.00    +0.258 C 
BRANCH  21  22
ATOM     22  O   UNL     1       6.781   2.891  -0.414  0.00  0.00    -0.489 OA
BRANCH  22  23
ATOM     23  C   UNL     1       7.411   3.947  -0.995  0.00  0.00    +0.121 A 
ATOM     24  C   UNL     1       7.343   4.126  -2.369  0.00  0.00    +0.046 A 
ATOM     25  C   UNL     1       7.984   5.200  -2.956  0.00  0.00    +0.016 A 
ATOM     26  C   UNL     1       8.692   6.096  -2.176  0.00  0.00    +0.055 A 
ATOM     27  C   UNL     1       8.761   5.918  -0.806  0.00  0.00    +0.016 A 
ATOM     28  C   UNL     1       8.117   4.850  -0.213  0.00  0.00    +0.046 A 
BRANCH  26  29
ATOM     29  C   UNL     1       9.389   7.266  -2.819  0.00  0.00    +0.417 C 
ATOM     30  F   UNL     1       8.518   8.359  -2.869  0.00  0.00    -0.166 F 
ATOM     31  F   UNL     1      10.520   7.605  -2.068  0.00  0.00    -0.166 F 
ATOM     32  F   UNL     1       9.779   6.920  -4.117  0.00  0.00    -0.166 F 
ENDBRANCH  26  29
ENDBRANCH  22  23
ENDBRANCH  21  22
ENDBRANCH  18  21
ENDBRANCH  17  18
ENDBRANCH   1  17
TORSDOF 10
