REMARK  Name = ZINC05046100
REMARK  6 active torsions:
REMARK  status: ('A' for Active; 'I' for Inactive)
REMARK    1  A    between atoms: C_1  and  C_2
REMARK    2  A    between atoms: C_2  and  N_3
REMARK    3  A    between atoms: C_4  and  C_6
REMARK    4  A    between atoms: C_6  and  N_14
REMARK    5  A    between atoms: C_7  and  C_8
REMARK    6  A    between atoms: C_15  and  C_17
REMARK                            x       y       z     vdW  Elec       q    Type
REMARK                         _______ _______ _______ _____ _____    ______ ____
ROOT
ATOM      1  C   UNL     1       1.643   1.621   0.113  0.00  0.00    +0.097 C 
ATOM      2  C   UNL     1       2.460   0.620  -0.290  0.00  0.00    +0.036 C 
ENDROOT
BRANCH   2   3
ATOM      3  C   UNL     1       3.813   0.928  -0.778  0.00  0.00    -0.023 A 
ATOM      4  C   UNL     1       4.056   2.114  -1.479  0.00  0.00    +0.008 A 
ATOM      5  C   UNL     1       5.328   2.397  -1.928  0.00  0.00    +0.001 A 
ATOM      6  C   UNL     1       6.362   1.506  -1.698  0.00  0.00    +0.000 A 
ATOM      7  C   UNL     1       6.129   0.328  -1.010  0.00  0.00    +0.001 A 
ATOM      8  C   UNL     1       4.864   0.033  -0.549  0.00  0.00    +0.008 A 
ENDBRANCH   2   3
BRANCH   1  10
ATOM      9  N   UNL     1       3.010   3.331   1.191  0.00  0.00    -0.311 N 
ATOM     10  C   UNL     1       2.155   2.996   0.205  0.00  0.00    +0.258 C 
ATOM     11  O   UNL     1       1.806   3.831  -0.608  0.00  0.00    -0.269 OA
ATOM     12  H   UNL     1       3.345   2.650   1.796  0.00  0.00    +0.149 HD
BRANCH   9  14
ATOM     13  C   UNL     1       4.399   4.832   2.534  0.00  0.00    +0.024 C 
ATOM     14  C   UNL     1       3.435   4.724   1.351  0.00  0.00    +0.101 C 
ENDBRANCH   9  14
ENDBRANCH   1  10
BRANCH   1  15
ATOM     15  N   UNL     1       0.312   1.347   0.440  0.00  0.00    -0.277 N 
ATOM     16  C   UNL     1      -0.498   2.340   0.856  0.00  0.00    +0.250 C 
ATOM     17  O   UNL     1      -0.095   3.487   0.870  0.00  0.00    -0.270 OA
ATOM     18  H   UNL     1      -0.030   0.442   0.364  0.00  0.00    +0.155 HD
BRANCH  16  19
ATOM     19  C   UNL     1      -1.875   2.036   1.295  0.00  0.00    +0.055 A 
ATOM     20  C   UNL     1      -2.343   0.720   1.275  0.00  0.00    +0.014 A 
ATOM     21  C   UNL     1      -3.628   0.442   1.691  0.00  0.00    +0.001 A 
ATOM     22  C   UNL     1      -4.458   1.465   2.118  0.00  0.00    +0.001 A 
ATOM     23  C   UNL     1      -4.004   2.771   2.136  0.00  0.00    +0.021 A 
ATOM     24  C   UNL     1      -2.717   3.063   1.727  0.00  0.00    +0.053 A 
ATOM     25 CL   UNL     1      -2.149   4.704   1.749  0.00  0.00    -0.083 Cl
ENDBRANCH  16  19
ENDBRANCH   1  15
TORSDOF 5
