REMARK  Name = ZINC26490926
REMARK  9 active torsions:
REMARK  status: ('A' for Active; 'I' for Inactive)
REMARK    1  A    between atoms: C_1  and  C_2
REMARK    2  A    between atoms: C_2  and  C_4
REMARK    3  A    between atoms: C_2  and  N_26
REMARK    4  A    between atoms: C_7  and  S_16
REMARK    5  A    between atoms: N_8  and  C_9
REMARK    6  A    between atoms: S_16  and  C_17
REMARK    7  A    between atoms: C_17  and  C_18
REMARK    8  A    between atoms: N_26  and  C_27
REMARK    9  A    between atoms: N_26  and  C_28
REMARK                            x       y       z     vdW  Elec       q    Type
REMARK                         _______ _______ _______ _____ _____    ______ ____
ROOT
ATOM      1  C   UNL     1      -5.261   4.235   1.726  0.00  0.00    +0.125 A 
ATOM      2  N   UNL     1      -5.011   4.099   0.454  0.00  0.00    -0.135 NA
ATOM      3  N   UNL     1      -3.897   3.479   0.286  0.00  0.00    -0.122 NA
ATOM      4  C   UNL     1      -3.371   3.183   1.452  0.00  0.00    +0.196 A 
ATOM      5  N   UNL     1      -4.228   3.652   2.409  0.00  0.00    -0.275 N 
ENDROOT
BRANCH   5   6
ATOM      6  C   UNL     1      -4.078   3.557   3.801  0.00  0.00    +0.050 A 
ATOM      7  C   UNL     1      -4.976   2.807   4.548  0.00  0.00    +0.029 A 
ATOM      8  C   UNL     1      -4.824   2.711   5.917  0.00  0.00    +0.040 A 
ATOM      9  C   UNL     1      -3.782   3.371   6.546  0.00  0.00    +0.124 A 
ATOM     10  C   UNL     1      -2.888   4.125   5.804  0.00  0.00    +0.040 A 
ATOM     11  C   UNL     1      -3.034   4.219   4.434  0.00  0.00    +0.029 A 
ATOM     12  F   UNL     1      -3.638   3.280   7.887  0.00  0.00    -0.205 F 
ENDBRANCH   5   6
BRANCH   1  14
ATOM     13  C   UNL     1      -6.329   6.423   2.199  0.00  0.00    -0.005 C 
ATOM     14  C   UNL     1      -6.468   4.905   2.332  0.00  0.00    -0.003 C 
BRANCH  14  15
ATOM     15  N   UNL     1      -7.679   4.461   1.629  0.00  0.00    +0.382 N 
ATOM     16  C   UNL     1      -8.886   5.001   2.268  0.00  0.00    -0.096 C 
ATOM     17  C   UNL     1      -7.627   4.827   0.208  0.00  0.00    -0.096 C 
ATOM     18  H   UNL     1      -7.724   3.364   1.695  0.00  0.00    -0.082 HD
ENDBRANCH  14  15
ENDBRANCH   1  14
BRANCH   4  19
ATOM     19  S   UNL     1      -1.851   2.335   1.730  0.00  0.00    -0.078 S 
BRANCH  19  20
ATOM     20  C   UNL     1      -1.332   2.051   0.019  0.00  0.00    +0.153 C 
BRANCH  20  21
ATOM     21  C   UNL     1      -0.016   1.317   0.009  0.00  0.00    +0.146 A 
ATOM     22  N   UNL     1       1.117   1.997   0.002  0.00  0.00    -0.199 NA
ATOM     23  C   UNL     1       2.282   1.353  -0.012  0.00  0.00    +0.217 A 
ATOM     24  N   UNL     1       2.304   0.024  -0.020  0.00  0.00    -0.181 NA
ATOM     25  C   UNL     1       1.163  -0.656  -0.013  0.00  0.00    +0.217 A 
ATOM     26  N   UNL     1       0.002  -0.004   0.002  0.00  0.00    -0.199 NA
ATOM     27  N   UNL     1       1.180  -2.035  -0.021  0.00  0.00    -0.327 N 
ATOM     28  N   UNL     1       3.465   2.063  -0.020  0.00  0.00    -0.327 N 
ATOM     29  H   UNL     1       0.235  -2.598  -0.015  0.00  0.00    +0.145 HD
ATOM     30  H   UNL     1       2.140  -2.573  -0.033  0.00  0.00    +0.145 HD
ATOM     31  H   UNL     1       4.427   1.530  -0.032  0.00  0.00    +0.145 HD
ATOM     32  H   UNL     1       3.446   3.163  -0.015  0.00  0.00    +0.145 HD
ENDBRANCH  20  21
ENDBRANCH  19  20
ENDBRANCH   4  19
TORSDOF 6
