REMARK  Name = ZINC39239779
REMARK  10 active torsions:
REMARK  status: ('A' for Active; 'I' for Inactive)
REMARK    1  A    between atoms: C_1  and  C_2
REMARK    2  A    between atoms: C_4  and  C_8
REMARK    3  A    between atoms: N_10  and  N_11
REMARK    4  A    between atoms: C_12  and  C_14
REMARK    5  A    between atoms: C_14  and  O_15
REMARK    6  A    between atoms: O_15  and  C_16
REMARK    7  A    between atoms: C_19  and  C_22
REMARK    8  A    between atoms: C_22  and  C_23
REMARK    9  A    between atoms: C_22  and  C_24
REMARK   10  A    between atoms: C_22  and  C_25
REMARK                            x       y       z     vdW  Elec       q    Type
REMARK                         _______ _______ _______ _____ _____    ______ ____
ROOT
ATOM      1  N   UNL     1      -2.588  -4.173   2.448  0.00  0.00    -0.232 N 
ATOM      2  C   UNL     1      -3.822  -4.711   2.518  0.00  0.00    +0.267 C 
ATOM      3  O   UNL     1      -4.589  -4.592   1.587  0.00  0.00    -0.271 OA
ATOM      4  H   UNL     1      -1.974  -4.268   3.193  0.00  0.00    +0.173 HD
ENDROOT
BRANCH   1   7
ATOM      5  C   UNL     1      -0.958  -2.939   1.229  0.00  0.00    +0.259 C 
ATOM      6  O   UNL     1      -0.190  -3.058   2.160  0.00  0.00    -0.272 OA
ATOM      7  N   UNL     1      -2.191  -3.477   1.299  0.00  0.00    -0.232 N 
ATOM      8  H   UNL     1      -2.805  -3.381   0.554  0.00  0.00    +0.173 HD
BRANCH   5  12
ATOM      9  C   UNL     1      -0.018   1.503   0.010  0.00  0.00    +0.067 C 
ATOM     10  C   UNL     1       0.002  -0.004   0.002  0.00  0.00    +0.059 C 
ATOM     11  C   UNL     1      -1.086  -0.777   0.003  0.00  0.00    +0.035 C 
ATOM     12  C   UNL     1      -0.531  -2.190  -0.007  0.00  0.00    +0.239 C 
ATOM     13  N   UNL     1       0.926  -1.973  -0.013  0.00  0.00    -0.170 NA
ATOM     14  N   UNL     1       1.125  -0.756  -0.013  0.00  0.00    -0.159 NA
ENDBRANCH   5  12
ENDBRANCH   1   7
BRANCH   2  15
ATOM     15  C   UNL     1      -4.248  -5.460   3.755  0.00  0.00    +0.326 C 
BRANCH  15  16
ATOM     16  O   UNL     1      -5.587  -5.930   3.588  0.00  0.00    -0.483 OA
BRANCH  16  17
ATOM     17  C   UNL     1      -6.127  -6.631   4.620  0.00  0.00    +0.121 A 
ATOM     18  C   UNL     1      -5.386  -6.856   5.771  0.00  0.00    +0.046 A 
ATOM     19  C   UNL     1      -5.938  -7.568   6.818  0.00  0.00    +0.008 A 
ATOM     20  C   UNL     1      -7.227  -8.057   6.720  0.00  0.00    -0.042 A 
ATOM     21  C   UNL     1      -7.968  -7.835   5.574  0.00  0.00    +0.008 A 
ATOM     22  C   UNL     1      -7.423  -7.118   4.526  0.00  0.00    +0.046 A 
BRANCH  20  23
ATOM     23  C   UNL     1      -7.827  -8.834   7.864  0.00  0.00    -0.013 C 
ATOM     24  C   UNL     1      -7.858  -7.955   9.116  0.00  0.00    +0.015 C 
ATOM     25  C   UNL     1      -9.252  -9.257   7.502  0.00  0.00    +0.015 C 
ATOM     26  C   UNL     1      -6.978 -10.078   8.135  0.00  0.00    +0.015 C 
ENDBRANCH  20  23
ENDBRANCH  16  17
ENDBRANCH  15  16
ENDBRANCH   2  15
TORSDOF 6
