REMARK  Name = ZINC09789144
REMARK  6 active torsions:
REMARK  status: ('A' for Active; 'I' for Inactive)
REMARK    1  A    between atoms: C_4  and  N_7
REMARK    2  A    between atoms: C_8  and  C_26
REMARK    3  A    between atoms: C_11  and  S_12
REMARK    4  A    between atoms: S_12  and  C_13
REMARK    5  A    between atoms: C_13  and  C_14
REMARK    6  A    between atoms: C_20  and  C_23
REMARK                            x       y       z     vdW  Elec       q    Type
REMARK                         _______ _______ _______ _____ _____    ______ ____
ROOT
ATOM      1  N   UNL     1      -0.043   1.150  -4.070  0.00  0.00    -0.270 N 
ATOM      2  C   UNL     1       1.050   0.540  -4.647  0.00  0.00    +0.169 A 
ATOM      3  N   UNL     1       1.720  -0.043  -3.680  0.00  0.00    -0.128 NA
ATOM      4  N   UNL     1       1.135   0.161  -2.554  0.00  0.00    -0.122 NA
ATOM      5  C   UNL     1       0.049   0.879  -2.732  0.00  0.00    +0.197 A 
ENDROOT
BRANCH   2   6
ATOM      6  C   UNL     1       1.401   0.541  -6.083  0.00  0.00    +0.023 A 
ATOM      7  C   UNL     1       2.306  -0.396  -6.583  0.00  0.00    +0.015 A 
ATOM      8  C   UNL     1       2.628  -0.397  -7.924  0.00  0.00    +0.050 A 
ATOM      9  C   UNL     1       2.063   0.539  -8.778  0.00  0.00    +0.166 A 
ATOM     10  C   UNL     1       1.163   1.482  -8.284  0.00  0.00    +0.167 A 
ATOM     11  C   UNL     1       0.832   1.484  -6.941  0.00  0.00    +0.061 A 
ATOM     12  O   UNL     1       0.756   2.279  -9.315  0.00  0.00    -0.453 OA
ATOM     13  C   UNL     1       1.099   1.560 -10.514  0.00  0.00    +0.466 C 
ATOM     14  O   UNL     1       2.219   0.747 -10.118  0.00  0.00    -0.453 OA
ENDBRANCH   2   6
BRANCH   1  18
ATOM     15  C   UNL     1      -3.008   3.355  -5.999  0.00  0.00    +0.000 A 
ATOM     16  C   UNL     1      -2.127   3.987  -5.142  0.00  0.00    +0.002 A 
ATOM     17  C   UNL     1      -1.143   3.259  -4.501  0.00  0.00    +0.026 A 
ATOM     18  C   UNL     1      -1.040   1.891  -4.719  0.00  0.00    +0.051 A 
ATOM     19  C   UNL     1      -1.924   1.261  -5.584  0.00  0.00    +0.026 A 
ATOM     20  C   UNL     1      -2.909   1.993  -6.218  0.00  0.00    +0.002 A 
ENDBRANCH   1  18
BRANCH   5  21
ATOM     21  S   UNL     1      -1.074   1.403  -1.480  0.00  0.00    -0.076 S 
BRANCH  21  22
ATOM     22  C   UNL     1      -0.288   0.668  -0.024  0.00  0.00    +0.173 C 
BRANCH  22  23
ATOM     23  C   UNL     1      -1.098   0.994   1.203  0.00  0.00    +0.226 C 
ATOM     24  O   UNL     1      -2.108   1.659   1.104  0.00  0.00    -0.275 OA
ATOM     25  N   UNL     1      -0.701   0.548   2.412  0.00  0.00    -0.300 N 
ATOM     26  C   UNL     1       0.520  -0.257   2.547  0.00  0.00    +0.108 C 
ATOM     27  C   UNL     1       1.427   0.395   3.596  0.00  0.00    +0.020 C 
ATOM     28  C   UNL     1       0.645   0.576   4.899  0.00  0.00    +0.016 C 
ATOM     29  C   UNL     1      -0.551   1.499   4.654  0.00  0.00    +0.092 C 
ATOM     30  C   UNL     1      -1.477   0.864   3.618  0.00  0.00    +0.120 C 
BRANCH  29  31
ATOM     31  C   UNL     1      -1.302   1.702   5.945  0.00  0.00    +0.215 C 
ATOM     32  O   UNL     1      -0.918   1.163   6.961  0.00  0.00    -0.276 OA
ATOM     33  N   UNL     1      -2.400   2.484   5.970  0.00  0.00    -0.329 N 
ATOM     34  H   UNL     1      -2.706   2.915   5.157  0.00  0.00    +0.145 HD
ATOM     35  H   UNL     1      -2.883   2.615   6.801  0.00  0.00    +0.145 HD
ENDBRANCH  29  31
ENDBRANCH  22  23
ENDBRANCH  21  22
ENDBRANCH   5  21
TORSDOF 6
