REMARK  Name = ZINC06614445
REMARK  5 active torsions:
REMARK  status: ('A' for Active; 'I' for Inactive)
REMARK    1  A    between atoms: C_1  and  C_2
REMARK    2  A    between atoms: N_4  and  C_5
REMARK    3  A    between atoms: C_7  and  O_28
REMARK    4  A    between atoms: C_14  and  C_22
REMARK    5  A    between atoms: C_19  and  O_21
REMARK                            x       y       z     vdW  Elec       q    Type
REMARK                         _______ _______ _______ _____ _____    ______ ____
ROOT
ATOM      1  C   UNL     1      -1.136  -2.159   0.001  0.00  0.00    +0.132 C 
ATOM      2  C   UNL     1      -1.145  -2.662  -1.444  0.00  0.00    +0.138 C 
ATOM      3  C   UNL     1      -2.402  -2.151  -2.150  0.00  0.00    +0.041 C 
ATOM      4  C   UNL     1      -3.648  -2.675  -1.431  0.00  0.00    +0.049 C 
ATOM      5  C   UNL     1      -4.893  -2.094  -2.117  0.00  0.00    +0.169 C 
ATOM      6  O   UNL     1      -4.878  -0.672  -1.961  0.00  0.00    -0.347 OA
ATOM      7  C   UNL     1      -4.848  -0.236  -0.600  0.00  0.00    +0.282 C 
ATOM      8  O   UNL     1      -3.694  -0.774   0.051  0.00  0.00    -0.341 OA
ATOM      9  C   UNL     1      -3.629  -2.214   0.029  0.00  0.00    +0.157 C 
ATOM     10  C   UNL     1      -2.372  -2.690   0.729  0.00  0.00    +0.166 C 
ENDROOT
BRANCH   7  11
ATOM     11  C   UNL     1      -4.792   1.269  -0.556  0.00  0.00    +0.008 A 
ATOM     12  C   UNL     1      -3.723   1.904   0.047  0.00  0.00    +0.008 A 
ATOM     13  C   UNL     1      -3.671   3.285   0.087  0.00  0.00    +0.000 A 
ATOM     14  C   UNL     1      -4.690   4.031  -0.476  0.00  0.00    +0.000 A 
ATOM     15  C   UNL     1      -5.759   3.396  -1.080  0.00  0.00    +0.000 A 
ATOM     16  C   UNL     1      -5.808   2.015  -1.124  0.00  0.00    +0.008 A 
ENDBRANCH   7  11
BRANCH   1  20
ATOM     17  C   UNL     1      -0.329   1.494   0.815  0.00  0.00    +0.109 C 
ATOM     18  C   UNL     1      -0.309  -0.013   0.806  0.00  0.00    +0.210 C 
ATOM     19  O   UNL     1       0.470  -0.613   1.516  0.00  0.00    -0.276 OA
ATOM     20  N   UNL     1      -1.156  -0.694   0.009  0.00  0.00    -0.308 N 
ATOM     21  H   UNL     1      -1.779  -0.214  -0.559  0.00  0.00    +0.149 HD
ENDBRANCH   1  20
BRANCH  10  22
ATOM     22  O   UNL     1      -2.367  -2.222   2.079  0.00  0.00    -0.387 OA
ATOM     23  H   UNL     1      -1.593  -2.499   2.589  0.00  0.00    +0.210 HD
ENDBRANCH  10  22
BRANCH   2  24
ATOM     24  O   UNL     1      -1.141  -4.091  -1.451  0.00  0.00    -0.390 OA
ATOM     25  H   UNL     1      -1.147  -4.480  -2.337  0.00  0.00    +0.210 HD
ENDBRANCH   2  24
TORSDOF 4
