REMARK  Name = ZINC42930316
REMARK  10 active torsions:
REMARK  status: ('A' for Active; 'I' for Inactive)
REMARK    1  A    between atoms: C_1  and  C_2
REMARK    2  A    between atoms: C_2  and  C_4
REMARK    3  A    between atoms: C_2  and  N_10
REMARK    4  A    between atoms: C_4  and  C_5
REMARK    5  A    between atoms: C_5  and  C_6
REMARK    6  A    between atoms: C_6  and  C_7
REMARK    7  A    between atoms: C_7  and  C_8
REMARK    8  A    between atoms: C_7  and  C_9
REMARK    9  A    between atoms: N_13  and  N_14
REMARK   10  A    between atoms: C_15  and  C_17
REMARK                            x       y       z     vdW  Elec       q    Type
REMARK                         _______ _______ _______ _____ _____    ______ ____
ROOT
ATOM      1  N   UNL     1       0.711  -0.489   1.189  0.00  0.00    -0.296 N 
ATOM      2  C   UNL     1       2.054  -0.600   1.174  0.00  0.00    +0.316 C 
ATOM      3  O   UNL     1       2.677  -0.297   0.175  0.00  0.00    -0.251 OA
ATOM      4  N   UNL     1       2.706  -1.046   2.266  0.00  0.00    -0.218 N 
ATOM      5  H   UNL     1       0.213  -0.731   1.986  0.00  0.00    +0.151 HD
ATOM      6  H   UNL     1       3.672  -1.126   2.255  0.00  0.00    +0.174 HD
ENDROOT
BRANCH   4   7
ATOM      7  N   UNL     1       1.987  -1.396   3.416  0.00  0.00    -0.230 N 
ATOM      8  C   UNL     1       2.639  -1.842   4.508  0.00  0.00    +0.273 C 
ATOM      9  O   UNL     1       3.848  -1.941   4.495  0.00  0.00    -0.270 OA
ATOM     10  H   UNL     1       1.020  -1.316   3.427  0.00  0.00    +0.173 HD
BRANCH   8  11
ATOM     11  C   UNL     1       1.866  -2.218   5.746  0.00  0.00    +0.297 C 
ATOM     12  C   UNL     1       1.196  -0.970   6.337  0.00  0.00    +0.283 C 
ATOM     13  O   UNL     1       0.484  -1.359   7.516  0.00  0.00    -0.484 OA
ATOM     14  C   UNL     1       1.145  -2.165   8.392  0.00  0.00    +0.162 A 
ATOM     15  C   UNL     1       0.678  -2.285   9.692  0.00  0.00    +0.049 A 
ATOM     16  C   UNL     1       1.336  -3.103  10.591  0.00  0.00    +0.004 A 
ATOM     17  C   UNL     1       2.461  -3.803  10.197  0.00  0.00    +0.004 A 
ATOM     18  C   UNL     1       2.933  -3.686   8.904  0.00  0.00    +0.049 A 
ATOM     19  C   UNL     1       2.278  -2.866   7.997  0.00  0.00    +0.163 A 
ATOM     20  O   UNL     1       2.758  -2.756   6.728  0.00  0.00    -0.472 OA
ENDBRANCH   8  11
ENDBRANCH   4   7
BRANCH   1  22
ATOM     21  C   UNL     1      -0.019   1.526   0.010  0.00  0.00    +0.028 C 
ATOM     22  C   UNL     1       0.002  -0.004   0.002  0.00  0.00    +0.071 C 
BRANCH  22  23
ATOM     23  C   UNL     1      -1.433  -0.534   0.013  0.00  0.00    +0.022 C 
BRANCH  23  24
ATOM     24  C   UNL     1      -1.416  -2.058  -0.121  0.00  0.00    +0.002 C 
BRANCH  24  25
ATOM     25  C   UNL     1      -2.851  -2.587  -0.110  0.00  0.00    +0.003 C 
BRANCH  25  26
ATOM     26  C   UNL     1      -2.833  -4.111  -0.244  0.00  0.00    -0.017 C 
ATOM     27  C   UNL     1      -4.258  -4.652  -0.109  0.00  0.00    +0.007 C 
ATOM     28  C   UNL     1      -2.270  -4.496  -1.614  0.00  0.00    +0.007 C 
ENDBRANCH  25  26
ENDBRANCH  24  25
ENDBRANCH  23  24
ENDBRANCH  22  23
ENDBRANCH   1  22
TORSDOF 7
