REMARK  Name = ZINC49118855
REMARK  5 active torsions:
REMARK  status: ('A' for Active; 'I' for Inactive)
REMARK    1  A    between atoms: C_1  and  C_2
REMARK    2  A    between atoms: C_2  and  C_3
REMARK    3  A    between atoms: C_6  and  N_9
REMARK    4  A    between atoms: N_9  and  C_10
REMARK    5  A    between atoms: C_15  and  N_16
REMARK                            x       y       z     vdW  Elec       q    Type
REMARK                         _______ _______ _______ _____ _____    ______ ____
ROOT
ATOM      1  C   UNL     1       4.016  -3.859  -3.790  0.00  0.00    +0.050 A 
ATOM      2  C   UNL     1       3.870  -4.695  -2.697  0.00  0.00    +0.053 A 
ATOM      3  C   UNL     1       4.384  -5.990  -2.744  0.00  0.00    +0.080 A 
ATOM      4  C   UNL     1       5.049  -6.435  -3.910  0.00  0.00    +0.067 A 
ATOM      5  C   UNL     1       5.189  -5.583  -5.006  0.00  0.00    +0.040 A 
ATOM      6  C   UNL     1       4.671  -4.305  -4.947  0.00  0.00    +0.047 A 
ATOM      7  C   UNL     1       5.577  -7.804  -3.922  0.00  0.00    +0.259 A 
ATOM      8  O   UNL     1       6.160  -8.248  -4.894  0.00  0.00    -0.267 OA
ATOM      9  N   UNL     1       5.391  -8.555  -2.811  0.00  0.00    -0.313 N 
ATOM     10  H   UNL     1       5.727  -9.464  -2.784  0.00  0.00    +0.170 HD
ATOM     11  C   UNL     1       4.740  -8.046  -1.732  0.00  0.00    +0.199 A 
ATOM     12  N   UNL     1       4.261  -6.840  -1.692  0.00  0.00    -0.237 NA
ENDROOT
BRANCH   6  13
ATOM     13  N   UNL     1       4.804  -3.448  -6.046  0.00  0.00    -0.357 N 
ATOM     14  H   UNL     1       4.443  -2.548  -6.006  0.00  0.00    +0.142 HD
ATOM     15  H   UNL     1       5.257  -3.754  -6.847  0.00  0.00    +0.142 HD
ENDBRANCH   6  13
BRANCH   1  16
ATOM     16  N   UNL     1       3.501  -2.565  -3.743  0.00  0.00    -0.340 N 
ATOM     17  H   UNL     1       3.597  -1.976  -4.508  0.00  0.00    +0.146 HD
BRANCH  16  21
ATOM     18  C   UNL     1       0.718  -0.497  -1.257  0.00  0.00    -0.011 C 
ATOM     19  C   UNL     1       2.187  -0.073  -1.207  0.00  0.00    +0.005 C 
ATOM     20  C   UNL     1       2.904  -0.566  -2.466  0.00  0.00    +0.022 C 
ATOM     21  C   UNL     1       2.816  -2.092  -2.538  0.00  0.00    +0.070 C 
ATOM     22  C   UNL     1       1.347  -2.517  -2.587  0.00  0.00    +0.022 C 
ATOM     23  C   UNL     1       0.630  -2.023  -1.329  0.00  0.00    +0.005 C 
BRANCH  18  25
ATOM     24  C   UNL     1      -0.019   1.526   0.010  0.00  0.00    +0.004 C 
ATOM     25  C   UNL     1       0.002  -0.004   0.002  0.00  0.00    -0.000 C 
ENDBRANCH  18  25
ENDBRANCH  16  21
ENDBRANCH   1  16
TORSDOF 4
