REMARK  Name = ZINC35568241
REMARK  10 active torsions:
REMARK  status: ('A' for Active; 'I' for Inactive)
REMARK    1  A    between atoms: C_1  and  C_2
REMARK    2  A    between atoms: C_3  and  C_8
REMARK    3  A    between atoms: C_5  and  C_7
REMARK    4  A    between atoms: C_8  and  C_10
REMARK    5  A    between atoms: N_14  and  C_28
REMARK    6  A    between atoms: C_15  and  C_17
REMARK    7  A    between atoms: C_20  and  O_23
REMARK    8  A    between atoms: O_23  and  C_24
REMARK    9  A    between atoms: C_24  and  C_25
REMARK   10  A    between atoms: C_28  and  C_29
REMARK                            x       y       z     vdW  Elec       q    Type
REMARK                         _______ _______ _______ _____ _____    ______ ____
ROOT
ATOM      1  C   UNL     1       0.123  -1.320  -3.712  0.00  0.00    +0.077 C 
ATOM      2  C   UNL     1       0.175  -1.217  -5.059  0.00  0.00    +0.249 C 
ATOM      3  C   UNL     1       0.145  -2.570  -5.651  0.00  0.00    +0.288 C 
ATOM      4  O   UNL     1       0.179  -2.811  -6.841  0.00  0.00    -0.266 OA
ATOM      5  N   UNL     1       0.075  -3.496  -4.678  0.00  0.00    -0.279 N 
ATOM      6  C   UNL     1       0.061  -2.795  -3.389  0.00  0.00    +0.145 C 
ATOM      7  O   UNL     1       0.243  -0.058  -5.755  0.00  0.00    -0.282 OA
ENDROOT
BRANCH   6   8
ATOM      8  C   UNL     1       1.258  -3.195  -2.564  0.00  0.00    -0.022 A 
ATOM      9  C   UNL     1       2.519  -3.188  -3.131  0.00  0.00    +0.009 A 
ATOM     10  C   UNL     1       3.618  -3.555  -2.377  0.00  0.00    +0.046 A 
ATOM     11  C   UNL     1       3.454  -3.930  -1.052  0.00  0.00    +0.121 A 
ATOM     12  C   UNL     1       2.188  -3.935  -0.486  0.00  0.00    +0.046 A 
ATOM     13  C   UNL     1       1.093  -3.562  -1.242  0.00  0.00    +0.009 A 
BRANCH  11  14
ATOM     14  O   UNL     1       4.533  -4.292  -0.309  0.00  0.00    -0.483 OA
BRANCH  14  15
ATOM     15  C   UNL     1       4.290  -4.666   1.049  0.00  0.00    +0.324 C 
BRANCH  15  16
ATOM     16  C   UNL     1       5.594  -5.032   1.710  0.00  0.00    +0.248 C 
ATOM     17  O   UNL     1       6.629  -4.978   1.081  0.00  0.00    -0.272 OA
ATOM     18  N   UNL     1       5.609  -5.420   3.001  0.00  0.00    -0.327 N 
ATOM     19  H   UNL     1       4.781  -5.463   3.504  0.00  0.00    +0.145 HD
ATOM     20  H   UNL     1       6.448  -5.656   3.426  0.00  0.00    +0.145 HD
ENDBRANCH  15  16
ENDBRANCH  14  15
ENDBRANCH  11  14
ENDBRANCH   6   8
BRANCH   1  21
ATOM     21  C   UNL     1       0.131  -0.212  -2.748  0.00  0.00    +0.203 C 
ATOM     22  O   UNL     1       1.115   0.497  -2.644  0.00  0.00    -0.286 OA
BRANCH  21  25
ATOM     23  C   UNL     1      -0.119   1.876  -0.433  0.00  0.00    +0.067 C 
ATOM     24  C   UNL     1      -1.222   0.948  -0.873  0.00  0.00    +0.057 A 
ATOM     25  C   UNL     1      -1.047   0.040  -1.911  0.00  0.00    +0.082 A 
ATOM     26  S   UNL     1      -2.657  -0.733  -1.942  0.00  0.00    -0.069 S 
ATOM     27  C   UNL     1      -3.357   0.140  -0.685  0.00  0.00    +0.076 A 
ATOM     28  N   UNL     1      -2.397   0.948  -0.296  0.00  0.00    -0.249 NA
ATOM     29  C   UNL     1      -4.755   0.021  -0.133  0.00  0.00    +0.073 C 
ENDBRANCH  21  25
ENDBRANCH   1  21
BRANCH   5  30
ATOM     30  C   UNL     1       0.027  -4.948  -4.870  0.00  0.00    +0.144 C 
BRANCH  30  31
ATOM     31  C   UNL     1       1.430  -5.499  -4.885  0.00  0.00    -0.030 A 
ATOM     32  C   UNL     1       2.123  -5.591  -6.077  0.00  0.00    +0.005 A 
ATOM     33  C   UNL     1       3.410  -6.097  -6.090  0.00  0.00    +0.000 A 
ATOM     34  C   UNL     1       4.003  -6.511  -4.912  0.00  0.00    +0.000 A 
ATOM     35  C   UNL     1       3.309  -6.418  -3.720  0.00  0.00    +0.000 A 
ATOM     36  C   UNL     1       2.024  -5.908  -3.706  0.00  0.00    +0.005 A 
ENDBRANCH  30  31
ENDBRANCH   5  30
TORSDOF 8
