REMARK  Name = ZINC35966035
REMARK  9 active torsions:
REMARK  status: ('A' for Active; 'I' for Inactive)
REMARK    1  A    between atoms: C_1  and  C_2
REMARK    2  A    between atoms: C_2  and  C_3
REMARK    3  A    between atoms: C_2  and  C_4
REMARK    4  A    between atoms: C_4  and  C_6
REMARK    5  A    between atoms: C_4  and  N_16
REMARK    6  A    between atoms: N_8  and  C_9
REMARK    7  A    between atoms: C_9  and  C_10
REMARK    8  A    between atoms: C_22  and  C_29
REMARK    9  A    between atoms: N_27  and  C_28
REMARK                            x       y       z     vdW  Elec       q    Type
REMARK                         _______ _______ _______ _____ _____    ______ ____
ROOT
ATOM      1  N   UNL     1      -2.071  -0.725  -1.341  0.00  0.00    -0.280 N 
ATOM      2  C   UNL     1      -2.440  -1.945  -2.074  0.00  0.00    +0.160 C 
ATOM      3  C   UNL     1      -3.120  -1.453  -3.332  0.00  0.00    +0.042 C 
ATOM      4  C   UNL     1      -3.109  -0.106  -3.267  0.00  0.00    +0.058 C 
ATOM      5  C   UNL     1      -2.487   0.322  -2.076  0.00  0.00    +0.247 C 
ATOM      6  O   UNL     1      -2.344   1.488  -1.756  0.00  0.00    -0.270 OA
ATOM      7  C   UNL     1      -3.735   0.659  -4.415  0.00  0.00    +0.148 C 
ATOM      8  N   UNL     1      -4.307  -0.137  -5.514  0.00  0.00    -0.287 N 
ATOM      9  C   UNL     1      -4.241  -1.480  -5.435  0.00  0.00    +0.307 C 
ATOM     10  O   UNL     1      -4.710  -2.146  -6.338  0.00  0.00    -0.252 OA
ATOM     11  N   UNL     1      -3.675  -2.106  -4.395  0.00  0.00    -0.260 N 
ATOM     12  C   UNL     1      -3.650  -3.571  -4.398  0.00  0.00    +0.139 C 
ATOM     13  H   UNL     1      -4.722   0.296  -6.276  0.00  0.00    +0.151 HD
ENDROOT
BRANCH   7  14
ATOM     14  C   UNL     1      -4.831   1.527  -3.851  0.00  0.00    +0.015 A 
ATOM     15  C   UNL     1      -4.808   2.852  -3.564  0.00  0.00    +0.013 A 
ATOM     16  C   UNL     1      -5.945   3.446  -3.049  0.00  0.00    +0.008 A 
ATOM     17  C   UNL     1      -7.049   2.686  -2.846  0.00  0.00    +0.045 A 
ATOM     18  S   UNL     1      -6.498   1.080  -3.397  0.00  0.00    -0.099 S 
ENDBRANCH   7  14
BRANCH   1  19
ATOM     19  C   UNL     1      -1.383  -0.661  -0.049  0.00  0.00    +0.165 C 
BRANCH  19  20
ATOM     20  C   UNL     1      -2.309  -0.074   0.984  0.00  0.00    +0.234 C 
ATOM     21  O   UNL     1      -3.276   0.570   0.636  0.00  0.00    -0.274 OA
ATOM     22  N   UNL     1      -2.063  -0.265   2.296  0.00  0.00    -0.311 N 
ATOM     23  H   UNL     1      -1.250  -0.713   2.576  0.00  0.00    +0.149 HD
BRANCH  22  24
ATOM     24  C   UNL     1      -3.024   0.205   3.297  0.00  0.00    +0.135 C 
BRANCH  24  25
ATOM     25  C   UNL     1      -2.508  -0.134   4.697  0.00  0.00    +0.135 C 
ATOM     26  C   UNL     1      -3.568   0.248   5.753  0.00  0.00    +0.035 C 
ATOM     27  C   UNL     1      -2.696   0.821   6.903  0.00  0.00    +0.031 C 
ATOM     28  C   UNL     1      -1.553   1.491   6.099  0.00  0.00    +0.160 C 
ATOM     29  O   UNL     1      -1.325   0.623   4.976  0.00  0.00    -0.375 OA
ENDBRANCH  24  25
ENDBRANCH  22  24
ENDBRANCH  19  20
BRANCH  19  31
ATOM     30  C   UNL     1       0.639   0.198   1.141  0.00  0.00    +0.009 C 
ATOM     31  C   UNL     1      -0.138   0.219  -0.177  0.00  0.00    +0.012 C 
ATOM     32  C   UNL     1       0.751  -0.315  -1.302  0.00  0.00    +0.009 C 
ENDBRANCH  19  31
ENDBRANCH   1  19
TORSDOF 6
