REMARK  Name = ZINC09581512
REMARK  7 active torsions:
REMARK  status: ('A' for Active; 'I' for Inactive)
REMARK    1  A    between atoms: C_1  and  O_2
REMARK    2  A    between atoms: O_2  and  C_3
REMARK    3  A    between atoms: C_3  and  C_5
REMARK    4  A    between atoms: C_5  and  C_7
REMARK    5  A    between atoms: C_5  and  N_63
REMARK    6  A    between atoms: C_19  and  C_21
REMARK    7  A    between atoms: C_21  and  N_22
REMARK                            x       y       z     vdW  Elec       q    Type
REMARK                         _______ _______ _______ _____ _____    ______ ____
ROOT
ATOM      1  C   UNL     1      -3.167   7.423  -3.093  0.00  0.00    -0.058 C 
ATOM      2  C   UNL     1      -3.318   5.904  -2.963  0.00  0.00    +0.089 C 
ATOM      3  N   UNL     1      -3.002   5.520  -1.579  0.00  0.00    -0.304 N 
ATOM      4  C   UNL     1      -3.684   6.230  -0.487  0.00  0.00    +0.089 C 
ATOM      5  C   UNL     1      -3.514   7.741  -0.714  0.00  0.00    -0.058 C 
ATOM      6  C   UNL     1      -2.115   4.539  -1.319  0.00  0.00    +0.233 C 
ATOM      7  O   UNL     1      -1.565   3.961  -2.232  0.00  0.00    -0.274 OA
ATOM      8  N   UNL     1      -4.011   8.074  -2.067  0.00  0.00    +0.393 N 
ATOM      9  H   UNL     1      -4.974   7.731  -2.162  0.00  0.00    -0.080 HD
ENDROOT
BRANCH   8  10
ATOM     10  C   UNL     1      -4.002   9.539  -2.261  0.00  0.00    +0.073 C 
BRANCH  10  11
ATOM     11  C   UNL     1      -4.909  10.172  -1.238  0.00  0.00    -0.050 A 
ATOM     12  C   UNL     1      -4.383  10.663  -0.058  0.00  0.00    +0.005 A 
ATOM     13  C   UNL     1      -5.213  11.249   0.879  0.00  0.00    +0.038 A 
ATOM     14  C   UNL     1      -6.574  11.333   0.640  0.00  0.00    +0.123 A 
ATOM     15  C   UNL     1      -7.101  10.835  -0.540  0.00  0.00    +0.038 A 
ATOM     16  C   UNL     1      -6.268  10.255  -1.478  0.00  0.00    +0.005 A 
ATOM     17  F   UNL     1      -7.388  11.900   1.557  0.00  0.00    -0.205 F 
ENDBRANCH  10  11
BRANCH  10  18
ATOM     18  C   UNL     1      -2.607  10.086  -2.103  0.00  0.00    +0.297 C 
ATOM     19  O   UNL     1      -1.690   9.340  -1.851  0.00  0.00    -0.252 OA
BRANCH  18  21
ATOM     20  C   UNL     1      -1.014  11.859  -2.075  0.00  0.00    +0.280 C 
ATOM     21  O   UNL     1      -2.382  11.402  -2.241  0.00  0.00    -0.469 OA
ENDBRANCH  18  21
ENDBRANCH  10  18
ENDBRANCH   8  10
BRANCH   6  22
ATOM     22  C   UNL     1      -1.806   4.162   0.107  0.00  0.00    +0.213 C 
BRANCH  22  23
ATOM     23  N   UNL     1      -0.819   3.079   0.123  0.00  0.00    -0.215 N 
ATOM     24  C   UNL     1       0.518   3.270   0.151  0.00  0.00    +0.251 C 
ATOM     25  O   UNL     1       1.110   4.327   0.169  0.00  0.00    -0.272 OA
ATOM     26  C   UNL     1       1.115   1.887   0.157  0.00  0.00    +0.138 C 
ATOM     27  C   UNL     1       2.025   1.670  -1.059  0.00  0.00    +0.045 C 
ATOM     28  C   UNL     1       3.423   1.987  -0.481  0.00  0.00    +0.038 C 
ATOM     29  C   UNL     1       3.310   1.714   1.005  0.00  0.00    -0.042 A 
ATOM     30  C   UNL     1       1.975   1.658   1.371  0.00  0.00    -0.012 A 
ATOM     31  C   UNL     1       1.635   1.420   2.692  0.00  0.00    +0.006 A 
ATOM     32  C   UNL     1       2.620   1.238   3.643  0.00  0.00    +0.000 A 
ATOM     33  C   UNL     1       3.952   1.293   3.277  0.00  0.00    +0.000 A 
ATOM     34  C   UNL     1       4.294   1.531   1.960  0.00  0.00    +0.004 A 
ATOM     35  N   UNL     1      -0.038   0.987   0.129  0.00  0.00    -0.281 N 
ATOM     36  C   UNL     1      -1.131   1.776   0.105  0.00  0.00    +0.310 C 
ATOM     37  O   UNL     1      -2.270   1.354   0.074  0.00  0.00    -0.252 OA
ATOM     38  H   UNL     1      -0.019   0.017   0.125  0.00  0.00    +0.152 HD
ENDBRANCH  22  23
ENDBRANCH   6  22
TORSDOF 6
