REMARK  Name = ZINC39671571
REMARK  5 active torsions:
REMARK  status: ('A' for Active; 'I' for Inactive)
REMARK    1  A    between atoms: C_6  and  C_11
REMARK    2  A    between atoms: C_11  and  N_12
REMARK    3  A    between atoms: C_13  and  C_15
REMARK    4  A    between atoms: C_26  and  C_28
REMARK    5  A    between atoms: C_31  and  C_33
REMARK                            x       y       z     vdW  Elec       q    Type
REMARK                         _______ _______ _______ _____ _____    ______ ____
ROOT
ATOM      1  C   UNL     1      -8.318   0.159   3.116  0.00  0.00    +0.100 C 
ATOM      2  C   UNL     1      -7.817   1.334   3.985  0.00  0.00    +0.121 C 
ATOM      3  N   UNL     1      -8.933   2.309   3.975  0.00  0.00    -0.294 N 
ATOM      4  C   UNL     1     -10.154   1.474   4.062  0.00  0.00    +0.115 C 
ATOM      5  C   UNL     1      -9.852   0.252   3.172  0.00  0.00    -0.004 C 
ATOM      6  C   UNL     1     -10.436  -1.012   3.794  0.00  0.00    -0.010 C 
ATOM      7  C   UNL     1     -11.965  -0.921   3.786  0.00  0.00    -0.082 C 
ATOM      8  N   UNL     1     -12.440  -0.767   2.405  0.00  0.00    +0.379 N 
ATOM      9  C   UNL     1     -11.949   0.498   1.846  0.00  0.00    -0.082 C 
ATOM     10  C   UNL     1     -10.420   0.467   1.772  0.00  0.00    -0.010 C 
ATOM     11  C   UNL     1      -8.854   3.653   3.903  0.00  0.00    +0.282 C 
ATOM     12  O   UNL     1      -9.870   4.323   3.905  0.00  0.00    -0.267 OA
ATOM     13  H   UNL     1     -12.100  -1.535   1.846  0.00  0.00    -0.086 HD
ATOM     14  H   UNL     1     -13.449  -0.769   2.396  0.00  0.00    -0.086 HD
ENDROOT
BRANCH  11  15
ATOM     15  C   UNL     1      -7.546   4.307   3.822  0.00  0.00    +0.190 A 
ATOM     16  C   UNL     1      -7.324   5.665   3.750  0.00  0.00    +0.055 A 
ATOM     17  C   UNL     1      -5.938   5.844   3.688  0.00  0.00    +0.050 A 
ATOM     18  C   UNL     1      -5.370   4.602   3.725  0.00  0.00    +0.136 A 
ATOM     19  O   UNL     1      -6.348   3.685   3.811  0.00  0.00    -0.450 OA
BRANCH  18  20
ATOM     20  C   UNL     1      -3.922   4.316   3.682  0.00  0.00    +0.017 A 
ATOM     21  C   UNL     1      -3.003   5.364   3.603  0.00  0.00    +0.014 A 
ATOM     22  C   UNL     1      -1.652   5.091   3.564  0.00  0.00    +0.039 A 
ATOM     23  C   UNL     1      -1.206   3.779   3.603  0.00  0.00    +0.123 A 
ATOM     24  C   UNL     1      -2.114   2.735   3.681  0.00  0.00    +0.039 A 
ATOM     25  C   UNL     1      -3.467   2.997   3.727  0.00  0.00    +0.014 A 
ATOM     26  F   UNL     1       0.119   3.517   3.565  0.00  0.00    -0.205 F 
ENDBRANCH  18  20
ENDBRANCH  11  15
BRANCH   1  28
ATOM     27  N   UNL     1      -7.641  -0.777   0.929  0.00  0.00    -0.309 N 
ATOM     28  C   UNL     1      -7.835   0.313   1.697  0.00  0.00    +0.219 C 
ATOM     29  O   UNL     1      -7.620   1.418   1.246  0.00  0.00    -0.275 OA
ATOM     30  H   UNL     1      -7.813  -1.661   1.289  0.00  0.00    +0.149 HD
BRANCH  27  31
ATOM     31  C   UNL     1      -7.171  -0.627  -0.451  0.00  0.00    +0.157 C 
BRANCH  31  37
ATOM     32  C   UNL     1      -6.080  -6.104  -2.870  0.00  0.00    +0.001 A 
ATOM     33  C   UNL     1      -7.430  -6.041  -3.186  0.00  0.00    +0.002 A 
ATOM     34  C   UNL     1      -8.183  -4.941  -2.838  0.00  0.00    +0.026 A 
ATOM     35  C   UNL     1      -7.587  -3.882  -2.162  0.00  0.00    +0.047 A 
ATOM     36  N   UNL     1      -8.054  -2.676  -1.688  0.00  0.00    -0.357 N 
ATOM     37  C   UNL     1      -7.037  -1.987  -1.086  0.00  0.00    +0.034 A 
ATOM     38  H   UNL     1      -8.969  -2.362  -1.770  0.00  0.00    +0.166 HD
ATOM     39  C   UNL     1      -5.902  -2.702  -1.146  0.00  0.00    +0.032 A 
ATOM     40  C   UNL     1      -6.218  -3.951  -1.843  0.00  0.00    -0.000 A 
ATOM     41  C   UNL     1      -5.476  -5.077  -2.201  0.00  0.00    +0.010 A 
ENDBRANCH  31  37
ENDBRANCH  27  31
ENDBRANCH   1  28
TORSDOF 5
