REMARK  Name = ZINC39918501
REMARK  7 active torsions:
REMARK  status: ('A' for Active; 'I' for Inactive)
REMARK    1  A    between atoms: C_1  and  C_2
REMARK    2  A    between atoms: C_11  and  N_35
REMARK    3  A    between atoms: C_12  and  C_31
REMARK    4  A    between atoms: N_20  and  C_23
REMARK    5  A    between atoms: C_23  and  C_24
REMARK    6  A    between atoms: C_31  and  O_33
REMARK    7  A    between atoms: O_33  and  C_34
REMARK                            x       y       z     vdW  Elec       q    Type
REMARK                         _______ _______ _______ _____ _____    ______ ____
ROOT
ATOM      1  C   UNL     1       0.023   1.408  -0.300  0.00  0.00    +0.063 C 
ATOM      2  C   UNL     1       0.083  -0.093  -0.179  0.00  0.00    +0.034 C 
ATOM      3  N   UNL     1       0.263  -0.821  -1.259  0.00  0.00    -0.185 NA
ATOM      4  C   UNL     1       0.336  -2.144  -1.227  0.00  0.00    +0.248 C 
ATOM      5  O   UNL     1       0.480  -2.743  -2.275  0.00  0.00    -0.273 OA
ATOM      6  C   UNL     1       0.250  -2.934   0.043  0.00  0.00    +0.167 C 
ATOM      7  C   UNL     1       0.004  -2.024   1.223  0.00  0.00    +0.122 C 
ATOM      8  C   UNL     1      -0.048  -0.687   1.080  0.00  0.00    +0.063 C 
ATOM      9  O   UNL     1      -0.166  -2.604   2.433  0.00  0.00    -0.445 OA
ATOM     10  C   UNL     1      -0.904  -3.733   2.472  0.00  0.00    +0.195 C 
ATOM     11  C   UNL     1      -1.273  -4.400   1.351  0.00  0.00    +0.114 C 
ATOM     12  C   UNL     1      -0.915  -3.923  -0.026  0.00  0.00    +0.128 C 
ATOM     13  C   UNL     1      -2.094  -3.310  -0.713  0.00  0.00    -0.005 A 
ATOM     14  C   UNL     1      -2.865  -2.212  -0.400  0.00  0.00    +0.007 A 
ATOM     15  C   UNL     1      -3.909  -1.906  -1.266  0.00  0.00    +0.000 A 
ATOM     16  C   UNL     1      -4.160  -2.671  -2.387  0.00  0.00    +0.002 A 
ATOM     17  C   UNL     1      -3.390  -3.777  -2.708  0.00  0.00    +0.024 A 
ATOM     18  C   UNL     1      -2.337  -4.093  -1.848  0.00  0.00    +0.041 A 
ATOM     19  N   UNL     1      -1.417  -5.125  -1.927  0.00  0.00    -0.266 N 
ATOM     20  C   UNL     1      -0.541  -5.101  -0.901  0.00  0.00    +0.237 C 
ATOM     21  O   UNL     1       0.372  -5.877  -0.715  0.00  0.00    -0.274 OA
ENDROOT
BRANCH  10  22
ATOM     22  N   UNL     1      -1.295  -4.224   3.689  0.00  0.00    -0.329 N 
ATOM     23  H   UNL     1      -0.969  -3.813   4.505  0.00  0.00    +0.145 HD
ATOM     24  H   UNL     1      -1.897  -4.983   3.735  0.00  0.00    +0.145 HD
ENDBRANCH  10  22
BRANCH  11  25
ATOM     25  C   UNL     1      -2.022  -5.579   1.484  0.00  0.00    +0.341 C 
ATOM     26  O   UNL     1      -3.226  -5.561   1.298  0.00  0.00    -0.245 OA
BRANCH  25  27
ATOM     27  O   UNL     1      -1.408  -6.735   1.817  0.00  0.00    -0.465 OA
ATOM     28  C   UNL     1      -2.232  -7.897   1.935  0.00  0.00    +0.280 C 
ENDBRANCH  25  27
ENDBRANCH  11  25
BRANCH  19  29
ATOM     29  C   UNL     1      -1.398  -6.124  -2.997  0.00  0.00    +0.148 C 
BRANCH  29  30
ATOM     30  C   UNL     1      -0.524  -5.637  -4.124  0.00  0.00    -0.028 A 
ATOM     31  C   UNL     1      -1.071  -4.883  -5.146  0.00  0.00    +0.005 A 
ATOM     32  C   UNL     1      -0.270  -4.436  -6.180  0.00  0.00    +0.002 A 
ATOM     33  C   UNL     1       1.078  -4.742  -6.193  0.00  0.00    +0.020 A 
ATOM     34  C   UNL     1       1.625  -5.497  -5.171  0.00  0.00    +0.041 A 
ATOM     35  C   UNL     1       0.824  -5.939  -4.133  0.00  0.00    +0.025 A 
ATOM     36 CL   UNL     1       3.318  -5.882  -5.186  0.00  0.00    -0.084 Cl
ENDBRANCH  29  30
ENDBRANCH  19  29
TORSDOF 5
