REMARK  Name = ZINC58278730
REMARK  10 active torsions:
REMARK  status: ('A' for Active; 'I' for Inactive)
REMARK    1  A    between atoms: C_1  and  C_2
REMARK    2  A    between atoms: C_2  and  C_3
REMARK    3  A    between atoms: C_3  and  N_4
REMARK    4  A    between atoms: N_7  and  C_8
REMARK    5  A    between atoms: C_8  and  C_9
REMARK    6  A    between atoms: C_8  and  C_10
REMARK    7  A    between atoms: C_8  and  C_11
REMARK    8  A    between atoms: N_13  and  C_14
REMARK    9  A    between atoms: C_21  and  C_23
REMARK   10  A    between atoms: C_21  and  C_24
REMARK                            x       y       z     vdW  Elec       q    Type
REMARK                         _______ _______ _______ _____ _____    ______ ____
ROOT
ATOM      1  C   UNL     1       1.841  -6.238   3.219  0.00  0.00    +0.240 C 
ATOM      2  O   UNL     1       2.661  -7.008   3.673  0.00  0.00    -0.273 OA
ATOM      3  N   UNL     1       0.807  -6.706   2.493  0.00  0.00    -0.284 N 
ATOM      4  H   UNL     1       0.111  -6.101   2.194  0.00  0.00    +0.155 HD
ENDROOT
BRANCH   3   5
ATOM      5  C   UNL     1       0.738  -8.068   2.169  0.00  0.00    +0.037 A 
ATOM      6  C   UNL     1      -0.496  -8.695   2.068  0.00  0.00    +0.027 A 
ATOM      7  C   UNL     1      -0.566 -10.038   1.748  0.00  0.00    +0.051 A 
ATOM      8  C   UNL     1       0.595 -10.761   1.528  0.00  0.00    +0.167 A 
ATOM      9  C   UNL     1       1.835 -10.134   1.630  0.00  0.00    +0.169 A 
ATOM     10  C   UNL     1       1.903  -8.787   1.944  0.00  0.00    +0.072 A 
ATOM     11  O   UNL     1       2.811 -11.053   1.371  0.00  0.00    -0.448 OA
ATOM     12  C   UNL     1       2.177 -12.338   1.513  0.00  0.00    +0.248 C 
ATOM     13  O   UNL     1       0.795 -12.074   1.207  0.00  0.00    -0.448 OA
ATOM     14  C   UNL     1       2.766 -13.341   0.519  0.00  0.00    +0.104 C 
ATOM     15  C   UNL     1       2.320 -12.853   2.947  0.00  0.00    +0.104 C 
ENDBRANCH   3   5
BRANCH   1  16
ATOM     16  C   UNL     1       1.980  -4.758   3.466  0.00  0.00    +0.107 C 
ATOM     17  C   UNL     1       3.448  -4.420   3.731  0.00  0.00    +0.041 C 
ATOM     18  C   UNL     1       1.138  -4.363   4.681  0.00  0.00    +0.041 C 
BRANCH  16  22
ATOM     19  N   UNL     1       1.115  -1.995   1.199  0.00  0.00    -0.299 N 
ATOM     20  C   UNL     1       1.544  -2.673   2.282  0.00  0.00    +0.300 C 
ATOM     21  O   UNL     1       1.958  -2.069   3.253  0.00  0.00    -0.253 OA
ATOM     22  N   UNL     1       1.513  -4.020   2.289  0.00  0.00    -0.286 N 
ATOM     23  H   UNL     1       0.784  -2.476   0.425  0.00  0.00    +0.150 HD
ATOM     24  H   UNL     1       1.183  -4.502   1.515  0.00  0.00    +0.151 HD
BRANCH  19  25
ATOM     25  C   UNL     1       1.147  -0.530   1.192  0.00  0.00    +0.105 C 
BRANCH  25  27
ATOM     26  C   UNL     1       0.644   1.515  -0.152  0.00  0.00    +0.005 C 
ATOM     27  C   UNL     1       0.610  -0.015  -0.145  0.00  0.00    +0.015 C 
ENDBRANCH  25  27
ENDBRANCH  19  25
ENDBRANCH  16  22
ENDBRANCH   1  16
TORSDOF 5
