REMARK  Name = ZINC50252799
REMARK  8 active torsions:
REMARK  status: ('A' for Active; 'I' for Inactive)
REMARK    1  A    between atoms: C_1  and  C_2
REMARK    2  A    between atoms: C_6  and  N_20
REMARK    3  A    between atoms: C_7  and  N_8
REMARK    4  A    between atoms: N_8  and  S_9
REMARK    5  A    between atoms: S_9  and  C_12
REMARK    6  A    between atoms: C_13  and  C_19
REMARK    7  A    between atoms: N_15  and  C_18
REMARK    8  A    between atoms: C_16  and  C_17
REMARK                            x       y       z     vdW  Elec       q    Type
REMARK                         _______ _______ _______ _____ _____    ______ ____
ROOT
ATOM      1  N   UNL     1       0.703  -0.809   2.073  0.00  0.00    -0.214 N 
ATOM      2  H   UNL     1       0.883   0.127   2.252  0.00  0.00    +0.174 HD
ENDROOT
BRANCH   1   9
ATOM      3  C   UNL     1       3.129  -0.739   0.591  0.00  0.00    +0.046 C 
ATOM      4  C   UNL     1       1.847  -1.262  -0.005  0.00  0.00    -0.025 A 
ATOM      5  C   UNL     1       1.830  -1.731  -1.306  0.00  0.00    +0.020 A 
ATOM      6  C   UNL     1       0.656  -2.212  -1.856  0.00  0.00    +0.020 A 
ATOM      7  C   UNL     1      -0.508  -2.227  -1.108  0.00  0.00    +0.040 A 
ATOM      8  C   UNL     1      -0.499  -1.759   0.197  0.00  0.00    +0.049 A 
ATOM      9  C   UNL     1       0.687  -1.278   0.753  0.00  0.00    +0.072 A 
ATOM     10 BR   UNL     1       0.641  -2.851  -3.636  0.00  0.00    -0.050 Br
BRANCH   8  11
ATOM     11  N   UNL     1      -1.676  -1.772   0.955  0.00  0.00    -0.356 N 
ATOM     12  H   UNL     1      -2.424  -2.326   0.681  0.00  0.00    +0.142 HD
ATOM     13  H   UNL     1      -1.743  -1.228   1.756  0.00  0.00    +0.142 HD
ENDBRANCH   8  11
ENDBRANCH   1   9
BRANCH   1  14
ATOM     14  S   UNL     1       0.416  -1.852   3.327  0.00  0.00    +0.076 S 
ATOM     15  O   UNL     1       0.521  -1.090   4.521  0.00  0.00    -0.150 OA
ATOM     16  O   UNL     1      -0.756  -2.580   2.989  0.00  0.00    -0.150 OA
BRANCH  14  17
ATOM     17  C   UNL     1       1.741  -3.014   3.352  0.00  0.00    +0.151 A 
ATOM     18  C   UNL     1       1.752  -4.262   2.721  0.00  0.00    +0.087 A 
ATOM     19  N   UNL     1       2.904  -4.833   2.966  0.00  0.00    -0.174 NA
ATOM     20  N   UNL     1       3.663  -3.964   3.761  0.00  0.00    -0.269 N 
ATOM     21  C   UNL     1       2.929  -2.853   3.979  0.00  0.00    +0.063 A 
ATOM     22  C   UNL     1       3.355  -1.650   4.781  0.00  0.00    +0.067 C 
ATOM     23  C   UNL     1       5.016  -4.215   4.262  0.00  0.00    +0.172 C 
ATOM     24  C   UNL     1       0.632  -4.849   1.902  0.00  0.00    +0.069 C 
ENDBRANCH  14  17
ENDBRANCH   1  14
TORSDOF 4
