REMARK  Name = ZINC26402557
REMARK  11 active torsions:
REMARK  status: ('A' for Active; 'I' for Inactive)
REMARK    1  A    between atoms: C_1  and  C_2
REMARK    2  A    between atoms: C_2  and  C_3
REMARK    3  A    between atoms: C_2  and  C_4
REMARK    4  A    between atoms: C_2  and  N_38
REMARK    5  A    between atoms: N_6  and  C_7
REMARK    6  A    between atoms: C_7  and  C_9
REMARK    7  A    between atoms: C_7  and  C_18
REMARK    8  A    between atoms: C_9  and  O_10
REMARK    9  A    between atoms: O_10  and  C_11
REMARK   10  A    between atoms: C_11  and  C_12
REMARK   11  A    between atoms: C_27  and  C_35
REMARK                            x       y       z     vdW  Elec       q    Type
REMARK                         _______ _______ _______ _____ _____    ______ ____
ROOT
ATOM      1  C   UNL     1       0.061  -2.315   2.928  0.00  0.00    +0.185 C 
ENDROOT
BRANCH   1   2
ATOM      2  C   UNL     1       0.206  -3.811   3.039  0.00  0.00    +0.238 C 
ATOM      3  O   UNL     1      -0.768  -4.501   3.251  0.00  0.00    -0.273 OA
ATOM      4  N   UNL     1       1.419  -4.382   2.902  0.00  0.00    -0.300 N 
ATOM      5  C   UNL     1       2.608  -3.559   2.638  0.00  0.00    +0.108 C 
ATOM      6  C   UNL     1       3.312  -4.089   1.389  0.00  0.00    +0.030 C 
ATOM      7  C   UNL     1       3.589  -5.580   1.555  0.00  0.00    -0.000 C 
ATOM      8  C   UNL     1       2.286  -6.351   1.749  0.00  0.00    +0.030 C 
ATOM      9  C   UNL     1       1.576  -5.839   3.007  0.00  0.00    +0.108 C 
ATOM     10  C   UNL     1       4.519  -5.810   2.761  0.00  0.00    +0.031 C 
ATOM     11  C   UNL     1       5.372  -7.010   2.294  0.00  0.00    +0.133 C 
ATOM     12  C   UNL     1       5.367  -6.936   0.782  0.00  0.00    -0.030 A 
ATOM     13  C   UNL     1       4.339  -6.112   0.357  0.00  0.00    -0.037 A 
ATOM     14  C   UNL     1       4.145  -5.897  -0.997  0.00  0.00    +0.004 A 
ATOM     15  C   UNL     1       4.972  -6.502  -1.923  0.00  0.00    +0.000 A 
ATOM     16  C   UNL     1       5.997  -7.326  -1.499  0.00  0.00    +0.000 A 
ATOM     17  C   UNL     1       6.194  -7.541  -0.148  0.00  0.00    +0.005 A 
BRANCH  11  18
ATOM     18  C   UNL     1       6.779  -6.887   2.819  0.00  0.00    +0.363 C 
ATOM     19  O   UNL     1       7.089  -5.939   3.501  0.00  0.00    -0.246 OA
ATOM     20  O   UNL     1       7.688  -7.831   2.528  0.00  0.00    -0.246 OA
ENDBRANCH  11  18
ENDBRANCH   1   2
BRANCH   1  23
ATOM     21  C   UNL     1      -2.368  -2.373   3.112  0.00  0.00    +0.202 C 
ATOM     22  O   UNL     1      -2.391  -3.147   2.179  0.00  0.00    -0.277 OA
ATOM     23  N   UNL     1      -1.190  -1.897   3.564  0.00  0.00    -0.303 N 
ATOM     24  H   UNL     1      -1.169  -1.195   4.411  0.00  0.00    +0.149 HD
BRANCH  21  26
ATOM     25  C   UNL     1      -4.122  -0.621   3.155  0.00  0.00    -0.001 C 
ATOM     26  C   UNL     1      -3.655  -1.944   3.767  0.00  0.00    +0.001 C 
ATOM     27  C   UNL     1      -4.724  -3.015   3.543  0.00  0.00    -0.001 C 
BRANCH  26  28
ATOM     28  N   UNL     1      -3.436  -1.766   5.209  0.00  0.00    +0.387 N 
ATOM     29  H   UNL     1      -3.100  -2.716   5.649  0.00  0.00    -0.089 HD
ATOM     30  H   UNL     1      -4.375  -1.452   5.687  0.00  0.00    -0.089 HD
ATOM     31  H   UNL     1      -2.667  -0.995   5.370  0.00  0.00    -0.089 HD
ENDBRANCH  26  28
ENDBRANCH  21  26
ENDBRANCH   1  23
BRANCH   1  32
ATOM     32  C   UNL     1       0.042  -1.913   1.452  0.00  0.00    +0.192 C 
BRANCH  32  33
ATOM     33  O   UNL     1       0.021  -0.488   1.347  0.00  0.00    -0.373 OA
BRANCH  33  34
ATOM     34  C   UNL     1       0.002  -0.004   0.002  0.00  0.00    +0.195 C 
BRANCH  34  35
ATOM     35  C   UNL     1      -0.018   1.503   0.010  0.00  0.00    -0.022 A 
ATOM     36  C   UNL     1      -1.225   2.178   0.020  0.00  0.00    +0.006 A 
ATOM     37  C   UNL     1      -1.244   3.560   0.032  0.00  0.00    +0.000 A 
ATOM     38  C   UNL     1      -0.056   4.267   0.025  0.00  0.00    +0.000 A 
ATOM     39  C   UNL     1       1.151   3.592   0.010  0.00  0.00    +0.000 A 
ATOM     40  C   UNL     1       1.169   2.210   0.003  0.00  0.00    +0.006 A 
ENDBRANCH  34  35
ENDBRANCH  33  34
ENDBRANCH  32  33
ENDBRANCH   1  32
TORSDOF 9
