REMARK  Name = ZINC21320404
REMARK  6 active torsions:
REMARK  status: ('A' for Active; 'I' for Inactive)
REMARK    1  A    between atoms: C_6  and  C_7
REMARK    2  A    between atoms: N_8  and  N_9
REMARK    3  A    between atoms: C_13  and  S_16
REMARK    4  A    between atoms: N_14  and  N_15
REMARK    5  A    between atoms: S_16  and  C_17
REMARK    6  A    between atoms: C_17  and  C_18
REMARK                            x       y       z     vdW  Elec       q    Type
REMARK                         _______ _______ _______ _____ _____    ______ ____
ROOT
ATOM      1  N   UNL     1       1.079   3.535   0.011  0.00  0.00    -0.204 N 
ATOM      2  C   UNL     1       2.271   4.245   0.003  0.00  0.00    +0.254 A 
ATOM      3  N   UNL     1       3.476   3.728  -0.005  0.00  0.00    -0.109 NA
ATOM      4  N   UNL     1       4.399   4.782  -0.014  0.00  0.00    -0.119 NA
ATOM      5  C   UNL     1       3.727   5.909  -0.002  0.00  0.00    +0.210 A 
ATOM      6  N   UNL     1       2.395   5.606   0.009  0.00  0.00    -0.211 N 
ATOM      7  H   UNL     1       0.119   4.072   0.023  0.00  0.00    +0.177 HD
ENDROOT
BRANCH   6   8
ATOM      8  N   UNL     1       1.368   6.506   0.024  0.00  0.00    -0.294 N 
ATOM      9  H   UNL     1       1.582   7.585   0.028  0.00  0.00    +0.163 HD
ATOM     10  H   UNL     1       0.326   6.152   0.032  0.00  0.00    +0.163 HD
ENDBRANCH   6   8
BRANCH   1  12
ATOM     11  C   UNL     1      -0.018   1.470   0.010  0.00  0.00    +0.142 C 
ATOM     12  N   UNL     1       1.098   2.134   0.003  0.00  0.00    -0.187 NA
BRANCH  11  18
ATOM     13  C   UNL     1      -1.196  -0.722   0.010  0.00  0.00    +0.028 A 
ATOM     14  C   UNL     1      -1.170  -2.103   0.002  0.00  0.00    +0.020 A 
ATOM     15  C   UNL     1       0.038  -2.778  -0.014  0.00  0.00    +0.034 A 
ATOM     16  C   UNL     1       1.231  -2.077  -0.022  0.00  0.00    +0.066 A 
ATOM     17  C   UNL     1       1.223  -0.692  -0.019  0.00  0.00    +0.201 A 
ATOM     18  C   UNL     1       0.002  -0.004   0.002  0.00  0.00    +0.043 A 
ATOM     19  O   UNL     1       2.394  -0.003  -0.032  0.00  0.00    -0.286 OA
ATOM     20 BR   UNL     1       2.875  -3.012  -0.043  0.00  0.00    -0.046 Br
ATOM     21 BR   UNL     1      -2.792  -3.074   0.012  0.00  0.00    -0.050 Br
ENDBRANCH  11  18
ENDBRANCH   1  12
BRANCH   5  22
ATOM     22  S   UNL     1       4.422   7.528   0.001  0.00  0.00    -0.075 S 
BRANCH  22  23
ATOM     23  C   UNL     1       6.212   7.237  -0.018  0.00  0.00    +0.172 C 
BRANCH  23  24
ATOM     24  C   UNL     1       6.936   8.559  -0.018  0.00  0.00    +0.221 C 
ATOM     25  O   UNL     1       6.306   9.596  -0.005  0.00  0.00    -0.275 OA
ATOM     26  N   UNL     1       8.283   8.590  -0.030  0.00  0.00    -0.329 N 
ATOM     27  H   UNL     1       8.811   9.555  -0.030  0.00  0.00    +0.145 HD
ATOM     28  H   UNL     1       8.855   7.651  -0.041  0.00  0.00    +0.145 HD
ENDBRANCH  23  24
ENDBRANCH  22  23
ENDBRANCH   5  22
TORSDOF 6
