REMARK  Name = ZINC63835509
REMARK  8 active torsions:
REMARK  status: ('A' for Active; 'I' for Inactive)
REMARK    1  A    between atoms: C_1  and  C_2
REMARK    2  A    between atoms: C_2  and  C_3
REMARK    3  A    between atoms: C_9  and  C_11
REMARK    4  A    between atoms: C_11  and  N_12
REMARK    5  A    between atoms: C_13  and  C_15
REMARK    6  A    between atoms: C_18  and  C_20
REMARK    7  A    between atoms: C_20  and  C_22
REMARK    8  A    between atoms: C_20  and  N_23
REMARK                            x       y       z     vdW  Elec       q    Type
REMARK                         _______ _______ _______ _____ _____    ______ ____
ROOT
ATOM      1  N   UNL     1       3.457   1.776   3.474  0.00  0.00    -0.303 N 
ATOM      2  C   UNL     1       4.090   2.758   4.146  0.00  0.00    +0.280 C 
ATOM      3  O   UNL     1       3.792   2.993   5.302  0.00  0.00    -0.267 OA
ATOM      4  H   UNL     1       3.694   1.589   2.552  0.00  0.00    +0.149 HD
ENDROOT
BRANCH   2   5
ATOM      5  C   UNL     1       5.138   3.542   3.485  0.00  0.00    +0.189 A 
ATOM      6  C   UNL     1       5.858   4.556   4.049  0.00  0.00    +0.055 A 
ATOM      7  C   UNL     1       6.744   5.019   3.063  0.00  0.00    +0.044 A 
ATOM      8  C   UNL     1       6.527   4.277   1.954  0.00  0.00    +0.092 A 
ATOM      9  O   UNL     1       5.563   3.385   2.214  0.00  0.00    -0.457 OA
BRANCH   8  10
ATOM     10  C   UNL     1       7.256   4.426   0.643  0.00  0.00    -0.004 C 
ATOM     11  C   UNL     1       6.390   5.225  -0.333  0.00  0.00    -0.005 C 
BRANCH  10  12
ATOM     12  N   UNL     1       7.528   3.096   0.081  0.00  0.00    +0.386 N 
ATOM     13  C   UNL     1       8.351   2.328   1.023  0.00  0.00    -0.078 C 
ATOM     14  C   UNL     1       8.570   0.914   0.479  0.00  0.00    -0.019 C 
ATOM     15  C   UNL     1       9.283   0.999  -0.874  0.00  0.00    -0.004 C 
ATOM     16  C   UNL     1       8.452   1.864  -1.825  0.00  0.00    -0.019 C 
ATOM     17  C   UNL     1       8.237   3.243  -1.196  0.00  0.00    -0.078 C 
ATOM     18  H   UNL     1       6.656   2.612  -0.073  0.00  0.00    -0.081 HD
ENDBRANCH  10  12
ENDBRANCH   8  10
ENDBRANCH   2   5
BRANCH   1  19
ATOM     19  C   UNL     1       2.410   0.993   4.134  0.00  0.00    +0.160 C 
BRANCH  19  26
ATOM     20  C   UNL     1       0.731  -0.503   1.223  0.00  0.00    +0.110 A 
ATOM     21  N   UNL     1       0.870  -1.830   1.410  0.00  0.00    -0.311 N 
ATOM     22  H   UNL     1       0.503  -2.453   0.763  0.00  0.00    +0.170 HD
ATOM     23  C   UNL     1       1.521  -2.292   2.499  0.00  0.00    +0.252 A 
ATOM     24  O   UNL     1       1.655  -3.491   2.683  0.00  0.00    -0.268 OA
ATOM     25  C   UNL     1       2.042  -1.360   3.420  0.00  0.00    +0.095 A 
ATOM     26  C   UNL     1       1.867  -0.032   3.172  0.00  0.00    +0.065 A 
ATOM     27  N   UNL     1       1.218   0.360   2.073  0.00  0.00    -0.237 NA
BRANCH  20  29
ATOM     28  C   UNL     1      -0.019   1.526   0.010  0.00  0.00    +0.012 C 
ATOM     29  C   UNL     1       0.002  -0.004   0.002  0.00  0.00    +0.071 C 
ENDBRANCH  20  29
ENDBRANCH  19  26
ENDBRANCH   1  19
TORSDOF 6
