REMARK  Name = ZINC59922324
REMARK  6 active torsions:
REMARK  status: ('A' for Active; 'I' for Inactive)
REMARK    1  A    between atoms: C_3  and  O_21
REMARK    2  A    between atoms: C_4  and  O_20
REMARK    3  A    between atoms: C_6  and  C_7
REMARK    4  A    between atoms: N_8  and  N_9
REMARK    5  A    between atoms: C_10  and  C_12
REMARK    6  A    between atoms: C_17  and  O_18
REMARK                            x       y       z     vdW  Elec       q    Type
REMARK                         _______ _______ _______ _____ _____    ______ ____
ROOT
ATOM      1  N   UNL     1      -3.600  -0.847   0.033  0.00  0.00    -0.203 N 
ATOM      2  C   UNL     1      -4.777  -0.191   0.049  0.00  0.00    +0.267 C 
ATOM      3  O   UNL     1      -4.795   1.025   0.055  0.00  0.00    -0.268 OA
ATOM      4  H   UNL     1      -3.585  -1.817   0.028  0.00  0.00    +0.178 HD
ENDROOT
BRANCH   2   5
ATOM      5  C   UNL     1      -6.043  -0.947   0.057  0.00  0.00    +0.081 A 
ATOM      6  C   UNL     1      -6.026  -2.345   0.055  0.00  0.00    +0.032 A 
ATOM      7  C   UNL     1      -7.213  -3.046   0.064  0.00  0.00    +0.019 A 
ATOM      8  C   UNL     1      -8.424  -2.370   0.074  0.00  0.00    +0.019 A 
ATOM      9  C   UNL     1      -8.454  -0.990   0.075  0.00  0.00    +0.047 A 
ATOM     10  C   UNL     1      -7.269  -0.269   0.073  0.00  0.00    +0.129 A 
ATOM     11 BR   UNL     1      -7.190  -4.937   0.061  0.00  0.00    -0.050 Br
BRANCH  10  12
ATOM     12  O   UNL     1      -7.297   1.087   0.080  0.00  0.00    -0.506 OA
ATOM     13  H   UNL     1      -7.314   1.485  -0.801  0.00  0.00    +0.292 HD
ENDBRANCH  10  12
ENDBRANCH   2   5
BRANCH   1  15
ATOM     14  C   UNL     1      -1.263  -0.760   0.011  0.00  0.00    +0.138 C 
ATOM     15  N   UNL     1      -2.397  -0.128   0.025  0.00  0.00    -0.187 NA
BRANCH  14  21
ATOM     16  C   UNL     1      -0.017   1.393   0.010  0.00  0.00    +0.013 A 
ATOM     17  C   UNL     1       1.168   2.098   0.002  0.00  0.00    +0.050 A 
ATOM     18  C   UNL     1       2.380   1.424  -0.013  0.00  0.00    +0.158 A 
ATOM     19  C   UNL     1       2.407   0.031  -0.021  0.00  0.00    +0.159 A 
ATOM     20  C   UNL     1       1.224  -0.683  -0.014  0.00  0.00    +0.058 A 
ATOM     21  C   UNL     1       0.002  -0.004   0.002  0.00  0.00    -0.002 A 
BRANCH  19  22
ATOM     22  O   UNL     1       3.598  -0.626  -0.037  0.00  0.00    -0.503 OA
ATOM     23  H   UNL     1       3.950  -0.821   0.842  0.00  0.00    +0.292 HD
ENDBRANCH  19  22
BRANCH  18  24
ATOM     24  O   UNL     1       3.545   2.125  -0.020  0.00  0.00    -0.503 OA
ATOM     25  H   UNL     1       3.891   2.323   0.861  0.00  0.00    +0.292 HD
ENDBRANCH  18  24
ENDBRANCH  14  21
ENDBRANCH   1  15
TORSDOF 6
