REMARK  Name = ZINC30499039
REMARK  10 active torsions:
REMARK  status: ('A' for Active; 'I' for Inactive)
REMARK    1  A    between atoms: C_1  and  C_2
REMARK    2  A    between atoms: C_2  and  C_3
REMARK    3  A    between atoms: N_5  and  C_6
REMARK    4  A    between atoms: C_9  and  C_12
REMARK    5  A    between atoms: C_12  and  C_14
REMARK    6  A    between atoms: C_12  and  N_15
REMARK    7  A    between atoms: N_15  and  C_16
REMARK    8  A    between atoms: C_16  and  C_17
REMARK    9  A    between atoms: C_26  and  O_29
REMARK   10  A    between atoms: C_27  and  C_28
REMARK                            x       y       z     vdW  Elec       q    Type
REMARK                         _______ _______ _______ _____ _____    ______ ____
ROOT
ATOM      1  N   UNL     1      -2.128  -0.983   1.414  0.00  0.00    +0.386 N 
ATOM      2  H   UNL     1      -2.821  -0.516   2.129  0.00  0.00    -0.085 HD
ATOM      3  H   UNL     1      -1.091  -0.773   1.717  0.00  0.00    -0.085 HD
ENDROOT
BRANCH   1   4
ATOM      4  C   UNL     1      -2.347  -2.436   1.397  0.00  0.00    -0.044 C 
ATOM      5  C   UNL     1      -1.069  -3.140   0.938  0.00  0.00    -0.009 C 
BRANCH   4   9
ATOM      6  C   UNL     1      -3.376  -3.768   5.325  0.00  0.00    +0.033 A 
ATOM      7  C   UNL     1      -4.024  -4.300   4.218  0.00  0.00    +0.023 A 
ATOM      8  C   UNL     1      -3.690  -3.867   2.950  0.00  0.00    +0.004 A 
ATOM      9  C   UNL     1      -2.711  -2.905   2.782  0.00  0.00    -0.062 A 
ATOM     10  C   UNL     1      -2.060  -2.377   3.882  0.00  0.00    +0.004 A 
ATOM     11  C   UNL     1      -2.394  -2.802   5.153  0.00  0.00    +0.023 A 
BRANCH   6  14
ATOM     12  C   UNL     1      -4.092  -5.482   6.811  0.00  0.00    +0.217 C 
ATOM     13  O   UNL     1      -4.050  -6.278   5.897  0.00  0.00    -0.275 OA
ATOM     14  N   UNL     1      -3.713  -4.205   6.611  0.00  0.00    -0.286 N 
ATOM     15  H   UNL     1      -3.668  -3.505   7.459  0.00  0.00    +0.155 HD
BRANCH  12  17
ATOM     16  C   UNL     1      -4.936  -7.407   8.128  0.00  0.00    +0.013 C 
ATOM     17  C   UNL     1      -4.569  -5.922   8.172  0.00  0.00    +0.093 C 
ENDBRANCH  12  17
ENDBRANCH   6  14
ENDBRANCH   4   9
ENDBRANCH   1   4
BRANCH   1  18
ATOM     18  C   UNL     1      -2.358  -0.400   0.085  0.00  0.00    -0.045 C 
BRANCH  18  19
ATOM     19  C   UNL     1      -2.124   1.087   0.142  0.00  0.00    -0.047 A 
ATOM     20  C   UNL     1      -3.165   1.954   0.234  0.00  0.00    +0.094 A 
ATOM     21  C   UNL     1      -2.920   3.342   0.285  0.00  0.00    +0.337 A 
ATOM     22  O   UNL     1      -3.863   4.109   0.369  0.00  0.00    -0.245 OA
ATOM     23  O   UNL     1      -1.673   3.839   0.258  0.00  0.00    -0.422 OA
ATOM     24  C   UNL     1      -0.595   3.033   0.160  0.00  0.00    +0.146 A 
ATOM     25  C   UNL     1      -0.767   1.637   0.098  0.00  0.00    +0.019 A 
ATOM     26  C   UNL     1       0.348   0.797   0.003  0.00  0.00    +0.015 A 
ATOM     27  C   UNL     1       1.601   1.336  -0.042  0.00  0.00    +0.046 A 
ATOM     28  C   UNL     1       1.778   2.717   0.012  0.00  0.00    +0.123 A 
ATOM     29  C   UNL     1       0.685   3.563   0.113  0.00  0.00    +0.034 A 
ATOM     30  C   UNL     1       0.887   5.056   0.171  0.00  0.00    +0.051 C 
BRANCH  28  31
ATOM     31  O   UNL     1       3.030   3.238  -0.035  0.00  0.00    -0.506 OA
ATOM     32  H   UNL     1       3.175   4.328   0.008  0.00  0.00    +0.292 HD
ENDBRANCH  28  31
ENDBRANCH  18  19
ENDBRANCH   1  18
TORSDOF 7
