REMARK  Name = ZINC11851126
REMARK  3 active torsions:
REMARK  status: ('A' for Active; 'I' for Inactive)
REMARK    1  A    between atoms: C_5  and  C_6
REMARK    2  A    between atoms: C_7  and  C_12
REMARK    3  A    between atoms: C_8  and  N_11
REMARK                            x       y       z     vdW  Elec       q    Type
REMARK                         _______ _______ _______ _____ _____    ______ ____
ROOT
ATOM      1  C   UNL     1       1.649   3.223   0.003  0.00  0.00    +0.168 A 
ATOM      2  C   UNL     1       0.961   4.352  -0.658  0.00  0.00    +0.143 A 
ATOM      3  C   UNL     1       1.770   5.440  -0.324  0.00  0.00    +0.233 A 
ATOM      4  O   UNL     1       2.766   4.947   0.424  0.00  0.00    -0.338 OA
ATOM      5  N   UNL     1       2.691   3.756   0.599  0.00  0.00    -0.072 NA
ENDROOT
BRANCH   1  10
ATOM      6  C   UNL     1       2.092   0.735  -0.014  0.00  0.00    +0.053 A 
ATOM      7  C   UNL     1       1.286  -0.419  -0.013  0.00  0.00    +0.057 A 
ATOM      8  C   UNL     1       0.002  -0.004   0.002  0.00  0.00    +0.171 A 
ATOM      9  O   UNL     1      -0.016   1.338   0.009  0.00  0.00    -0.447 OA
ATOM     10  C   UNL     1       1.249   1.803  -0.000  0.00  0.00    +0.159 A 
ATOM     11 BR   UNL     1      -1.519  -1.127   0.011  0.00  0.00    -0.008 Br
ENDBRANCH   1  10
BRANCH   3  12
ATOM     12  N   UNL     1       1.582   6.751  -0.688  0.00  0.00    -0.326 N 
ATOM     13  H   UNL     1       0.821   6.997  -1.235  0.00  0.00    +0.145 HD
ATOM     14  H   UNL     1       2.211   7.429  -0.397  0.00  0.00    +0.145 HD
ENDBRANCH   3  12
BRANCH   2  15
ATOM     15  C   UNL     1      -0.236   4.334  -1.444  0.00  0.00    +0.107 C 
ATOM     16  N   UNL     1      -1.186   4.319  -2.068  0.00  0.00    -0.191 NA
ENDBRANCH   2  15
TORSDOF 3
