REMARK  Name = ZINC29456829
REMARK  8 active torsions:
REMARK  status: ('A' for Active; 'I' for Inactive)
REMARK    1  A    between atoms: C_1  and  C_2
REMARK    2  A    between atoms: C_2  and  C_4
REMARK    3  A    between atoms: C_2  and  N_14
REMARK    4  A    between atoms: N_9  and  C_10
REMARK    5  A    between atoms: C_10  and  C_11
REMARK    6  A    between atoms: C_10  and  C_12
REMARK    7  A    between atoms: C_10  and  C_13
REMARK    8  A    between atoms: N_14  and  C_15
REMARK                            x       y       z     vdW  Elec       q    Type
REMARK                         _______ _______ _______ _____ _____    ______ ____
ROOT
ATOM      1  C   UNL     1       0.742  -0.511   1.242  0.00  0.00    +0.038 C 
ATOM      2  C   UNL     1       0.002  -0.004   0.002  0.00  0.00    +0.154 C 
ENDROOT
BRANCH   2   3
ATOM      3  C   UNL     1      -0.018   1.503   0.010  0.00  0.00    +0.240 C 
ATOM      4  O   UNL     1      -1.076   2.095   0.018  0.00  0.00    -0.273 OA
ATOM      5  N   UNL     1       1.139   2.192   0.003  0.00  0.00    -0.239 N 
ATOM      6  C   UNL     1       1.121   3.540   0.010  0.00  0.00    +0.306 C 
ATOM      7  O   UNL     1       0.061   4.133   0.024  0.00  0.00    -0.252 OA
ATOM      8  N   UNL     1       2.279   4.230   0.003  0.00  0.00    -0.294 N 
ATOM      9  H   UNL     1       2.099   1.655  -0.009  0.00  0.00    +0.159 HD
ATOM     10  H   UNL     1       3.239   3.693  -0.009  0.00  0.00    +0.151 HD
BRANCH   8  11
ATOM     11  C   UNL     1       2.259   5.695   0.011  0.00  0.00    +0.028 C 
ATOM     12  C   UNL     1       1.543   6.188   1.270  0.00  0.00    +0.031 C 
ATOM     13  C   UNL     1       3.695   6.224   0.000  0.00  0.00    +0.031 C 
ATOM     14  C   UNL     1       1.519   6.202  -1.228  0.00  0.00    +0.031 C 
ENDBRANCH   8  11
ENDBRANCH   2   3
BRANCH   2  15
ATOM     15  N   UNL     1      -1.372  -0.511   0.012  0.00  0.00    -0.333 N 
ATOM     16  H   UNL     1      -2.183   0.106   0.426  0.00  0.00    +0.147 HD
BRANCH  15  17
ATOM     17  C   UNL     1      -1.653  -1.781  -0.504  0.00  0.00    +0.031 A 
ATOM     18  C   UNL     1      -0.631  -2.558  -1.031  0.00  0.00    +0.027 A 
ATOM     19  C   UNL     1      -0.906  -3.815  -1.537  0.00  0.00    +0.051 A 
ATOM     20  C   UNL     1      -2.204  -4.298  -1.528  0.00  0.00    +0.173 A 
ATOM     21  C   UNL     1      -3.233  -3.518  -1.005  0.00  0.00    +0.174 A 
ATOM     22  C   UNL     1      -2.956  -2.261  -0.494  0.00  0.00    +0.072 A 
ATOM     23  O   UNL     1      -4.404  -4.212  -1.113  0.00  0.00    -0.395 OA
ATOM     24  C   UNL     1      -4.149  -5.252  -2.076  0.00  0.00    +0.589 C 
ATOM     25  O   UNL     1      -2.732  -5.481  -1.964  0.00  0.00    -0.395 OA
ATOM     26  F   UNL     1      -4.476  -4.819  -3.365  0.00  0.00    -0.125 F 
ATOM     27  F   UNL     1      -4.862  -6.411  -1.752  0.00  0.00    -0.125 F 
ENDBRANCH  15  17
ENDBRANCH   2  15
TORSDOF 4
