REMARK  Name = ZINC15016825
REMARK  11 active torsions:
REMARK  status: ('A' for Active; 'I' for Inactive)
REMARK    1  A    between atoms: C_1  and  C_2
REMARK    2  A    between atoms: C_2  and  O_3
REMARK    3  A    between atoms: O_3  and  C_4
REMARK    4  A    between atoms: C_6  and  C_15
REMARK    5  A    between atoms: C_9  and  O_10
REMARK    6  A    between atoms: O_10  and  C_11
REMARK    7  A    between atoms: C_11  and  C_12
REMARK    8  A    between atoms: C_17  and  C_26
REMARK    9  A    between atoms: C_18  and  C_25
REMARK   10  A    between atoms: C_26  and  O_28
REMARK   11  A    between atoms: O_28  and  C_29
REMARK                            x       y       z     vdW  Elec       q    Type
REMARK                         _______ _______ _______ _____ _____    ______ ____
ROOT
ATOM      1  C   UNL     1       0.719  -4.969   0.075  0.00  0.00    +0.181 C 
ATOM      2  C   UNL     1       0.824  -5.791  -1.183  0.00  0.00    +0.082 C 
ATOM      3  C   UNL     1       0.494  -7.091  -1.238  0.00  0.00    +0.020 C 
ATOM      4  N   UNL     1       0.043  -7.780  -0.140  0.00  0.00    -0.286 N 
ATOM      5  C   UNL     1       0.178  -7.168   1.097  0.00  0.00    +0.240 A 
ATOM      6  N   UNL     1       0.499  -5.852   1.214  0.00  0.00    -0.201 N 
ATOM      7  N   UNL     1       0.552  -5.600   2.583  0.00  0.00    -0.042 NA
ATOM      8  N   UNL     1       0.271  -6.716   3.174  0.00  0.00    -0.021 NA
ATOM      9  N   UNL     1       0.048  -7.642   2.303  0.00  0.00    -0.092 NA
ATOM     10  C   UNL     1       0.624  -7.818  -2.551  0.00  0.00    +0.061 C 
ATOM     11  H   UNL     1      -0.354  -8.661  -0.226  0.00  0.00    +0.155 HD
ENDROOT
BRANCH   1  14
ATOM     12  C   UNL     1      -1.273  -1.762  -0.078  0.00  0.00    +0.163 A 
ATOM     13  C   UNL     1      -0.212  -2.647   0.034  0.00  0.00    +0.055 A 
ATOM     14  C   UNL     1      -0.436  -4.009  -0.047  0.00  0.00    -0.014 A 
ATOM     15  C   UNL     1      -1.717  -4.492  -0.240  0.00  0.00    +0.025 A 
ATOM     16  C   UNL     1      -2.780  -3.614  -0.353  0.00  0.00    +0.063 A 
ATOM     17  C   UNL     1      -2.563  -2.248  -0.267  0.00  0.00    +0.176 A 
ATOM     18 BR   UNL     1      -4.531  -4.279  -0.619  0.00  0.00    -0.046 Br
BRANCH  12  19
ATOM     19  O   UNL     1      -1.054  -0.422   0.001  0.00  0.00    -0.489 OA
BRANCH  19  21
ATOM     20  C   UNL     1       0.344   1.532   0.259  0.00  0.00    +0.048 C 
ATOM     21  C   UNL     1       0.296   0.004   0.195  0.00  0.00    +0.226 C 
ENDBRANCH  19  21
ENDBRANCH  12  19
BRANCH  17  22
ATOM     22  O   UNL     1      -3.608  -1.384  -0.372  0.00  0.00    -0.483 OA
BRANCH  22  23
ATOM     23  C   UNL     1      -3.940  -0.924  -1.683  0.00  0.00    +0.256 C 
BRANCH  23  24
ATOM     24  C   UNL     1      -5.114   0.018  -1.603  0.00  0.00    +0.006 C 
ATOM     25  C   UNL     1      -5.098   1.143  -2.275  0.00  0.00    +0.007 C 
ENDBRANCH  23  24
ENDBRANCH  22  23
ENDBRANCH  17  22
ENDBRANCH   1  14
BRANCH   2  26
ATOM     26  C   UNL     1       1.291  -5.164  -2.359  0.00  0.00    +0.339 C 
ATOM     27  O   UNL     1       2.485  -5.009  -2.533  0.00  0.00    -0.245 OA
BRANCH  26  28
ATOM     28  O   UNL     1       0.412  -4.737  -3.291  0.00  0.00    -0.465 OA
ATOM     29  C   UNL     1       0.954  -4.112  -4.455  0.00  0.00    +0.280 C 
ENDBRANCH  26  28
ENDBRANCH   2  26
TORSDOF 8
