REMARK  Name = ZINC04545411
REMARK  5 active torsions:
REMARK  status: ('A' for Active; 'I' for Inactive)
REMARK    1  A    between atoms: C_1  and  C_2
REMARK    2  A    between atoms: C_2  and  C_3
REMARK    3  A    between atoms: C_12  and  O_26
REMARK    4  A    between atoms: C_14  and  C_17
REMARK    5  A    between atoms: C_21  and  N_23
REMARK                            x       y       z     vdW  Elec       q    Type
REMARK                         _______ _______ _______ _____ _____    ______ ____
ROOT
ATOM      1  C   UNL     1      -1.433  -0.534   0.013  0.00  0.00    -0.006 C 
ATOM      2  C   UNL     1      -1.418  -2.060  -0.115  0.00  0.00    +0.008 C 
ATOM      3  C   UNL     1      -2.838  -2.576  -0.353  0.00  0.00    +0.037 C 
ATOM      4  C   UNL     1      -3.752  -2.008   0.724  0.00  0.00    -0.023 A 
ATOM      5  C   UNL     1      -3.387  -0.928   1.452  0.00  0.00    -0.004 A 
ATOM      6  S   UNL     1      -4.746  -0.646   2.555  0.00  0.00    -0.078 S 
ATOM      7  C   UNL     1      -5.744  -1.882   2.081  0.00  0.00    +0.080 A 
ATOM      8  C   UNL     1      -5.055  -2.551   1.063  0.00  0.00    +0.068 A 
ATOM      9  C   UNL     1      -5.715  -3.732   0.450  0.00  0.00    +0.220 C 
ATOM     10  N   UNL     1      -6.980  -3.924   0.713  0.00  0.00    -0.223 NA
ATOM     11  C   UNL     1      -7.803  -3.025   1.512  0.00  0.00    +0.224 C 
ATOM     12  N   UNL     1      -6.996  -2.280   2.495  0.00  0.00    -0.313 N 
ATOM     13  C   UNL     1      -2.113  -0.150   1.336  0.00  0.00    +0.046 C 
ATOM     14  H   UNL     1      -7.328  -2.080   3.385  0.00  0.00    +0.149 HD
ENDROOT
BRANCH  11  15
ATOM     15  C   UNL     1      -8.492  -2.045   0.599  0.00  0.00    -0.003 A 
ATOM     16  C   UNL     1      -8.795  -0.774   1.051  0.00  0.00    +0.007 A 
ATOM     17  C   UNL     1      -9.427   0.125   0.212  0.00  0.00    +0.003 A 
ATOM     18  C   UNL     1      -9.755  -0.246  -1.078  0.00  0.00    +0.033 A 
ATOM     19  C   UNL     1      -9.450  -1.516  -1.531  0.00  0.00    +0.127 A 
ATOM     20  C   UNL     1      -8.815  -2.414  -0.694  0.00  0.00    +0.040 A 
BRANCH  19  21
ATOM     21  N   UNL     1      -9.802  -1.914  -2.913  0.00  0.00    +0.056 N 
ATOM     22  O   UNL     1     -10.355  -1.128  -3.646  0.00  0.00    -0.126 OA
ATOM     23  O   UNL     1      -9.536  -3.025  -3.308  0.00  0.00    -0.126 OA
ENDBRANCH  19  21
ENDBRANCH  11  15
BRANCH   1  25
ATOM     24  C   UNL     1      -0.019   1.526   0.010  0.00  0.00    +0.004 C 
ATOM     25  C   UNL     1       0.002  -0.004   0.002  0.00  0.00    +0.000 C 
ENDBRANCH   1  25
BRANCH   9  26
ATOM     26  O   UNL     1      -5.031  -4.580  -0.353  0.00  0.00    -0.492 OA
ATOM     27  H   UNL     1      -5.561  -5.312  -0.695  0.00  0.00    +0.294 HD
ENDBRANCH   9  26
TORSDOF 4
