REMARK  Name = ZINC65178500
REMARK  7 active torsions:
REMARK  status: ('A' for Active; 'I' for Inactive)
REMARK    1  A    between atoms: C_1  and  C_2
REMARK    2  A    between atoms: C_2  and  C_3
REMARK    3  A    between atoms: C_2  and  C_4
REMARK    4  A    between atoms: C_4  and  N_5
REMARK    5  A    between atoms: N_8  and  N_9
REMARK    6  A    between atoms: C_10  and  C_12
REMARK    7  A    between atoms: C_16  and  N_22
REMARK                            x       y       z     vdW  Elec       q    Type
REMARK                         _______ _______ _______ _____ _____    ______ ____
ROOT
ATOM      1  N   UNL     1      -1.339  -4.704  -0.356  0.00  0.00    -0.228 N 
ATOM      2  C   UNL     1      -1.323  -6.046  -0.474  0.00  0.00    +0.276 C 
ATOM      3  O   UNL     1      -2.369  -6.668  -0.487  0.00  0.00    -0.267 OA
ATOM      4  H   UNL     1      -0.505  -4.208  -0.346  0.00  0.00    +0.173 HD
ENDROOT
BRANCH   2   5
ATOM      5  C   UNL     1      -0.042  -6.760  -0.587  0.00  0.00    +0.104 A 
ATOM      6  C   UNL     1       0.101  -8.104  -0.716  0.00  0.00    +0.041 A 
ATOM      7  C   UNL     1       1.487  -8.384  -0.794  0.00  0.00    +0.003 A 
ATOM      8  C   UNL     1       2.224  -9.568  -0.931  0.00  0.00    +0.042 A 
ATOM      9  C   UNL     1       3.586  -9.518  -0.978  0.00  0.00    +0.127 A 
ATOM     10  C   UNL     1       4.253  -8.303  -0.891  0.00  0.00    +0.035 A 
ATOM     11  C   UNL     1       3.552  -7.126  -0.756  0.00  0.00    +0.028 A 
ATOM     12  C   UNL     1       2.161  -7.150  -0.707  0.00  0.00    +0.047 A 
ATOM     13  N   UNL     1       1.206  -6.169  -0.586  0.00  0.00    -0.351 N 
ATOM     14  H   UNL     1       1.381  -5.217  -0.510  0.00  0.00    +0.166 HD
BRANCH   9  15
ATOM     15  N   UNL     1       4.361 -10.771  -1.122  0.00  0.00    +0.056 N 
ATOM     16  O   UNL     1       3.787 -11.832  -1.198  0.00  0.00    -0.126 OA
ATOM     17  O   UNL     1       5.569 -10.734  -1.165  0.00  0.00    -0.126 OA
ENDBRANCH   9  15
ENDBRANCH   2   5
BRANCH   1  21
ATOM     18  N   UNL     1      -1.416  -1.993  -0.116  0.00  0.00    -0.298 N 
ATOM     19  C   UNL     1      -2.575  -2.682  -0.130  0.00  0.00    +0.316 C 
ATOM     20  O   UNL     1      -3.634  -2.092  -0.036  0.00  0.00    -0.251 OA
ATOM     21  N   UNL     1      -2.559  -4.024  -0.248  0.00  0.00    -0.218 N 
ATOM     22  H   UNL     1      -0.572  -2.463  -0.190  0.00  0.00    +0.150 HD
ATOM     23  H   UNL     1      -3.393  -4.520  -0.258  0.00  0.00    +0.174 HD
BRANCH  18  24
ATOM     24  C   UNL     1      -1.433  -0.534   0.013  0.00  0.00    +0.108 C 
BRANCH  24  26
ATOM     25  C   UNL     1      -0.019   1.526   0.010  0.00  0.00    +0.009 C 
ATOM     26  C   UNL     1       0.002  -0.004   0.002  0.00  0.00    -0.000 C 
ATOM     27  C   UNL     1       0.742  -0.511   1.242  0.00  0.00    +0.009 C 
ENDBRANCH  24  26
ENDBRANCH  18  24
ENDBRANCH   1  21
TORSDOF 5
