REMARK  Name = ZINC35375035
REMARK  8 active torsions:
REMARK  status: ('A' for Active; 'I' for Inactive)
REMARK    1  A    between atoms: C_1  and  C_2
REMARK    2  A    between atoms: C_2  and  C_3
REMARK    3  A    between atoms: C_3  and  C_5
REMARK    4  A    between atoms: C_3  and  N_6
REMARK    5  A    between atoms: C_7  and  C_9
REMARK    6  A    between atoms: N_22  and  C_23
REMARK    7  A    between atoms: C_26  and  O_29
REMARK    8  A    between atoms: O_29  and  C_30
REMARK                            x       y       z     vdW  Elec       q    Type
REMARK                         _______ _______ _______ _____ _____    ______ ____
ROOT
ATOM      1  C   UNL     1       3.905   0.866  -2.554  0.00  0.00    +0.028 C 
ATOM      2  C   UNL     1       5.000   0.506  -1.506  0.00  0.00    +0.061 C 
ATOM      3  S   UNL     1       6.445   1.315  -2.331  0.00  0.00    -0.174 S 
ATOM      4  C   UNL     1       5.870   1.097  -4.063  0.00  0.00    -0.016 C 
ATOM      5  N   UNL     1       4.442   0.778  -3.916  0.00  0.00    +0.397 N 
ATOM      6  C   UNL     1       6.069   2.393  -4.834  0.00  0.00    +0.017 C 
ATOM      7  C   UNL     1       5.572   2.214  -6.273  0.00  0.00    +0.109 C 
ATOM      8  N   UNL     1       6.227   1.034  -6.854  0.00  0.00    -0.285 N 
ATOM      9  C   UNL     1       6.131  -0.250  -6.147  0.00  0.00    +0.109 C 
ATOM     10  C   UNL     1       6.625  -0.057  -4.708  0.00  0.00    +0.017 C 
ATOM     11  C   UNL     1       6.904   1.128  -8.016  0.00  0.00    +0.306 C 
ATOM     12  O   UNL     1       6.902   2.173  -8.638  0.00  0.00    -0.252 OA
ATOM     13  N   UNL     1       7.582   0.064  -8.489  0.00  0.00    -0.269 N 
ATOM     14  H   UNL     1       4.291  -0.161  -4.254  0.00  0.00    -0.083 HD
ATOM     15  H   UNL     1       7.500  -0.797  -8.050  0.00  0.00    +0.156 HD
ATOM     16  H   UNL     1       3.917   1.410  -4.503  0.00  0.00    -0.083 HD
ENDROOT
BRANCH  13  17
ATOM     17  C   UNL     1       8.406   0.201  -9.614  0.00  0.00    +0.035 A 
ATOM     18  C   UNL     1       9.085   1.392  -9.836  0.00  0.00    +0.027 A 
ATOM     19  C   UNL     1       9.897   1.526 -10.945  0.00  0.00    +0.047 A 
ATOM     20  C   UNL     1      10.035   0.473 -11.837  0.00  0.00    +0.120 A 
ATOM     21  C   UNL     1       9.356  -0.717 -11.615  0.00  0.00    +0.047 A 
ATOM     22  C   UNL     1       8.548  -0.855 -10.504  0.00  0.00    +0.027 A 
BRANCH  20  23
ATOM     23  O   UNL     1      10.835   0.606 -12.928  0.00  0.00    -0.495 OA
ATOM     24  C   UNL     1      10.929  -0.519 -13.804  0.00  0.00    +0.277 C 
ENDBRANCH  20  23
ENDBRANCH  13  17
BRANCH   1  26
ATOM     25  N   UNL     1       2.076  -0.167  -1.248  0.00  0.00    -0.314 N 
ATOM     26  C   UNL     1       2.750  -0.091  -2.413  0.00  0.00    +0.200 C 
ATOM     27  O   UNL     1       2.426  -0.793  -3.348  0.00  0.00    -0.278 OA
ATOM     28  H   UNL     1       2.335   0.394  -0.501  0.00  0.00    +0.149 HD
BRANCH  25  29
ATOM     29  C   UNL     1       0.953  -1.098  -1.111  0.00  0.00    +0.070 C 
ATOM     30  C   UNL     1       1.481  -2.482  -0.727  0.00  0.00    +0.028 C 
BRANCH  29  32
ATOM     31  C   UNL     1      -0.621   0.732  -0.463  0.00  0.00    +0.005 C 
ATOM     32  C   UNL     1       0.003  -0.594  -0.023  0.00  0.00    +0.018 C 
ENDBRANCH  29  32
ENDBRANCH  25  29
ENDBRANCH   1  26
TORSDOF 5
