REMARK  Name = ZINC13553019
REMARK  13 active torsions:
REMARK  status: ('A' for Active; 'I' for Inactive)
REMARK    1  A    between atoms: C_1  and  C_2
REMARK    2  A    between atoms: C_8  and  C_29
REMARK    3  A    between atoms: C_11  and  C_12
REMARK    4  A    between atoms: C_11  and  O_24
REMARK    5  A    between atoms: C_13  and  C_23
REMARK    6  A    between atoms: C_14  and  C_19
REMARK    7  A    between atoms: C_15  and  C_18
REMARK    8  A    between atoms: C_19  and  O_21
REMARK    9  A    between atoms: O_21  and  C_22
REMARK   10  A    between atoms: C_33  and  O_35
REMARK   11  A    between atoms: O_35  and  C_36
REMARK   12  A    between atoms: C_36  and  C_37
REMARK   13  A    between atoms: C_36  and  C_38
REMARK                            x       y       z     vdW  Elec       q    Type
REMARK                         _______ _______ _______ _____ _____    ______ ____
ROOT
ATOM      1  C   UNL     1      -0.749   3.525   5.499  0.00  0.00    +0.089 C 
ATOM      2  C   UNL     1      -1.669   3.007   4.424  0.00  0.00    +0.136 A 
ATOM      3  C   UNL     1      -1.696   3.394   3.129  0.00  0.00    +0.091 A 
ATOM      4  C   UNL     1      -2.734   2.609   2.559  0.00  0.00    +0.172 A 
ATOM      5  N   UNL     1      -3.197   1.860   3.525  0.00  0.00    -0.063 NA
ATOM      6  O   UNL     1      -2.617   2.070   4.565  0.00  0.00    -0.358 OA
ATOM      7  N   UNL     1      -3.167   2.629   1.234  0.00  0.00    -0.235 N 
ATOM      8  C   UNL     1      -2.559   3.406   0.150  0.00  0.00    +0.151 C 
ATOM      9  C   UNL     1      -3.363   3.114  -1.095  0.00  0.00    +0.073 C 
ATOM     10  C   UNL     1      -3.151   3.630  -2.365  0.00  0.00    +0.149 C 
ATOM     11  C   UNL     1      -4.367   2.216  -0.709  0.00  0.00    +0.250 C 
ATOM     12  O   UNL     1      -5.221   1.743  -1.438  0.00  0.00    -0.282 OA
ATOM     13  C   UNL     1      -4.211   1.941   0.743  0.00  0.00    +0.293 C 
ATOM     14  O   UNL     1      -4.924   1.201   1.391  0.00  0.00    -0.266 OA
ENDROOT
BRANCH  10  15
ATOM     15  C   UNL     1      -4.101   3.346  -3.438  0.00  0.00    +0.086 A 
ATOM     16  C   UNL     1      -3.806   2.744  -4.642  0.00  0.00    -0.008 A 
ATOM     17  C   UNL     1      -5.014   2.666  -5.367  0.00  0.00    +0.083 A 
ATOM     18  C   UNL     1      -6.001   3.234  -4.580  0.00  0.00    +0.028 A 
ATOM     19  N   UNL     1      -5.448   3.639  -3.425  0.00  0.00    -0.355 N 
ATOM     20  H   UNL     1      -5.922   4.070  -2.697  0.00  0.00    +0.166 HD
ATOM     21  C   UNL     1      -7.454   3.373  -4.955  0.00  0.00    +0.064 C 
ATOM     22  C   UNL     1      -2.453   2.258  -5.096  0.00  0.00    +0.047 C 
BRANCH  17  23
ATOM     23  C   UNL     1      -5.192   2.094  -6.713  0.00  0.00    +0.341 C 
ATOM     24  O   UNL     1      -5.064   2.799  -7.695  0.00  0.00    -0.245 OA
BRANCH  23  25
ATOM     25  O   UNL     1      -5.495   0.789  -6.856  0.00  0.00    -0.464 OA
ATOM     26  C   UNL     1      -5.655   0.294  -8.212  0.00  0.00    +0.280 C 
ENDBRANCH  23  25
ENDBRANCH  17  23
ENDBRANCH  10  15
BRANCH   8  27
ATOM     27  C   UNL     1      -1.127   2.981  -0.049  0.00  0.00    -0.019 A 
ATOM     28  C   UNL     1      -0.779   1.647   0.067  0.00  0.00    +0.006 A 
ATOM     29  C   UNL     1       0.534   1.255  -0.110  0.00  0.00    +0.004 A 
ATOM     30  C   UNL     1       1.502   2.193  -0.414  0.00  0.00    +0.045 A 
ATOM     31  C   UNL     1       1.155   3.531  -0.536  0.00  0.00    +0.121 A 
ATOM     32  C   UNL     1      -0.163   3.923  -0.352  0.00  0.00    +0.051 A 
BRANCH  31  33
ATOM     33  O   UNL     1       2.105   4.455  -0.835  0.00  0.00    -0.489 OA
BRANCH  33  34
ATOM     34  C   UNL     1       3.445   3.983  -0.988  0.00  0.00    +0.167 C 
ATOM     35  C   UNL     1       4.232   4.958  -1.866  0.00  0.00    +0.051 C 
ATOM     36  C   UNL     1       4.110   3.884   0.386  0.00  0.00    +0.051 C 
ENDBRANCH  33  34
ENDBRANCH  31  33
ENDBRANCH   8  27
BRANCH  10  37
ATOM     37  O   UNL     1      -2.064   4.396  -2.609  0.00  0.00    -0.504 OA
ATOM     38  H   UNL     1      -2.067   4.682  -3.567  0.00  0.00    +0.292 HD
ENDBRANCH  10  37
TORSDOF 7
