REMARK  Name = ZINC40153774
REMARK  5 active torsions:
REMARK  status: ('A' for Active; 'I' for Inactive)
REMARK    1  A    between atoms: C_1  and  C_2
REMARK    2  A    between atoms: C_4  and  C_31
REMARK    3  A    between atoms: C_6  and  C_8
REMARK    4  A    between atoms: C_14  and  C_17
REMARK    5  A    between atoms: N_19  and  C_20
REMARK                            x       y       z     vdW  Elec       q    Type
REMARK                         _______ _______ _______ _____ _____    ______ ____
ROOT
ATOM      1  C   UNL     1       0.015  -2.875   2.443  0.00  0.00    +0.247 C 
ATOM      2  O   UNL     1      -0.104  -4.085   2.438  0.00  0.00    -0.270 OA
ATOM      3  N   UNL     1       0.154  -2.216   3.611  0.00  0.00    -0.297 N 
ATOM      4  C   UNL     1       0.176  -0.747   3.643  0.00  0.00    +0.108 C 
ATOM      5  C   UNL     1      -0.882  -0.260   4.639  0.00  0.00    +0.020 C 
ATOM      6  C   UNL     1      -0.641  -0.923   5.997  0.00  0.00    +0.016 C 
ATOM      7  C   UNL     1      -0.772  -2.441   5.857  0.00  0.00    +0.093 C 
ATOM      8  C   UNL     1       0.280  -2.952   4.876  0.00  0.00    +0.120 C 
ENDROOT
BRANCH   1  14
ATOM      9  C   UNL     1       1.593   0.974  -0.313  0.00  0.00    +0.044 C 
ATOM     10  C   UNL     1       0.764  -0.275  -0.162  0.00  0.00    -0.049 A 
ATOM     11  C   UNL     1      -0.007  -0.724  -1.220  0.00  0.00    +0.006 A 
ATOM     12  C   UNL     1      -0.771  -1.870  -1.089  0.00  0.00    -0.049 A 
ATOM     13  C   UNL     1      -0.768  -2.574   0.097  0.00  0.00    +0.016 A 
ATOM     14  C   UNL     1       0.008  -2.126   1.168  0.00  0.00    +0.037 A 
ATOM     15  C   UNL     1       0.780  -0.972   1.028  0.00  0.00    +0.016 A 
ATOM     16  C   UNL     1      -1.608  -2.352  -2.247  0.00  0.00    +0.044 C 
ENDBRANCH   1  14
BRANCH   7  17
ATOM     17  C   UNL     1      -0.568  -3.090   7.201  0.00  0.00    +0.222 C 
ATOM     18  O   UNL     1      -0.339  -2.406   8.177  0.00  0.00    -0.275 OA
ATOM     19  N   UNL     1      -0.639  -4.431   7.320  0.00  0.00    -0.285 N 
ATOM     20  H   UNL     1      -0.746  -4.983   6.530  0.00  0.00    +0.155 HD
BRANCH  19  21
ATOM     21  C   UNL     1      -0.557  -5.027   8.585  0.00  0.00    +0.036 A 
ATOM     22  C   UNL     1      -0.070  -6.323   8.712  0.00  0.00    +0.027 A 
ATOM     23  C   UNL     1       0.013  -6.915   9.956  0.00  0.00    +0.050 A 
ATOM     24  C   UNL     1      -0.389  -6.218  11.085  0.00  0.00    +0.157 A 
ATOM     25  C   UNL     1      -0.877  -4.917  10.960  0.00  0.00    +0.089 A 
ATOM     26  C   UNL     1      -0.956  -4.322   9.711  0.00  0.00    +0.052 A 
ATOM     27  N   UNL     1      -1.196  -4.486  12.247  0.00  0.00    -0.288 N 
ATOM     28  H   UNL     1      -1.560  -3.619  12.488  0.00  0.00    +0.172 HD
ATOM     29  C   UNL     1      -0.906  -5.492  13.095  0.00  0.00    +0.419 A 
ATOM     30  O   UNL     1      -1.061  -5.460  14.301  0.00  0.00    -0.223 OA
ATOM     31  O   UNL     1      -0.422  -6.535  12.403  0.00  0.00    -0.408 OA
ENDBRANCH  19  21
ENDBRANCH   7  17
TORSDOF 3
