REMARK  Name = ZINC00814251
REMARK  5 active torsions:
REMARK  status: ('A' for Active; 'I' for Inactive)
REMARK    1  A    between atoms: C_1  and  C_2
REMARK    2  A    between atoms: C_7  and  C_8
REMARK    3  A    between atoms: C_12  and  C_15
REMARK    4  A    between atoms: C_15  and  C_16
REMARK    5  A    between atoms: N_18  and  C_19
REMARK                            x       y       z     vdW  Elec       q    Type
REMARK                         _______ _______ _______ _____ _____    ______ ____
ROOT
ATOM      1  C   UNL     1       4.727   6.378   5.798  0.00  0.00    +0.044 C 
ATOM      2  C   UNL     1       5.220   6.528   4.381  0.00  0.00    -0.046 A 
ATOM      3  C   UNL     1       4.365   6.277   3.322  0.00  0.00    +0.028 A 
ATOM      4  C   UNL     1       4.822   6.412   2.024  0.00  0.00    +0.049 A 
ATOM      5  C   UNL     1       6.145   6.787   1.781  0.00  0.00    +0.055 A 
ATOM      6  C   UNL     1       6.990   7.048   2.847  0.00  0.00    +0.028 A 
ATOM      7  C   UNL     1       6.526   6.915   4.144  0.00  0.00    -0.046 A 
ATOM      8  C   UNL     1       7.448   7.194   5.302  0.00  0.00    +0.044 C 
ATOM      9  N   UNL     1       6.599   6.912   0.463  0.00  0.00    -0.282 N 
ATOM     10  C   UNL     1       5.850   6.484  -0.569  0.00  0.00    +0.238 C 
ATOM     11  O   UNL     1       6.211   6.708  -1.706  0.00  0.00    -0.273 OA
ATOM     12  C   UNL     1       4.567   5.730  -0.329  0.00  0.00    +0.166 C 
ATOM     13  N   UNL     1       3.968   6.190   0.932  0.00  0.00    -0.331 N 
ATOM     14  H   UNL     1       7.466   7.312   0.291  0.00  0.00    +0.155 HD
ATOM     15  H   UNL     1       3.012   6.336   1.006  0.00  0.00    +0.147 HD
ENDROOT
BRANCH  12  16
ATOM     16  C   UNL     1       4.864   4.231  -0.238  0.00  0.00    +0.127 C 
BRANCH  16  17
ATOM     17  C   UNL     1       3.569   3.470  -0.116  0.00  0.00    +0.219 C 
ATOM     18  O   UNL     1       2.513   4.066  -0.103  0.00  0.00    -0.275 OA
ATOM     19  N   UNL     1       3.585   2.125  -0.021  0.00  0.00    -0.285 N 
ATOM     20  H   UNL     1       4.430   1.653   0.046  0.00  0.00    +0.155 HD
BRANCH  19  21
ATOM     21  C   UNL     1       2.382   1.410  -0.019  0.00  0.00    +0.036 A 
ATOM     22  C   UNL     1       2.270   0.239   0.719  0.00  0.00    +0.043 A 
ATOM     23  C   UNL     1       1.081  -0.465   0.720  0.00  0.00    +0.044 A 
ATOM     24  C   UNL     1       0.003  -0.005  -0.016  0.00  0.00    +0.040 A 
ATOM     25  C   UNL     1       0.112   1.160  -0.754  0.00  0.00    +0.044 A 
ATOM     26  C   UNL     1       1.299   1.869  -0.757  0.00  0.00    +0.043 A 
ATOM     27 CL   UNL     1      -1.243   1.733  -1.676  0.00  0.00    -0.083 Cl
ATOM     28 CL   UNL     1       0.938  -1.924   1.649  0.00  0.00    -0.083 Cl
ENDBRANCH  19  21
ENDBRANCH  16  17
ENDBRANCH  12  16
TORSDOF 3
