REMARK  Name = ZINC04317070
REMARK  5 active torsions:
REMARK  status: ('A' for Active; 'I' for Inactive)
REMARK    1  A    between atoms: C_4  and  N_10
REMARK    2  A    between atoms: C_6  and  N_7
REMARK    3  A    between atoms: C_11  and  C_13
REMARK    4  A    between atoms: C_13  and  O_14
REMARK    5  A    between atoms: O_14  and  C_15
REMARK                            x       y       z     vdW  Elec       q    Type
REMARK                         _______ _______ _______ _____ _____    ______ ____
ROOT
ATOM      1  N   UNL     1       1.165   3.488   0.009  0.00  0.00    -0.280 N 
ATOM      2  C   UNL     1       2.322   4.174   0.104  0.00  0.00    +0.255 C 
ATOM      3  O   UNL     1       3.381   3.581   0.091  0.00  0.00    -0.272 OA
ATOM      4  H   UNL     1       0.324   3.965  -0.061  0.00  0.00    +0.155 HD
ENDROOT
BRANCH   1   8
ATOM      5  C   UNL     1       1.206  -0.680   0.021  0.00  0.00    +0.035 A 
ATOM      6  C   UNL     1       0.156  -0.004  -0.573  0.00  0.00    +0.042 A 
ATOM      7  C   UNL     1       0.139   1.379  -0.579  0.00  0.00    +0.145 A 
ATOM      8  C   UNL     1       1.179   2.088   0.013  0.00  0.00    +0.071 A 
ATOM      9  C   UNL     1       2.230   1.404   0.607  0.00  0.00    +0.059 A 
ATOM     10  C   UNL     1       2.241   0.022   0.609  0.00  0.00    +0.128 A 
ATOM     11  F   UNL     1      -0.884   2.040  -1.164  0.00  0.00    -0.204 F 
BRANCH  10  12
ATOM     12  N   UNL     1       3.363  -0.707   1.243  0.00  0.00    +0.056 N 
ATOM     13  O   UNL     1       3.374  -1.925   1.245  0.00  0.00    -0.126 OA
ATOM     14  O   UNL     1       4.275  -0.089   1.762  0.00  0.00    -0.126 OA
ENDBRANCH  10  12
ENDBRANCH   1   8
BRANCH   2  15
ATOM     15  C   UNL     1       2.300   5.676   0.225  0.00  0.00    +0.325 C 
BRANCH  15  16
ATOM     16  O   UNL     1       3.640   6.166   0.309  0.00  0.00    -0.481 OA
BRANCH  16  17
ATOM     17  C   UNL     1       3.798   7.511   0.424  0.00  0.00    +0.141 A 
ATOM     18  C   UNL     1       2.688   8.342   0.449  0.00  0.00    +0.067 A 
ATOM     19  C   UNL     1       2.852   9.709   0.570  0.00  0.00    +0.045 A 
ATOM     20  C   UNL     1       4.122  10.250   0.657  0.00  0.00    +0.021 A 
ATOM     21  C   UNL     1       5.231   9.425   0.627  0.00  0.00    +0.025 A 
ATOM     22  C   UNL     1       5.072   8.056   0.511  0.00  0.00    +0.083 A 
ATOM     23 CL   UNL     1       6.465   7.020   0.475  0.00  0.00    -0.080 Cl
ATOM     24 CL   UNL     1       1.462  10.749   0.607  0.00  0.00    -0.083 Cl
ENDBRANCH  16  17
ENDBRANCH  15  16
ENDBRANCH   2  15
TORSDOF 5
