REMARK  Name = ZINC40621391
REMARK  8 active torsions:
REMARK  status: ('A' for Active; 'I' for Inactive)
REMARK    1  A    between atoms: C_1  and  C_2
REMARK    2  A    between atoms: C_2  and  C_3
REMARK    3  A    between atoms: C_2  and  N_4
REMARK    4  A    between atoms: C_7  and  C_10
REMARK    5  A    between atoms: C_10  and  N_11
REMARK    6  A    between atoms: N_11  and  S_12
REMARK    7  A    between atoms: S_12  and  C_15
REMARK    8  A    between atoms: C_20  and  N_21
REMARK                            x       y       z     vdW  Elec       q    Type
REMARK                         _______ _______ _______ _____ _____    ______ ____
ROOT
ATOM      1  S   UNL     1      -4.362  -5.247  -2.875  0.00  0.00    +0.060 S 
ATOM      2  O   UNL     1      -5.709  -5.309  -3.326  0.00  0.00    -0.153 OA
ATOM      3  O   UNL     1      -3.275  -5.003  -3.756  0.00  0.00    -0.153 OA
ENDROOT
BRANCH   1   4
ATOM      4  C   UNL     1      -4.027  -6.782  -2.076  0.00  0.00    +0.127 A 
ATOM      5  C   UNL     1      -2.894  -7.499  -2.404  0.00  0.00    +0.050 A 
ATOM      6  C   UNL     1      -2.630  -8.704  -1.776  0.00  0.00    +0.043 A 
ATOM      7  C   UNL     1      -3.501  -9.193  -0.819  0.00  0.00    +0.022 A 
ATOM      8  C   UNL     1      -4.636  -8.480  -0.487  0.00  0.00    +0.026 A 
ATOM      9  C   UNL     1      -4.900  -7.268  -1.111  0.00  0.00    +0.051 A 
ATOM     10 CL   UNL     1      -1.204  -9.603  -2.191  0.00  0.00    -0.083 Cl
BRANCH   9  11
ATOM     11  N   UNL     1      -6.045  -6.541  -0.773  0.00  0.00    -0.356 N 
ATOM     12  H   UNL     1      -6.185  -5.656  -1.144  0.00  0.00    +0.142 HD
ATOM     13  H   UNL     1      -6.700  -6.921  -0.167  0.00  0.00    +0.142 HD
ENDBRANCH   9  11
ENDBRANCH   1   4
BRANCH   1  14
ATOM     14  N   UNL     1      -4.306  -4.068  -1.714  0.00  0.00    -0.190 NA
ATOM     15  H   UNL     1      -5.106  -3.568  -1.491  0.00  0.00    +0.148 HD
BRANCH  14  16
ATOM     16  C   UNL     1      -3.046  -3.779  -1.025  0.00  0.00    +0.107 C 
BRANCH  16  20
ATOM     17  N   UNL     1      -1.876  -0.613   0.539  0.00  0.00    +0.381 N 
ATOM     18  C   UNL     1      -2.428  -0.135  -0.747  0.00  0.00    -0.078 C 
ATOM     19  C   UNL     1      -3.284  -1.277  -1.325  0.00  0.00    -0.016 C 
ATOM     20  C   UNL     1      -3.155  -2.433  -0.306  0.00  0.00    -0.014 C 
ATOM     21  C   UNL     1      -1.838  -2.095   0.437  0.00  0.00    -0.074 C 
ATOM     22  H   UNL     1      -2.474  -0.332   1.301  0.00  0.00    -0.081 HD
BRANCH  17  24
ATOM     23  C   UNL     1      -0.577   1.441   0.839  0.00  0.00    -0.014 C 
ATOM     24  C   UNL     1      -0.519  -0.084   0.736  0.00  0.00    -0.075 C 
ATOM     25  C   UNL     1       0.070  -0.660   2.025  0.00  0.00    -0.014 C 
ENDBRANCH  17  24
ENDBRANCH  16  20
ENDBRANCH  14  16
ENDBRANCH   1  14
TORSDOF 6
