REMARK  Name = ZINC04044111
REMARK  5 active torsions:
REMARK  status: ('A' for Active; 'I' for Inactive)
REMARK    1  A    between atoms: C_1  and  C_2
REMARK    2  A    between atoms: C_9  and  C_20
REMARK    3  A    between atoms: C_10  and  C_17
REMARK    4  A    between atoms: C_15  and  C_16
REMARK    5  A    between atoms: C_17  and  C_18
REMARK                            x       y       z     vdW  Elec       q    Type
REMARK                         _______ _______ _______ _____ _____    ______ ____
ROOT
ATOM      1  C   UNL     1      -6.407  -2.467  -4.695  0.00  0.00    +0.047 C 
ATOM      2  C   UNL     1      -6.512  -2.575  -3.196  0.00  0.00    -0.005 A 
ATOM      3  C   UNL     1      -7.369  -3.333  -2.502  0.00  0.00    +0.199 A 
ATOM      4  O   UNL     1      -7.170  -3.172  -1.181  0.00  0.00    -0.462 OA
ATOM      5  C   UNL     1      -6.170  -2.298  -0.947  0.00  0.00    +0.141 A 
ATOM      6  C   UNL     1      -5.693  -1.867  -2.201  0.00  0.00    +0.024 A 
ATOM      7  C   UNL     1      -4.652  -0.953  -2.282  0.00  0.00    +0.023 A 
ATOM      8  C   UNL     1      -4.079  -0.465  -1.107  0.00  0.00    +0.022 A 
ATOM      9  C   UNL     1      -2.982   0.506  -1.155  0.00  0.00    -0.029 A 
ATOM     10  C   UNL     1      -2.462   0.945   0.019  0.00  0.00    +0.051 A 
ATOM     11  C   UNL     1      -2.987   0.471   1.240  0.00  0.00    +0.341 A 
ATOM     12  O   UNL     1      -2.514   0.877   2.286  0.00  0.00    -0.245 OA
ATOM     13  O   UNL     1      -3.995  -0.413   1.279  0.00  0.00    -0.422 OA
ATOM     14  C   UNL     1      -4.557  -0.896   0.148  0.00  0.00    +0.146 A 
ATOM     15  C   UNL     1      -5.596  -1.807   0.217  0.00  0.00    +0.035 A 
ATOM     16  C   UNL     1      -6.105  -2.267   1.559  0.00  0.00    +0.051 C 
ATOM     17  C   UNL     1      -2.443   1.001  -2.473  0.00  0.00    +0.045 C 
ENDROOT
BRANCH  10  18
ATOM     18  C   UNL     1      -1.329   1.940   0.019  0.00  0.00    +0.167 C 
BRANCH  18  19
ATOM     19  C   UNL     1      -0.014   1.204   0.009  0.00  0.00    +0.360 C 
ATOM     20  O   UNL     1       0.002  -0.004   0.002  0.00  0.00    -0.246 OA
ATOM     21  O   UNL     1       1.139   1.891   0.001  0.00  0.00    -0.246 OA
ENDBRANCH  18  19
ENDBRANCH  10  18
TORSDOF 2
