REMARK  Name = ZINC51751661
REMARK  6 active torsions:
REMARK  status: ('A' for Active; 'I' for Inactive)
REMARK    1  A    between atoms: C_1  and  C_2
REMARK    2  A    between atoms: N_6  and  S_11
REMARK    3  A    between atoms: C_7  and  C_10
REMARK    4  A    between atoms: S_11  and  C_14
REMARK    5  A    between atoms: C_17  and  N_23
REMARK    6  A    between atoms: C_19  and  N_20
REMARK                            x       y       z     vdW  Elec       q    Type
REMARK                         _______ _______ _______ _____ _____    ______ ____
ROOT
ATOM      1  C   UNL     1       3.992  -2.615  -0.450  0.00  0.00    +0.136 A 
ATOM      2  C   UNL     1       4.003  -1.272  -0.122  0.00  0.00    +0.032 A 
ATOM      3  C   UNL     1       5.202  -0.601   0.009  0.00  0.00    +0.025 A 
ATOM      4  C   UNL     1       6.400  -1.277  -0.189  0.00  0.00    +0.027 A 
ATOM      5  C   UNL     1       6.386  -2.626  -0.518  0.00  0.00    +0.057 A 
ATOM      6  C   UNL     1       5.182  -3.292  -0.643  0.00  0.00    +0.154 A 
ENDROOT
BRANCH   1   7
ATOM      7  S   UNL     1       2.459  -3.468  -0.616  0.00  0.00    +0.063 S 
ATOM      8  O   UNL     1       2.271  -4.203   0.586  0.00  0.00    -0.153 OA
ATOM      9  O   UNL     1       2.475  -4.088  -1.894  0.00  0.00    -0.153 OA
BRANCH   7  14
ATOM     10  C   UNL     1       0.127   1.759  -0.264  0.00  0.00    +0.007 C 
ATOM     11  C   UNL     1       0.092   0.247  -0.492  0.00  0.00    -0.011 C 
ATOM     12  C   UNL     1       1.008  -0.113  -1.665  0.00  0.00    +0.020 C 
ATOM     13  C   UNL     1       0.944  -1.623  -1.913  0.00  0.00    +0.110 C 
ATOM     14  N   UNL     1       1.264  -2.322  -0.661  0.00  0.00    -0.174 NA
ATOM     15  C   UNL     1       0.504  -1.985   0.551  0.00  0.00    +0.077 C 
ATOM     16  C   UNL     1       0.573  -0.471   0.771  0.00  0.00    +0.023 C 
ATOM     17  C   UNL     1      -0.954  -2.416   0.377  0.00  0.00    +0.026 C 
ENDBRANCH   7  14
ENDBRANCH   1   7
BRANCH   6  18
ATOM     18  N   UNL     1       5.166  -4.732  -0.988  0.00  0.00    +0.058 N 
ATOM     19  O   UNL     1       6.194  -5.292  -1.290  0.00  0.00    -0.126 OA
ATOM     20  O   UNL     1       4.126  -5.347  -0.967  0.00  0.00    -0.126 OA
ENDBRANCH   6  18
BRANCH   4  21
ATOM     21  N   UNL     1       7.615  -0.601  -0.058  0.00  0.00    -0.358 N 
ATOM     22  H   UNL     1       7.624   0.341   0.172  0.00  0.00    +0.142 HD
ATOM     23  H   UNL     1       8.450  -1.074  -0.196  0.00  0.00    +0.142 HD
ENDBRANCH   4  21
TORSDOF 4
