REMARK  Name = ZINC09155815
REMARK  7 active torsions:
REMARK  status: ('A' for Active; 'I' for Inactive)
REMARK    1  A    between atoms: C_1  and  C_2
REMARK    2  A    between atoms: C_6  and  C_16
REMARK    3  A    between atoms: N_8  and  C_9
REMARK    4  A    between atoms: N_18  and  C_19
REMARK    5  A    between atoms: C_19  and  C_21
REMARK    6  A    between atoms: C_19  and  C_22
REMARK    7  A    between atoms: C_25  and  N_28
REMARK                            x       y       z     vdW  Elec       q    Type
REMARK                         _______ _______ _______ _____ _____    ______ ____
ROOT
ATOM      1  C   UNL     1       0.794  -4.097   0.183  0.00  0.00    +0.268 C 
ATOM      2  O   UNL     1       0.726  -4.791  -0.813  0.00  0.00    -0.268 OA
ATOM      3  N   UNL     1       1.233  -4.625   1.343  0.00  0.00    -0.303 N 
ATOM      4  H   UNL     1       1.288  -4.071   2.138  0.00  0.00    +0.150 HD
ENDROOT
BRANCH   1  10
ATOM      5  C   UNL     1      -0.704   1.408   0.130  0.00  0.00    +0.066 C 
ATOM      6  C   UNL     1      -0.329  -0.050   0.060  0.00  0.00    +0.044 A 
ATOM      7  C   UNL     1      -0.455  -0.717  -1.112  0.00  0.00    +0.076 A 
ATOM      8  C   UNL     1      -0.087  -2.087  -1.137  0.00  0.00    +0.213 A 
ATOM      9  O   UNL     1      -0.170  -2.750  -2.159  0.00  0.00    -0.285 OA
ATOM     10  C   UNL     1       0.395  -2.677   0.122  0.00  0.00    +0.192 A 
ATOM     11  N   UNL     1       0.464  -1.914   1.193  0.00  0.00    -0.158 NA
ATOM     12  N   UNL     1       0.125  -0.678   1.172  0.00  0.00    -0.236 N 
BRANCH  12  13
ATOM     13  C   UNL     1       0.229   0.059   2.356  0.00  0.00    +0.066 A 
ATOM     14  C   UNL     1       0.819   1.317   2.343  0.00  0.00    +0.029 A 
ATOM     15  C   UNL     1       0.916   2.045   3.512  0.00  0.00    +0.022 A 
ATOM     16  C   UNL     1       0.436   1.518   4.699  0.00  0.00    +0.041 A 
ATOM     17  C   UNL     1      -0.147   0.263   4.716  0.00  0.00    +0.022 A 
ATOM     18  C   UNL     1      -0.252  -0.467   3.548  0.00  0.00    +0.029 A 
ATOM     19 CL   UNL     1       0.566   2.433   6.168  0.00  0.00    -0.084 Cl
ENDBRANCH  12  13
ENDBRANCH   1  10
BRANCH   3  20
ATOM     20  C   UNL     1       1.629  -6.034   1.404  0.00  0.00    +0.100 C 
ATOM     21  C   UNL     1       0.392  -6.901   1.649  0.00  0.00    +0.033 C 
BRANCH  20  22
ATOM     22  C   UNL     1       2.612  -6.232   2.529  0.00  0.00    -0.027 A 
ATOM     23  C   UNL     1       2.431  -5.566   3.728  0.00  0.00    +0.007 A 
ATOM     24  C   UNL     1       3.327  -5.750   4.763  0.00  0.00    +0.028 A 
ATOM     25  C   UNL     1       4.416  -6.594   4.595  0.00  0.00    +0.067 A 
ATOM     26  C   UNL     1       4.598  -7.256   3.389  0.00  0.00    +0.028 A 
ATOM     27  C   UNL     1       3.695  -7.073   2.359  0.00  0.00    +0.007 A 
BRANCH  25  28
ATOM     28  N   UNL     1       5.330  -6.778   5.642  0.00  0.00    -0.220 N 
ATOM     29  C   UNL     1       5.289  -6.204   6.860  0.00  0.00    +0.225 A 
ATOM     30  N   UNL     1       6.318  -6.635   7.545  0.00  0.00    -0.222 NA
ATOM     31  C   UNL     1       7.038  -7.473   6.801  0.00  0.00    +0.245 A 
ATOM     32  N   UNL     1       6.474  -7.593   5.628  0.00  0.00    -0.154 NA
ENDBRANCH  25  28
ENDBRANCH  20  22
ENDBRANCH   3  20
TORSDOF 5
