REMARK  Name = ZINC45166468
REMARK  5 active torsions:
REMARK  status: ('A' for Active; 'I' for Inactive)
REMARK    1  A    between atoms: C_1  and  C_2
REMARK    2  A    between atoms: C_6  and  C_21
REMARK    3  A    between atoms: N_9  and  S_10
REMARK    4  A    between atoms: S_10  and  C_13
REMARK    5  A    between atoms: C_14  and  N_20
REMARK                            x       y       z     vdW  Elec       q    Type
REMARK                         _______ _______ _______ _____ _____    ______ ____
ROOT
ATOM      1  S   UNL     1       1.532   0.562   1.941  0.00  0.00    +0.064 S 
ATOM      2  O   UNL     1       0.742   1.496   2.664  0.00  0.00    -0.153 OA
ATOM      3  O   UNL     1       2.312  -0.436   2.585  0.00  0.00    -0.153 OA
ENDROOT
BRANCH   1  10
ATOM      4  C   UNL     1      -0.817   1.831   0.999  0.00  0.00    +0.026 C 
ATOM      5  C   UNL     1      -0.670   0.452   0.354  0.00  0.00    +0.077 C 
ATOM      6  C   UNL     1      -1.918  -0.387   0.647  0.00  0.00    +0.021 C 
ATOM      7  C   UNL     1      -1.707  -1.808   0.119  0.00  0.00    +0.015 C 
ATOM      8  C   UNL     1      -0.515  -2.449   0.835  0.00  0.00    +0.090 C 
ATOM      9  C   UNL     1       0.748  -1.633   0.544  0.00  0.00    +0.122 C 
ATOM     10  N   UNL     1       0.505  -0.231   0.913  0.00  0.00    -0.173 NA
BRANCH   8  11
ATOM     11  C   UNL     1      -0.329  -3.860   0.339  0.00  0.00    +0.215 C 
ATOM     12  O   UNL     1       0.712  -4.183  -0.193  0.00  0.00    -0.276 OA
ATOM     13  N   UNL     1      -1.320  -4.762   0.485  0.00  0.00    -0.329 N 
ATOM     14  H   UNL     1      -2.152  -4.503   0.911  0.00  0.00    +0.145 HD
ATOM     15  H   UNL     1      -1.200  -5.670   0.166  0.00  0.00    +0.145 HD
ENDBRANCH   8  11
ENDBRANCH   1  10
BRANCH   1  16
ATOM     16  C   UNL     1       2.640   1.504   0.947  0.00  0.00    +0.144 A 
ATOM     17  C   UNL     1       3.571   0.860   0.141  0.00  0.00    +0.053 A 
ATOM     18  C   UNL     1       4.443   1.606  -0.641  0.00  0.00    +0.025 A 
ATOM     19  C   UNL     1       4.383   2.986  -0.617  0.00  0.00    +0.003 A 
ATOM     20  C   UNL     1       3.456   3.625   0.186  0.00  0.00    +0.022 A 
ATOM     21  C   UNL     1       2.581   2.885   0.963  0.00  0.00    +0.069 A 
ATOM     22 CL   UNL     1       1.414   3.691   1.963  0.00  0.00    -0.081 Cl
BRANCH  17  23
ATOM     23  N   UNL     1       3.630  -0.536   0.118  0.00  0.00    -0.356 N 
ATOM     24  H   UNL     1       3.114  -1.053   0.757  0.00  0.00    +0.142 HD
ATOM     25  H   UNL     1       4.186  -0.987  -0.535  0.00  0.00    +0.142 HD
ENDBRANCH  17  23
ENDBRANCH   1  16
TORSDOF 4
