REMARK  Name = ZINC29811683
REMARK  8 active torsions:
REMARK  status: ('A' for Active; 'I' for Inactive)
REMARK    1  A    between atoms: C_1  and  C_2
REMARK    2  A    between atoms: C_8  and  C_10
REMARK    3  A    between atoms: C_10  and  C_12
REMARK    4  A    between atoms: C_10  and  N_13
REMARK    5  A    between atoms: N_13  and  C_14
REMARK    6  A    between atoms: C_17  and  N_20
REMARK    7  A    between atoms: N_23  and  C_24
REMARK    8  A    between atoms: C_24  and  C_25
REMARK                            x       y       z     vdW  Elec       q    Type
REMARK                         _______ _______ _______ _____ _____    ______ ____
ROOT
ATOM      1  C   UNL     1      -1.826   0.872  -1.678  0.00  0.00    +0.028 A 
ATOM      2  C   UNL     1      -2.123  -0.386  -1.169  0.00  0.00    +0.025 A 
ATOM      3  C   UNL     1      -3.201  -1.093  -1.663  0.00  0.00    +0.025 A 
ATOM      4  C   UNL     1      -3.980  -0.553  -2.678  0.00  0.00    +0.035 A 
ATOM      5  C   UNL     1      -3.679   0.702  -3.191  0.00  0.00    +0.025 A 
ATOM      6  C   UNL     1      -2.605   1.412  -2.692  0.00  0.00    +0.025 A 
ENDROOT
BRANCH   4   7
ATOM      7  N   UNL     1      -5.071  -1.274  -3.183  0.00  0.00    -0.269 N 
ATOM      8  C   UNL     1      -5.408  -1.162  -4.483  0.00  0.00    +0.304 C 
ATOM      9  O   UNL     1      -4.710  -0.514  -5.239  0.00  0.00    -0.253 OA
ATOM     10  N   UNL     1      -6.519  -1.770  -4.946  0.00  0.00    -0.296 N 
ATOM     11  H   UNL     1      -5.652  -1.930  -2.519  0.00  0.00    +0.156 HD
ATOM     12  H   UNL     1      -7.150  -2.356  -4.263  0.00  0.00    +0.151 HD
BRANCH  10  13
ATOM     13  C   UNL     1      -6.885  -1.648  -6.359  0.00  0.00    +0.132 C 
BRANCH  13  14
ATOM     14  C   UNL     1      -8.158  -2.414  -6.616  0.00  0.00    -0.016 C 
ATOM     15  C   UNL     1      -9.186  -1.812  -7.160  0.00  0.00    +0.005 C 
ENDBRANCH  13  14
ENDBRANCH  10  13
ENDBRANCH   4   7
BRANCH   1  16
ATOM     16  N   UNL     1      -0.737   1.591  -1.173  0.00  0.00    -0.333 N 
ATOM     17  H   UNL     1      -0.499   2.585  -1.579  0.00  0.00    +0.147 HD
BRANCH  16  18
ATOM     18  C   UNL     1       0.085   1.021  -0.103  0.00  0.00    +0.154 C 
ATOM     19  C   UNL     1      -0.558   1.326   1.252  0.00  0.00    +0.038 C 
BRANCH  18  27
ATOM     20  C   UNL     1       6.412   3.936  -0.490  0.00  0.00    +0.089 C 
ATOM     21  C   UNL     1       5.429   2.990   0.151  0.00  0.00    +0.136 A 
ATOM     22  C   UNL     1       4.146   2.782  -0.223  0.00  0.00    +0.091 A 
ATOM     23  C   UNL     1       3.675   1.810   0.698  0.00  0.00    +0.168 A 
ATOM     24  N   UNL     1       4.675   1.549   1.498  0.00  0.00    -0.063 NA
ATOM     25  O   UNL     1       5.656   2.192   1.204  0.00  0.00    -0.358 OA
ATOM     26  N   UNL     1       2.398   1.249   0.744  0.00  0.00    -0.266 N 
ATOM     27  C   UNL     1       1.464   1.626  -0.152  0.00  0.00    +0.238 C 
ATOM     28  O   UNL     1       1.734   2.453  -0.998  0.00  0.00    -0.273 OA
ATOM     29  H   UNL     1       2.153   0.500   1.511  0.00  0.00    +0.156 HD
ENDBRANCH  18  27
ENDBRANCH  16  18
ENDBRANCH   1  16
TORSDOF 6
