REMARK  Name = ZINC12976051
REMARK  5 active torsions:
REMARK  status: ('A' for Active; 'I' for Inactive)
REMARK    1  A    between atoms: C_1  and  N_2
REMARK    2  A    between atoms: C_3  and  C_5
REMARK    3  A    between atoms: C_5  and  N_6
REMARK    4  A    between atoms: C_7  and  C_9
REMARK    5  A    between atoms: C_9  and  C_14
REMARK                            x       y       z     vdW  Elec       q    Type
REMARK                         _______ _______ _______ _____ _____    ______ ____
ROOT
ATOM      1  C   UNL     1      -0.783   1.618  -1.225  0.00  0.00    +0.072 C 
ATOM      2  C   UNL     1      -0.056   1.346   0.104  0.00  0.00    +0.021 C 
ATOM      3  C   UNL     1      -0.935   1.949   1.220  0.00  0.00    +0.001 C 
ATOM      4  C   UNL     1      -1.773   3.033   0.497  0.00  0.00    +0.001 C 
ATOM      5  C   UNL     1      -2.079   2.375  -0.871  0.00  0.00    +0.021 C 
ENDROOT
BRANCH   1   6
ATOM      6  C   UNL     1      -1.115   0.316  -1.907  0.00  0.00    -0.032 A 
ATOM      7  C   UNL     1      -2.010  -0.561  -1.322  0.00  0.00    +0.006 A 
ATOM      8  C   UNL     1      -2.320  -1.753  -1.950  0.00  0.00    +0.020 A 
ATOM      9  C   UNL     1      -1.726  -2.074  -3.157  0.00  0.00    +0.041 A 
ATOM     10  C   UNL     1      -0.826  -1.198  -3.739  0.00  0.00    +0.020 A 
ATOM     11  C   UNL     1      -0.521  -0.004  -3.113  0.00  0.00    +0.006 A 
ATOM     12 CL   UNL     1      -2.110  -3.574  -3.943  0.00  0.00    -0.084 Cl
ENDBRANCH   1   6
BRANCH   1  14
ATOM     13  N   UNL     1      -0.406   2.922  -3.292  0.00  0.00    -0.306 N 
ATOM     14  C   UNL     1       0.082   2.465  -2.122  0.00  0.00    +0.224 C 
ATOM     15  O   UNL     1       1.217   2.735  -1.792  0.00  0.00    -0.275 OA
ATOM     16  H   UNL     1      -1.335   2.766  -3.525  0.00  0.00    +0.149 HD
BRANCH  13  17
ATOM     17  C   UNL     1       0.465   3.655  -4.214  0.00  0.00    +0.200 C 
BRANCH  17  20
ATOM     18  C   UNL     1      -0.479   5.127  -7.619  0.00  0.00    +0.128 C 
ATOM     19  N   UNL     1       0.283   4.741  -6.429  0.00  0.00    -0.317 N 
ATOM     20  C   UNL     1      -0.318   4.052  -5.438  0.00  0.00    +0.230 C 
ATOM     21  O   UNL     1      -1.490   3.753  -5.532  0.00  0.00    -0.274 OA
ATOM     22  H   UNL     1       1.220   4.980  -6.354  0.00  0.00    +0.148 HD
ENDBRANCH  17  20
ENDBRANCH  13  17
ENDBRANCH   1  14
TORSDOF 4
