REMARK  Name = ZINC13650757
REMARK  6 active torsions:
REMARK  status: ('A' for Active; 'I' for Inactive)
REMARK    1  A    between atoms: C_2  and  C_3
REMARK    2  A    between atoms: C_3  and  N_4
REMARK    3  A    between atoms: C_14  and  N_71
REMARK    4  A    between atoms: C_17  and  N_71
REMARK    5  A    between atoms: N_34  and  C_35
REMARK    6  A    between atoms: C_35  and  C_36
REMARK                            x       y       z     vdW  Elec       q    Type
REMARK                         _______ _______ _______ _____ _____    ______ ____
ROOT
ATOM      1  N   UNL     1      -2.638  -8.290   8.031  0.00  0.00    -0.310 N 
ATOM      2  C   UNL     1      -1.385  -8.031   7.513  0.00  0.00    +0.221 A 
ATOM      3  N   UNL     1      -0.299  -8.363   8.203  0.00  0.00    -0.181 NA
ATOM      4  C   UNL     1       0.908  -8.114   7.704  0.00  0.00    +0.221 A 
ATOM      5  N   UNL     1       1.028  -7.532   6.515  0.00  0.00    -0.181 NA
ATOM      6  C   UNL     1      -0.059  -7.199   5.825  0.00  0.00    +0.224 A 
ATOM      7  N   UNL     1      -1.266  -7.444   6.326  0.00  0.00    -0.181 NA
ATOM      8  N   UNL     1       0.066  -6.595   4.590  0.00  0.00    -0.300 N 
ATOM      9  C   UNL     1      -1.252  -6.315   4.006  0.00  0.00    +0.106 C 
ATOM     10  C   UNL     1      -1.078  -5.781   2.583  0.00  0.00    +0.003 C 
ATOM     11  C   UNL     1      -0.234  -4.503   2.622  0.00  0.00    -0.068 C 
ATOM     12  C   UNL     1       1.114  -4.810   3.279  0.00  0.00    +0.003 C 
ATOM     13  C   UNL     1       0.876  -5.373   4.682  0.00  0.00    +0.106 C 
ATOM     14  N   UNL     1       2.036  -8.459   8.420  0.00  0.00    -0.310 N 
ATOM     15  H   UNL     1      -3.431  -8.047   7.528  0.00  0.00    +0.149 HD
ATOM     16  H   UNL     1       2.916  -8.276   8.056  0.00  0.00    +0.149 HD
ENDROOT
BRANCH  11  17
ATOM     17  N   UNL     1      -0.014  -4.024   1.244  0.00  0.00    +0.383 N 
ATOM     18  H   UNL     1      -0.850  -4.220   0.680  0.00  0.00    -0.085 HD
ATOM     19  H   UNL     1       0.793  -4.513   0.841  0.00  0.00    -0.085 HD
BRANCH  17  20
ATOM     20  C   UNL     1       0.244  -2.572   1.242  0.00  0.00    -0.059 C 
ATOM     21  C   UNL     1      -1.087  -1.786   1.259  0.00  0.00    -0.002 C 
ATOM     22  C   UNL     1      -1.233  -0.891   0.008  0.00  0.00    +0.048 C 
ATOM     23  C   UNL     1       0.002  -0.004   0.002  0.00  0.00    -0.036 A 
ATOM     24  C   UNL     1      -0.016   1.361   0.009  0.00  0.00    +0.004 A 
ATOM     25  C   UNL     1       1.192   2.047   0.002  0.00  0.00    +0.000 A 
ATOM     26  C   UNL     1       2.389   1.356  -0.012  0.00  0.00    +0.000 A 
ATOM     27  C   UNL     1       2.401  -0.033  -0.019  0.00  0.00    +0.004 A 
ATOM     28  C   UNL     1       1.210  -0.700  -0.013  0.00  0.00    -0.038 A 
ATOM     29  C   UNL     1       1.061  -2.214  -0.020  0.00  0.00    +0.036 C 
ATOM     30  C   UNL     1       0.145  -2.521  -1.194  0.00  0.00    -0.038 A 
ATOM     31  C   UNL     1      -1.062  -1.825  -1.179  0.00  0.00    -0.036 A 
ATOM     32  C   UNL     1      -1.982  -2.002  -2.173  0.00  0.00    +0.004 A 
ATOM     33  C   UNL     1      -1.694  -2.890  -3.201  0.00  0.00    +0.000 A 
ATOM     34  C   UNL     1      -0.496  -3.580  -3.216  0.00  0.00    +0.000 A 
ATOM     35  C   UNL     1       0.435  -3.395  -2.202  0.00  0.00    +0.004 A 
ENDBRANCH  17  20
ENDBRANCH  11  17
BRANCH   1  36
ATOM     36  C   UNL     1      -2.770  -8.931   9.342  0.00  0.00    +0.131 C 
BRANCH  36  38
ATOM     37  C   UNL     1      -4.701 -10.283   9.977  0.00  0.00    +0.005 C 
ATOM     38  C   UNL     1      -4.231  -9.099   9.674  0.00  0.00    -0.016 C 
ENDBRANCH  36  38
ENDBRANCH   1  36
BRANCH  14  39
ATOM     39  C   UNL     1       1.903  -9.100   9.731  0.00  0.00    +0.131 C 
BRANCH  39  40
ATOM     40  C   UNL     1       3.273  -9.370  10.298  0.00  0.00    -0.016 C 
ATOM     41  C   UNL     1       3.593  -8.914  11.484  0.00  0.00    +0.005 C 
ENDBRANCH  39  40
ENDBRANCH  14  39
TORSDOF 6
