REMARK  Name = ZINC40686917
REMARK  7 active torsions:
REMARK  status: ('A' for Active; 'I' for Inactive)
REMARK    1  A    between atoms: C_1  and  C_2
REMARK    2  A    between atoms: C_7  and  C_9
REMARK    3  A    between atoms: C_7  and  C_10
REMARK    4  A    between atoms: C_14  and  N_27
REMARK    5  A    between atoms: C_15  and  N_19
REMARK    6  A    between atoms: N_19  and  C_20
REMARK    7  A    between atoms: C_20  and  C_21
REMARK                            x       y       z     vdW  Elec       q    Type
REMARK                         _______ _______ _______ _____ _____    ______ ____
ROOT
ATOM      1  C   UNL     1      -1.184   2.275  -2.025  0.00  0.00    +0.013 C 
ATOM      2  C   UNL     1      -1.308   0.789  -1.654  0.00  0.00    -0.014 C 
ATOM      3  C   UNL     1      -2.608   0.148  -2.211  0.00  0.00    +0.030 C 
ATOM      4  C   UNL     1      -2.216  -1.348  -2.123  0.00  0.00    +0.076 C 
ATOM      5  C   UNL     1      -2.309  -1.755  -0.654  0.00  0.00    +0.029 C 
ATOM      6  C   UNL     1      -1.481  -0.889   0.278  0.00  0.00    -0.033 C 
ATOM      7  C   UNL     1      -1.298   0.557  -0.144  0.00  0.00    +0.014 C 
ATOM      8  C   UNL     1      -0.113  -1.544   0.516  0.00  0.00    +0.011 C 
ATOM      9  C   UNL     1      -2.204  -0.877   1.649  0.00  0.00    +0.011 C 
ATOM     10  N   UNL     1      -0.804  -1.397  -2.551  0.00  0.00    -0.310 N 
ATOM     11  C   UNL     1      -0.207  -0.074  -2.310  0.00  0.00    +0.113 C 
ATOM     12  C   UNL     1      -0.152  -2.496  -3.096  0.00  0.00    +0.147 A 
ATOM     13  C   UNL     1       1.152  -2.378  -3.581  0.00  0.00    +0.105 A 
ATOM     14  C   UNL     1       1.761  -3.514  -4.118  0.00  0.00    +0.145 A 
ATOM     15  N   UNL     1       1.080  -4.657  -4.147  0.00  0.00    -0.219 NA
ATOM     16  C   UNL     1      -0.150  -4.725  -3.679  0.00  0.00    +0.225 A 
ATOM     17  N   UNL     1      -0.759  -3.679  -3.160  0.00  0.00    -0.219 NA
ENDROOT
BRANCH  13  18
ATOM     18  N   UNL     1       1.833  -1.151  -3.529  0.00  0.00    -0.353 N 
ATOM     19  H   UNL     1       1.711  -0.560  -2.769  0.00  0.00    +0.143 HD
ATOM     20  H   UNL     1       2.425  -0.894  -4.253  0.00  0.00    +0.143 HD
ENDBRANCH  13  18
BRANCH  14  21
ATOM     21  N   UNL     1       3.057  -3.451  -4.614  0.00  0.00    -0.325 N 
ATOM     22  H   UNL     1       3.547  -2.614  -4.589  0.00  0.00    +0.148 HD
BRANCH  21  23
ATOM     23  C   UNL     1       3.685  -4.650  -5.176  0.00  0.00    +0.134 C 
BRANCH  23  24
ATOM     24  C   UNL     1       5.101  -4.311  -5.647  0.00  0.00    +0.135 C 
ATOM     25  C   UNL     1       5.726  -5.536  -6.349  0.00  0.00    +0.035 C 
ATOM     26  C   UNL     1       7.197  -5.485  -5.853  0.00  0.00    +0.031 C 
ATOM     27  C   UNL     1       7.004  -4.933  -4.418  0.00  0.00    +0.160 C 
ATOM     28  O   UNL     1       5.924  -3.989  -4.520  0.00  0.00    -0.375 OA
ENDBRANCH  23  24
ENDBRANCH  21  23
ENDBRANCH  14  21
TORSDOF 4
