REMARK  Name = ZINC35364866
REMARK  10 active torsions:
REMARK  status: ('A' for Active; 'I' for Inactive)
REMARK    1  A    between atoms: C_1  and  C_2
REMARK    2  A    between atoms: C_2  and  C_3
REMARK    3  A    between atoms: C_3  and  N_4
REMARK    4  A    between atoms: N_4  and  C_5
REMARK    5  A    between atoms: N_4  and  C_13
REMARK    6  A    between atoms: C_5  and  C_6
REMARK    7  A    between atoms: C_9  and  N_12
REMARK    8  A    between atoms: C_13  and  C_15
REMARK    9  A    between atoms: C_13  and  C_16
REMARK   10  A    between atoms: N_21  and  C_22
REMARK                            x       y       z     vdW  Elec       q    Type
REMARK                         _______ _______ _______ _____ _____    ______ ____
ROOT
ATOM      1  N   UNL     1       0.843  -1.959  -1.200  0.00  0.00    +0.390 N 
ATOM      2  H   UNL     1       1.203  -2.193  -0.287  0.00  0.00    -0.080 HD
ENDROOT
BRANCH   1   3
ATOM      3  C   UNL     1      -0.481  -2.572  -1.377  0.00  0.00    +0.017 C 
ATOM      4  C   UNL     1      -0.951  -2.365  -2.818  0.00  0.00    -0.004 C 
BRANCH   3   5
ATOM      5  C   UNL     1      -0.394  -4.047  -1.083  0.00  0.00    +0.207 C 
ATOM      6  O   UNL     1       0.681  -4.558  -0.853  0.00  0.00    -0.277 OA
ATOM      7  N   UNL     1      -1.513  -4.800  -1.076  0.00  0.00    -0.242 N 
ATOM      8  C   UNL     1      -1.435  -6.119  -0.814  0.00  0.00    +0.306 C 
ATOM      9  O   UNL     1      -0.357  -6.631  -0.583  0.00  0.00    -0.252 OA
ATOM     10  N   UNL     1      -2.553  -6.872  -0.807  0.00  0.00    -0.302 N 
ATOM     11  C   UNL     1      -2.469  -8.306  -0.521  0.00  0.00    +0.129 C 
ATOM     12  H   UNL     1      -2.373  -4.391  -1.260  0.00  0.00    +0.159 HD
ATOM     13  H   UNL     1      -3.414  -6.463  -0.991  0.00  0.00    +0.150 HD
ENDBRANCH   3   5
ENDBRANCH   1   3
BRANCH   1  14
ATOM     14  C   UNL     1       0.727  -0.500  -1.321  0.00  0.00    -0.078 C 
BRANCH  14  16
ATOM     15  C   UNL     1      -0.127   1.572  -0.215  0.00  0.00    +0.002 C 
ATOM     16  C   UNL     1      -0.114   0.043  -0.163  0.00  0.00    -0.022 C 
ENDBRANCH  14  16
ENDBRANCH   1  14
BRANCH   1  17
ATOM     17  C   UNL     1       1.758  -2.464  -2.233  0.00  0.00    -0.042 C 
BRANCH  17  18
ATOM     18  C   UNL     1       3.144  -1.932  -1.979  0.00  0.00    -0.064 A 
ATOM     19  C   UNL     1       3.535  -0.730  -2.541  0.00  0.00    +0.003 A 
ATOM     20  C   UNL     1       4.805  -0.239  -2.310  0.00  0.00    +0.023 A 
ATOM     21  C   UNL     1       5.691  -0.954  -1.513  0.00  0.00    +0.025 A 
ATOM     22  C   UNL     1       5.295  -2.161  -0.951  0.00  0.00    +0.023 A 
ATOM     23  C   UNL     1       4.021  -2.643  -1.181  0.00  0.00    +0.003 A 
BRANCH  21  24
ATOM     24  N   UNL     1       6.976  -0.461  -1.279  0.00  0.00    -0.358 N 
ATOM     25  H   UNL     1       7.251   0.382  -1.672  0.00  0.00    +0.142 HD
ATOM     26  H   UNL     1       7.593  -0.961  -0.722  0.00  0.00    +0.142 HD
ENDBRANCH  21  24
ENDBRANCH  17  18
ENDBRANCH   1  17
TORSDOF 7
