REMARK  Name = ZINC66463703
REMARK  8 active torsions:
REMARK  status: ('A' for Active; 'I' for Inactive)
REMARK    1  A    between atoms: C_1  and  C_2
REMARK    2  A    between atoms: N_11  and  C_15
REMARK    3  A    between atoms: C_15  and  C_16
REMARK    4  A    between atoms: N_18  and  C_19
REMARK    5  A    between atoms: C_23  and  O_25
REMARK    6  A    between atoms: O_25  and  C_26
REMARK    7  A    between atoms: C_26  and  C_27
REMARK    8  A    between atoms: C_27  and  C_29
REMARK                            x       y       z     vdW  Elec       q    Type
REMARK                         _______ _______ _______ _____ _____    ______ ____
ROOT
ATOM      1  C   UNL     1       3.433   1.484   2.831  0.00  0.00    +0.214 C 
ENDROOT
BRANCH   1  11
ATOM      2  C   UNL     1      -0.006   1.516  -0.004  0.00  0.00    +0.010 C 
ATOM      3  C   UNL     1       0.014  -0.014  -0.004  0.00  0.00    +0.018 C 
ATOM      4  C   UNL     1      -1.423  -0.543   0.001  0.00  0.00    +0.006 C 
ATOM      5  C   UNL     1      -1.401  -2.073   0.021  0.00  0.00    +0.000 C 
ATOM      6  C   UNL     1      -0.684  -2.559   1.282  0.00  0.00    +0.003 C 
ATOM      7  C   UNL     1       0.755  -2.037   1.282  0.00  0.00    +0.035 C 
ATOM      8  C   UNL     1       0.745  -0.513   1.238  0.00  0.00    +0.115 C 
ATOM      9  C   UNL     1       2.156   0.025   1.272  0.00  0.00    +0.247 C 
ATOM     10  O   UNL     1       3.035  -0.168   0.460  0.00  0.00    -0.273 OA
ATOM     11  N   UNL     1       2.232   0.768   2.396  0.00  0.00    -0.215 N 
ATOM     12  C   UNL     1       1.072   0.768   3.065  0.00  0.00    +0.310 C 
ATOM     13  O   UNL     1       0.894   1.366   4.108  0.00  0.00    -0.252 OA
ATOM     14  N   UNL     1       0.125   0.032   2.452  0.00  0.00    -0.285 N 
ATOM     15  H   UNL     1      -0.786  -0.110   2.754  0.00  0.00    +0.151 HD
ENDBRANCH   1  11
BRANCH   1  16
ATOM     16  C   UNL     1       3.426   2.875   2.252  0.00  0.00    +0.235 C 
ATOM     17  O   UNL     1       2.508   3.233   1.545  0.00  0.00    -0.274 OA
ATOM     18  N   UNL     1       4.441   3.721   2.519  0.00  0.00    -0.284 N 
ATOM     19  H   UNL     1       5.141   3.459   3.137  0.00  0.00    +0.155 HD
BRANCH  18  20
ATOM     20  C   UNL     1       4.484   4.978   1.905  0.00  0.00    +0.037 A 
ATOM     21  C   UNL     1       5.704   5.535   1.545  0.00  0.00    +0.023 A 
ATOM     22  C   UNL     1       5.747   6.775   0.939  0.00  0.00    +0.005 A 
ATOM     23  C   UNL     1       4.576   7.465   0.689  0.00  0.00    +0.046 A 
ATOM     24  C   UNL     1       3.354   6.914   1.047  0.00  0.00    +0.123 A 
ATOM     25  C   UNL     1       3.307   5.667   1.649  0.00  0.00    +0.069 A 
BRANCH  24  26
ATOM     26  O   UNL     1       2.203   7.595   0.801  0.00  0.00    -0.488 OA
BRANCH  26  27
ATOM     27  C   UNL     1       2.326   8.872   0.172  0.00  0.00    +0.259 C 
BRANCH  27  28
ATOM     28  C   UNL     1       0.957   9.472  -0.019  0.00  0.00    -0.043 C 
ATOM     29  C   UNL     1      -0.106   8.817   0.378  0.00  0.00    +0.011 C 
ATOM     30  C   UNL     1       0.811  10.825  -0.666  0.00  0.00    +0.042 C 
ENDBRANCH  27  28
ENDBRANCH  26  27
ENDBRANCH  24  26
ENDBRANCH  18  20
ENDBRANCH   1  16
TORSDOF 6
