REMARK  Name = ZINC41548724
REMARK  4 active torsions:
REMARK  status: ('A' for Active; 'I' for Inactive)
REMARK    1  A    between atoms: C_1  and  C_2
REMARK    2  A    between atoms: C_2  and  C_14
REMARK    3  A    between atoms: N_16  and  C_17
REMARK    4  A    between atoms: C_18  and  C_26
REMARK                            x       y       z     vdW  Elec       q    Type
REMARK                         _______ _______ _______ _____ _____    ______ ____
ROOT
ATOM      1  C   UNL     1       0.709  -0.489  -1.237  0.00  0.00    +0.271 C 
ATOM      2  O   UNL     1       0.070  -0.781  -2.226  0.00  0.00    -0.271 OA
ATOM      3  N   UNL     1       2.053  -0.599  -1.247  0.00  0.00    -0.275 N 
ATOM      4  H   UNL     1       2.564  -0.366  -0.456  0.00  0.00    +0.155 HD
ENDROOT
BRANCH   1   6
ATOM      5  C   UNL     1      -0.019   1.526   0.010  0.00  0.00    +0.076 C 
ATOM      6  C   UNL     1       0.002  -0.004   0.002  0.00  0.00    +0.258 C 
ATOM      7  C   UNL     1      -1.413  -0.525   0.008  0.00  0.00    +0.270 C 
ATOM      8  O   UNL     1      -2.310   0.144  -0.460  0.00  0.00    -0.271 OA
ATOM      9  N   UNL     1      -1.677  -1.739   0.535  0.00  0.00    -0.279 N 
ATOM     10  C   UNL     1      -0.651  -2.442   1.182  0.00  0.00    +0.077 A 
ATOM     11  C   UNL     1      -0.820  -3.772   1.531  0.00  0.00    +0.047 A 
ATOM     12  C   UNL     1       0.207  -4.455   2.158  0.00  0.00    +0.043 A 
ATOM     13  C   UNL     1       1.401  -3.813   2.436  0.00  0.00    +0.024 A 
ATOM     14  C   UNL     1       1.573  -2.484   2.094  0.00  0.00    +0.049 A 
ATOM     15  C   UNL     1       0.547  -1.793   1.472  0.00  0.00    +0.144 A 
ATOM     16  O   UNL     1       0.694  -0.477   1.160  0.00  0.00    -0.465 OA
ATOM     17 CL   UNL     1      -0.003  -6.121   2.597  0.00  0.00    -0.083 Cl
ATOM     18  H   UNL     1      -2.566  -2.121   0.467  0.00  0.00    +0.155 HD
ENDBRANCH   1   6
BRANCH   3  19
ATOM     19  C   UNL     1       2.704  -1.046  -2.388  0.00  0.00    +0.090 A 
ATOM     20  C   UNL     1       4.064  -1.226  -2.577  0.00  0.00    +0.084 A 
ATOM     21  C   UNL     1       4.497  -1.709  -3.876  0.00  0.00    -0.018 A 
ATOM     22  C   UNL     1       3.489  -1.924  -4.749  0.00  0.00    -0.004 A 
ATOM     23  S   UNL     1       2.023  -1.500  -3.855  0.00  0.00    -0.077 S 
ATOM     24  C   UNL     1       3.609  -2.417  -6.158  0.00  0.00    +0.043 C 
ATOM     25  C   UNL     1       5.076  -2.284  -6.592  0.00  0.00    +0.005 C 
ATOM     26  C   UNL     1       5.971  -2.870  -5.497  0.00  0.00    +0.005 C 
ATOM     27  C   UNL     1       5.946  -1.965  -4.263  0.00  0.00    +0.037 C 
BRANCH  20  28
ATOM     28  C   UNL     1       5.005  -0.946  -1.534  0.00  0.00    +0.102 C 
ATOM     29  N   UNL     1       5.752  -0.724  -0.707  0.00  0.00    -0.191 NA
ENDBRANCH  20  28
ENDBRANCH   3  19
TORSDOF 3
