REMARK  Name = ZINC28759255
REMARK  8 active torsions:
REMARK  status: ('A' for Active; 'I' for Inactive)
REMARK    1  A    between atoms: C_1  and  C_2
REMARK    2  A    between atoms: C_5  and  O_37
REMARK    3  A    between atoms: C_7  and  C_34
REMARK    4  A    between atoms: C_7  and  C_35
REMARK    5  A    between atoms: C_11  and  O_33
REMARK    6  A    between atoms: C_13  and  C_32
REMARK    7  A    between atoms: C_21  and  C_25
REMARK    8  A    between atoms: C_35  and  O_36
REMARK                            x       y       z     vdW  Elec       q    Type
REMARK                         _______ _______ _______ _____ _____    ______ ____
ROOT
ATOM      1  C   UNL     1       1.946  10.209  -1.401  0.00  0.00    +0.012 C 
ATOM      2  C   UNL     1       2.478   9.880   0.014  0.00  0.00    -0.015 C 
ATOM      3  C   UNL     1       1.514  10.591   0.973  0.00  0.00    +0.010 C 
ATOM      4  C   UNL     1       2.078  10.618   2.389  0.00  0.00    +0.032 C 
ATOM      5  C   UNL     1       3.354  11.455   2.378  0.00  0.00    +0.123 C 
ATOM      6  C   UNL     1       4.406  10.781   1.493  0.00  0.00    +0.020 C 
ATOM      7  C   UNL     1       3.883  10.455   0.113  0.00  0.00    +0.009 C 
ATOM      8  C   UNL     1       4.877   9.662  -0.723  0.00  0.00    +0.040 C 
ATOM      9  C   UNL     1       4.851   8.160  -0.509  0.00  0.00    +0.159 C 
ATOM     10  C   UNL     1       3.448   7.579  -0.550  0.00  0.00    +0.144 C 
ATOM     11  C   UNL     1       2.458   8.393   0.268  0.00  0.00    +0.113 C 
ATOM     12  C   UNL     1       1.094   7.760   0.100  0.00  0.00    +0.181 C 
ATOM     13  O   UNL     1       0.077   8.400  -0.015  0.00  0.00    -0.291 OA
ATOM     14  C   UNL     1       1.062   6.340   0.108  0.00  0.00    +0.144 A 
ATOM     15  C   UNL     1       2.273   5.622   0.066  0.00  0.00    +0.142 A 
ATOM     16  C   UNL     1       2.206   4.222   0.050  0.00  0.00    +0.093 A 
ATOM     17  C   UNL     1       0.991   3.607   0.083  0.00  0.00    +0.143 A 
ATOM     18  O   UNL     1      -0.163   4.284   0.133  0.00  0.00    -0.421 OA
ATOM     19  C   UNL     1      -0.158   5.628   0.143  0.00  0.00    +0.351 A 
ATOM     20  O   UNL     1      -1.216   6.228   0.186  0.00  0.00    -0.244 OA
ATOM     21  O   UNL     1       3.465   6.256   0.040  0.00  0.00    -0.482 OA
ATOM     22  C   UNL     1       3.011   7.394  -2.005  0.00  0.00    +0.059 C 
ATOM     23  C   UNL     1       5.570  11.790   1.351  0.00  0.00    +0.016 C 
ENDROOT
BRANCH  17  24
ATOM     24  C   UNL     1       0.944   2.130   0.064  0.00  0.00    +0.020 A 
ATOM     25  C   UNL     1      -0.279   1.448   0.097  0.00  0.00    +0.031 A 
ATOM     26  C   UNL     1      -0.276   0.068   0.076  0.00  0.00    +0.111 A 
ATOM     27  N   UNL     1       0.856  -0.606   0.027  0.00  0.00    -0.263 NA
ATOM     28  C   UNL     1       2.029  -0.005  -0.005  0.00  0.00    +0.111 A 
ATOM     29  C   UNL     1       2.120   1.373   0.012  0.00  0.00    +0.031 A 
ENDBRANCH  17  24
BRANCH   9  30
ATOM     30  O   UNL     1       5.623   7.538  -1.558  0.00  0.00    -0.388 OA
ATOM     31  H   UNL     1       5.731   6.444  -1.587  0.00  0.00    +0.210 HD
ENDBRANCH   9  30
BRANCH   5  32
ATOM     32  O   UNL     1       3.075  12.763   1.876  0.00  0.00    -0.391 OA
ATOM     33  H   UNL     1       3.882  13.506   1.797  0.00  0.00    +0.210 HD
ENDBRANCH   5  32
BRANCH   6  34
ATOM     34  C   UNL     1       4.949   9.559   2.235  0.00  0.00    +0.165 C 
BRANCH  34  35
ATOM     35  O   UNL     1       5.421   9.956   3.524  0.00  0.00    -0.394 OA
ATOM     36  H   UNL     1       5.850   9.208   4.207  0.00  0.00    +0.209 HD
ENDBRANCH  34  35
ENDBRANCH   6  34
TORSDOF 5
