REMARK  Name = ZINC37124082
REMARK  5 active torsions:
REMARK  status: ('A' for Active; 'I' for Inactive)
REMARK    1  A    between atoms: C_1  and  C_2
REMARK    2  A    between atoms: C_5  and  N_12
REMARK    3  A    between atoms: C_8  and  C_10
REMARK    4  A    between atoms: C_8  and  C_11
REMARK    5  A    between atoms: N_12  and  C_13
REMARK                            x       y       z     vdW  Elec       q    Type
REMARK                         _______ _______ _______ _____ _____    ______ ____
ROOT
ATOM      1  C   UNL     1      -0.912  -2.998  -1.976  0.00  0.00    +0.028 A 
ATOM      2  C   UNL     1      -2.029  -3.675  -1.501  0.00  0.00    +0.025 A 
ATOM      3  C   UNL     1      -2.488  -4.797  -2.162  0.00  0.00    +0.025 A 
ATOM      4  C   UNL     1      -1.835  -5.248  -3.301  0.00  0.00    +0.037 A 
ATOM      5  C   UNL     1      -0.720  -4.571  -3.775  0.00  0.00    -0.024 A 
ATOM      6  C   UNL     1      -0.263  -3.446  -3.118  0.00  0.00    +0.028 A 
ATOM      7  C   UNL     1      -0.014  -5.063  -5.012  0.00  0.00    +0.046 C 
ATOM      8  C   UNL     1      -0.084  -6.589  -5.069  0.00  0.00    +0.101 C 
ATOM      9  C   UNL     1      -1.498  -7.046  -4.829  0.00  0.00    +0.218 C 
ATOM     10  O   UNL     1      -1.920  -8.021  -5.415  0.00  0.00    -0.275 OA
ATOM     11  N   UNL     1      -2.299  -6.386  -3.973  0.00  0.00    -0.285 N 
ATOM     12  H   UNL     1      -3.204  -6.700  -3.820  0.00  0.00    +0.155 HD
ENDROOT
BRANCH   1  13
ATOM     13  N   UNL     1      -0.447  -1.862  -1.306  0.00  0.00    -0.341 N 
ATOM     14  H   UNL     1       0.331  -1.387  -1.639  0.00  0.00    +0.146 HD
BRANCH  13  18
ATOM     15  C   UNL     1       1.286   1.477   0.772  0.00  0.00    +0.007 C 
ATOM     16  C   UNL     1       0.833   0.051   0.453  0.00  0.00    -0.012 C 
ATOM     17  C   UNL     1      -0.679   0.037   0.218  0.00  0.00    +0.025 C 
ATOM     18  C   UNL     1      -1.132  -1.389  -0.100  0.00  0.00    +0.071 C 
ATOM     19  C   UNL     1      -0.790  -2.308   1.074  0.00  0.00    +0.028 C 
ATOM     20  C   UNL     1       0.722  -2.294   1.309  0.00  0.00    -0.033 C 
ATOM     21  C   UNL     1       1.175  -0.868   1.628  0.00  0.00    +0.009 C 
ATOM     22  C   UNL     1       1.064  -3.212   2.484  0.00  0.00    +0.011 C 
ATOM     23  C   UNL     1       1.438  -2.787   0.050  0.00  0.00    +0.011 C 
ENDBRANCH  13  18
ENDBRANCH   1  13
TORSDOF 2
