REMARK  Name = ZINC08131949
REMARK  4 active torsions:
REMARK  status: ('A' for Active; 'I' for Inactive)
REMARK    1  A    between atoms: C_3  and  O_26
REMARK    2  A    between atoms: C_6  and  N_7
REMARK    3  A    between atoms: C_12  and  N_13
REMARK    4  A    between atoms: C_12  and  N_55
REMARK                            x       y       z     vdW  Elec       q    Type
REMARK                         _______ _______ _______ _____ _____    ______ ____
ROOT
ATOM      1  C   UNL     1      -1.199  -0.843   0.013  0.00  0.00    +0.043 C 
ENDROOT
BRANCH   1   2
ATOM      2  N   UNL     1       0.002  -0.004   0.002  0.00  0.00    -0.241 N 
ATOM      3  C   UNL     1      -0.016   1.342   0.009  0.00  0.00    +0.245 C 
ATOM      4  O   UNL     1      -0.993   2.060   0.018  0.00  0.00    -0.273 OA
ATOM      5  C   UNL     1       1.440   1.777  -0.002  0.00  0.00    +0.112 C 
ATOM      6  C   UNL     1       1.738   2.470   1.347  0.00  0.00    +0.035 C 
ATOM      7  C   UNL     1       3.214   2.388   1.619  0.00  0.00    +0.003 C 
ATOM      8  C   UNL     1       3.979   3.635   1.135  0.00  0.00    +0.000 C 
ATOM      9  C   UNL     1       3.503   4.131  -0.243  0.00  0.00    +0.000 C 
ATOM     10  C   UNL     1       3.255   2.999  -1.202  0.00  0.00    +0.003 C 
ATOM     11  C   UNL     1       1.762   2.627  -1.141  0.00  0.00    +0.035 C 
ATOM     12  N   UNL     1       2.175   0.496  -0.023  0.00  0.00    -0.285 N 
ATOM     13  C   UNL     1       1.251  -0.481  -0.017  0.00  0.00    +0.308 C 
ATOM     14  O   UNL     1       1.522  -1.666  -0.027  0.00  0.00    -0.252 OA
ATOM     15  H   UNL     1       3.138   0.382  -0.039  0.00  0.00    +0.151 HD
ENDBRANCH   1   2
BRANCH   1  21
ATOM     16  N   UNL     1      -3.505  -1.525  -3.461  0.00  0.00    -0.333 N 
ATOM     17  C   UNL     1      -2.740  -2.652  -2.910  0.00  0.00    +0.086 C 
ATOM     18  C   UNL     1      -2.391  -2.363  -1.448  0.00  0.00    -0.057 C 
ATOM     19  C   UNL     1      -2.383   0.011  -1.919  0.00  0.00    -0.057 C 
ATOM     20  C   UNL     1      -2.731  -0.279  -3.381  0.00  0.00    +0.086 C 
ATOM     21  N   UNL     1      -1.595  -1.119  -1.385  0.00  0.00    +0.392 N 
ATOM     22  H   UNL     1      -0.749  -1.236  -1.955  0.00  0.00    -0.079 HD
BRANCH  16  28
ATOM     23  C   UNL     1      -3.558  -2.986  -5.383  0.00  0.00    +0.026 A 
ATOM     24  C   UNL     1      -3.957  -3.244  -6.679  0.00  0.00    +0.047 A 
ATOM     25  C   UNL     1      -4.693  -2.300  -7.380  0.00  0.00    +0.117 A 
ATOM     26  C   UNL     1      -5.034  -1.099  -6.777  0.00  0.00    +0.047 A 
ATOM     27  C   UNL     1      -4.641  -0.841  -5.478  0.00  0.00    +0.026 A 
ATOM     28  C   UNL     1      -3.904  -1.786  -4.776  0.00  0.00    +0.030 A 
BRANCH  25  29
ATOM     29  O   UNL     1      -5.080  -2.553  -8.659  0.00  0.00    -0.507 OA
ATOM     30  H   UNL     1      -4.444  -2.264  -9.327  0.00  0.00    +0.292 HD
ENDBRANCH  25  29
ENDBRANCH  16  28
ENDBRANCH   1  21
TORSDOF 4
