REMARK  Name = ZINC35354486
REMARK  7 active torsions:
REMARK  status: ('A' for Active; 'I' for Inactive)
REMARK    1  A    between atoms: C_1  and  C_2
REMARK    2  A    between atoms: C_5  and  N_9
REMARK    3  A    between atoms: C_6  and  C_8
REMARK    4  A    between atoms: N_9  and  S_10
REMARK    5  A    between atoms: S_10  and  C_13
REMARK    6  A    between atoms: C_18  and  N_19
REMARK    7  A    between atoms: N_19  and  N_20
REMARK                            x       y       z     vdW  Elec       q    Type
REMARK                         _______ _______ _______ _____ _____    ______ ____
ROOT
ATOM      1  S   UNL     1       0.783  -4.999  -1.284  0.00  0.00    +0.074 S 
ATOM      2  O   UNL     1       0.576  -6.402  -1.183  0.00  0.00    -0.150 OA
ATOM      3  O   UNL     1       0.349  -4.244  -2.407  0.00  0.00    -0.150 OA
ENDROOT
BRANCH   1   4
ATOM      4  C   UNL     1       2.519  -4.735  -1.139  0.00  0.00    +0.130 A 
ATOM      5  C   UNL     1       3.179  -3.950  -2.064  0.00  0.00    +0.031 A 
ATOM      6  C   UNL     1       4.541  -3.743  -1.951  0.00  0.00    +0.002 A 
ATOM      7  C   UNL     1       5.247  -4.319  -0.911  0.00  0.00    +0.002 A 
ATOM      8  C   UNL     1       4.594  -5.104   0.018  0.00  0.00    +0.026 A 
ATOM      9  C   UNL     1       3.224  -5.310  -0.089  0.00  0.00    +0.068 A 
BRANCH   9  10
ATOM     10  N   UNL     1       2.559  -6.099   0.852  0.00  0.00    -0.281 N 
ATOM     11  H   UNL     1       1.593  -6.180   0.821  0.00  0.00    +0.166 HD
BRANCH  10  12
ATOM     12  N   UNL     1       3.269  -6.756   1.816  0.00  0.00    -0.256 NA
ATOM     13  H   UNL     1       3.769  -6.105   2.404  0.00  0.00    +0.140 HD
ATOM     14  H   UNL     1       2.667  -7.351   2.366  0.00  0.00    +0.140 HD
ENDBRANCH  10  12
ENDBRANCH   9  10
ENDBRANCH   1   4
BRANCH   1  15
ATOM     15  N   UNL     1       0.070  -4.319   0.047  0.00  0.00    -0.216 N 
ATOM     16  H   UNL     1      -0.448  -4.869   0.655  0.00  0.00    +0.174 HD
BRANCH  15  21
ATOM     17  C   UNL     1       0.661   1.231   1.054  0.00  0.00    +0.044 C 
ATOM     18  C   UNL     1       0.504  -0.244   0.786  0.00  0.00    -0.050 A 
ATOM     19  C   UNL     1       0.402  -0.702  -0.515  0.00  0.00    +0.005 A 
ATOM     20  C   UNL     1       0.258  -2.053  -0.763  0.00  0.00    +0.025 A 
ATOM     21  C   UNL     1       0.216  -2.952   0.295  0.00  0.00    +0.051 A 
ATOM     22  C   UNL     1       0.320  -2.488   1.600  0.00  0.00    -0.028 A 
ATOM     23  C   UNL     1       0.469  -1.136   1.841  0.00  0.00    +0.008 A 
ATOM     24  C   UNL     1       0.274  -3.459   2.752  0.00  0.00    +0.046 C 
ENDBRANCH  15  21
ENDBRANCH   1  15
TORSDOF 5
