REMARK  Name = ZINC22990593
REMARK  9 active torsions:
REMARK  status: ('A' for Active; 'I' for Inactive)
REMARK    1  A    between atoms: C_1  and  C_2
REMARK    2  A    between atoms: C_5  and  N_11
REMARK    3  A    between atoms: C_7  and  N_8
REMARK    4  A    between atoms: C_12  and  C_14
REMARK    5  A    between atoms: C_14  and  C_26
REMARK    6  A    between atoms: C_15  and  C_16
REMARK    7  A    between atoms: C_18  and  C_25
REMARK    8  A    between atoms: N_19  and  C_22
REMARK    9  A    between atoms: C_20  and  C_21
REMARK                            x       y       z     vdW  Elec       q    Type
REMARK                         _______ _______ _______ _____ _____    ______ ____
ROOT
ATOM      1  N   UNL     1      -2.580   1.011   1.498  0.00  0.00    -0.281 N 
ATOM      2  C   UNL     1      -1.584   1.651   0.854  0.00  0.00    +0.259 C 
ATOM      3  O   UNL     1      -1.762   2.774   0.421  0.00  0.00    -0.269 OA
ATOM      4  H   UNL     1      -2.402   0.018   1.937  0.00  0.00    +0.155 HD
ENDROOT
BRANCH   1   9
ATOM      5  C   UNL     1      -7.687   3.440   1.947  0.00  0.00    +0.046 C 
ATOM      6  C   UNL     1      -6.330   2.795   1.828  0.00  0.00    -0.020 A 
ATOM      7  C   UNL     1      -5.188   3.574   1.880  0.00  0.00    +0.007 A 
ATOM      8  C   UNL     1      -3.943   2.985   1.778  0.00  0.00    +0.024 A 
ATOM      9  C   UNL     1      -3.839   1.610   1.609  0.00  0.00    +0.036 A 
ATOM     10  C   UNL     1      -4.987   0.831   1.556  0.00  0.00    +0.056 A 
ATOM     11  C   UNL     1      -6.229   1.425   1.666  0.00  0.00    +0.131 A 
BRANCH  11  12
ATOM     12  N   UNL     1      -7.453   0.595   1.610  0.00  0.00    +0.057 N 
ATOM     13  O   UNL     1      -7.365  -0.612   1.471  0.00  0.00    -0.126 OA
ATOM     14  O   UNL     1      -8.549   1.119   1.703  0.00  0.00    -0.126 OA
ENDBRANCH  11  12
ENDBRANCH   1   9
BRANCH   2  15
ATOM     15  C   UNL     1      -0.283   0.992   0.674  0.00  0.00    +0.114 C 
ATOM     16  C   UNL     1       0.735   1.645   0.008  0.00  0.00    +0.033 C 
BRANCH  16  17
ATOM     17  C   UNL     1       2.033   1.074  -0.038  0.00  0.00    -0.003 A 
ATOM     18  C   UNL     1       2.558  -0.002   0.814  0.00  0.00    +0.030 A 
ATOM     19  C   UNL     1       3.822  -0.220   0.414  0.00  0.00    +0.017 A 
ATOM     20  N   UNL     1       4.124   0.636  -0.606  0.00  0.00    -0.345 N 
ATOM     21  C   UNL     1       3.067   1.419  -0.892  0.00  0.00    +0.023 A 
ATOM     22  C   UNL     1       3.018   2.485  -1.956  0.00  0.00    +0.064 C 
ATOM     23  C   UNL     1       4.760  -1.242   1.002  0.00  0.00    +0.063 C 
BRANCH  20  24
ATOM     24  C   UNL     1       5.417   0.694  -1.293  0.00  0.00    +0.087 C 
ATOM     25  C   UNL     1       6.674   0.790  -0.427  0.00  0.00    +0.027 C 
ATOM     26  C   UNL     1       6.197   2.008  -1.222  0.00  0.00    +0.027 C 
ENDBRANCH  20  24
ENDBRANCH  16  17
BRANCH  15  27
ATOM     27  C   UNL     1      -0.074  -0.330   1.183  0.00  0.00    +0.104 C 
ATOM     28  N   UNL     1       0.092  -1.379   1.587  0.00  0.00    -0.191 NA
ENDBRANCH  15  27
ENDBRANCH   2  15
TORSDOF 6
