REMARK  Name = ZINC39571095
REMARK  4 active torsions:
REMARK  status: ('A' for Active; 'I' for Inactive)
REMARK    1  A    between atoms: C_3  and  N_22
REMARK    2  A    between atoms: C_6  and  C_7
REMARK    3  A    between atoms: N_8  and  N_9
REMARK    4  A    between atoms: C_10  and  C_12
REMARK                            x       y       z     vdW  Elec       q    Type
REMARK                         _______ _______ _______ _____ _____    ______ ____
ROOT
ATOM      1  N   UNL     1      -0.023  -2.740  -0.111  0.00  0.00    -0.205 N 
ATOM      2  C   UNL     1       0.001  -4.071  -0.321  0.00  0.00    +0.263 C 
ATOM      3  O   UNL     1      -1.035  -4.676  -0.496  0.00  0.00    -0.271 OA
ATOM      4  H   UNL     1       0.806  -2.256   0.029  0.00  0.00    +0.177 HD
ENDROOT
BRANCH   2   5
ATOM      5  C   UNL     1       1.316  -4.808  -0.338  0.00  0.00    +0.243 C 
ATOM      6  C   UNL     1       1.766  -5.132   1.064  0.00  0.00    -0.012 C 
ATOM      7  C   UNL     1       1.815  -6.468   1.108  0.00  0.00    +0.065 C 
ATOM      8  C   UNL     1       2.226  -7.235   2.345  0.00  0.00    +0.057 C 
ATOM      9  C   UNL     1       2.953  -6.276   3.295  0.00  0.00    +0.006 C 
ATOM     10  C   UNL     1       2.110  -5.013   3.498  0.00  0.00    +0.005 C 
ATOM     11  C   UNL     1       2.095  -4.202   2.194  0.00  0.00    +0.035 C 
ATOM     12  N   UNL     1       1.452  -6.984  -0.086  0.00  0.00    -0.158 NA
ATOM     13  N   UNL     1       1.161  -6.142  -0.948  0.00  0.00    -0.170 NA
ENDBRANCH   2   5
BRANCH   1  15
ATOM     14  C   UNL     1      -1.262  -0.760  -0.018  0.00  0.00    +0.138 C 
ATOM     15  N   UNL     1      -1.245  -2.055  -0.095  0.00  0.00    -0.188 NA
BRANCH  14  21
ATOM     16  C   UNL     1       0.867  -0.581  -1.295  0.00  0.00    +0.012 A 
ATOM     17  C   UNL     1       1.945   0.157  -1.738  0.00  0.00    +0.033 A 
ATOM     18  C   UNL     1       2.064   1.491  -1.391  0.00  0.00    +0.126 A 
ATOM     19  C   UNL     1       1.103   2.095  -0.599  0.00  0.00    +0.033 A 
ATOM     20  C   UNL     1       0.020   1.370  -0.150  0.00  0.00    +0.012 A 
ATOM     21  C   UNL     1      -0.106   0.022  -0.495  0.00  0.00    -0.005 A 
BRANCH  18  22
ATOM     22  N   UNL     1       3.224   2.276  -1.870  0.00  0.00    +0.056 N 
ATOM     23  O   UNL     1       4.065   1.751  -2.561  0.00  0.00    -0.126 OA
ATOM     24  O   UNL     1       3.330   3.442  -1.569  0.00  0.00    -0.126 OA
ENDBRANCH  18  22
ENDBRANCH  14  21
ENDBRANCH   1  15
TORSDOF 4
