REMARK  Name = ZINC19852349
REMARK  6 active torsions:
REMARK  status: ('A' for Active; 'I' for Inactive)
REMARK    1  A    between atoms: C_4  and  S_7
REMARK    2  A    between atoms: S_7  and  N_10
REMARK    3  A    between atoms: C_12  and  N_18
REMARK    4  A    between atoms: C_14  and  O_17
REMARK    5  A    between atoms: N_22  and  C_25
REMARK    6  A    between atoms: C_25  and  C_26
REMARK                            x       y       z     vdW  Elec       q    Type
REMARK                         _______ _______ _______ _____ _____    ______ ____
ROOT
ATOM      1  N   UNL     1      -2.645  -1.318  -2.084  0.00  0.00    -0.172 NA
ATOM      2  C   UNL     1      -1.917  -0.150  -1.560  0.00  0.00    +0.131 C 
ATOM      3  C   UNL     1      -1.350  -0.548  -0.181  0.00  0.00    +0.102 C 
ATOM      4  C   UNL     1      -1.314  -2.098  -0.250  0.00  0.00    +0.149 C 
ATOM      5  C   UNL     1      -2.582  -2.401  -1.086  0.00  0.00    +0.142 C 
ENDROOT
BRANCH   3   6
ATOM      6  N   UNL     1       0.002  -0.004   0.002  0.00  0.00    -0.297 NA
ATOM      7  C   UNL     1       0.660  -0.605   1.183  0.00  0.00    +0.083 C 
ATOM      8  C   UNL     1       2.153  -0.551   0.978  0.00  0.00    -0.003 C 
ATOM      9  C   UNL     1       2.773   0.718   1.584  0.00  0.00    -0.077 C 
ATOM     10  N   UNL     1       1.951   1.924   1.336  0.00  0.00    +0.384 N 
ATOM     11  C   UNL     1       1.404   1.995  -0.001  0.00  0.00    -0.063 C 
ATOM     12  C   UNL     1      -0.017   1.396   0.010  0.00  0.00    +0.066 C 
ATOM     13  H   UNL     1       1.070   1.849   1.991  0.00  0.00    -0.081 HD
BRANCH  10  14
ATOM     14  C   UNL     1       2.696   3.147   1.665  0.00  0.00    -0.022 C 
BRANCH  14  15
ATOM     15  C   UNL     1       3.854   3.301   0.713  0.00  0.00    +0.025 A 
ATOM     16  C   UNL     1       3.710   4.085  -0.416  0.00  0.00    +0.021 A 
ATOM     17  C   UNL     1       4.782   4.220  -1.286  0.00  0.00    +0.003 A 
ATOM     18  C   UNL     1       5.963   3.559  -0.985  0.00  0.00    +0.020 A 
ATOM     19  C   UNL     1       6.032   2.793   0.163  0.00  0.00    +0.111 A 
ATOM     20  N   UNL     1       4.994   2.690   0.969  0.00  0.00    -0.262 NA
ENDBRANCH  14  15
ENDBRANCH  10  14
ENDBRANCH   3   6
BRANCH   1  21
ATOM     21  S   UNL     1      -3.412  -1.399  -3.549  0.00  0.00    +0.061 S 
ATOM     22  O   UNL     1      -2.789  -0.436  -4.388  0.00  0.00    -0.153 OA
ATOM     23  O   UNL     1      -3.485  -2.776  -3.894  0.00  0.00    -0.153 OA
BRANCH  21  27
ATOM     24  C   UNL     1      -7.669   0.001  -2.912  0.00  0.00    +0.000 A 
ATOM     25  C   UNL     1      -6.685   0.912  -3.246  0.00  0.00    +0.002 A 
ATOM     26  C   UNL     1      -5.385   0.484  -3.441  0.00  0.00    +0.028 A 
ATOM     27  C   UNL     1      -5.069  -0.854  -3.301  0.00  0.00    +0.105 A 
ATOM     28  C   UNL     1      -6.055  -1.766  -2.972  0.00  0.00    +0.028 A 
ATOM     29  C   UNL     1      -7.354  -1.337  -2.773  0.00  0.00    +0.002 A 
ENDBRANCH  21  27
ENDBRANCH   1  21
BRANCH   4  30
ATOM     30  O   UNL     1      -1.411  -2.671   1.055  0.00  0.00    -0.389 OA
ATOM     31  H   UNL     1      -1.400  -3.764   1.178  0.00  0.00    +0.210 HD
ENDBRANCH   4  30
TORSDOF 6
