REMARK  Name = ZINC02755703
REMARK  9 active torsions:
REMARK  status: ('A' for Active; 'I' for Inactive)
REMARK    1  A    between atoms: C_1  and  C_2
REMARK    2  A    between atoms: C_2  and  C_3
REMARK    3  A    between atoms: C_3  and  C_4
REMARK    4  A    between atoms: C_4  and  O_5
REMARK    5  A    between atoms: O_5  and  C_6
REMARK    6  A    between atoms: C_6  and  C_8
REMARK    7  A    between atoms: C_9  and  C_25
REMARK    8  A    between atoms: N_10  and  C_24
REMARK    9  A    between atoms: C_14  and  C_16
REMARK                            x       y       z     vdW  Elec       q    Type
REMARK                         _______ _______ _______ _____ _____    ______ ____
ROOT
ATOM      1  C   UNL     1      -1.806   3.978   2.308  0.00  0.00    +0.078 C 
ATOM      2  C   UNL     1      -1.686   5.267   2.693  0.00  0.00    +0.024 C 
ATOM      3  N   UNL     1      -1.961   5.647   3.976  0.00  0.00    -0.262 N 
ATOM      4  C   UNL     1      -2.362   4.800   4.932  0.00  0.00    +0.307 C 
ATOM      5  O   UNL     1      -2.583   5.234   6.046  0.00  0.00    -0.252 OA
ATOM      6  N   UNL     1      -2.528   3.483   4.700  0.00  0.00    -0.288 N 
ATOM      7  C   UNL     1      -2.262   2.971   3.345  0.00  0.00    +0.144 C 
ATOM      8  C   UNL     1      -1.810   7.062   4.324  0.00  0.00    +0.139 C 
ATOM      9  C   UNL     1      -1.241   6.301   1.692  0.00  0.00    +0.061 C 
ATOM     10  H   UNL     1      -2.819   2.887   5.408  0.00  0.00    +0.151 HD
ENDROOT
BRANCH   7  11
ATOM     11  C   UNL     1      -3.520   2.317   2.836  0.00  0.00    -0.021 A 
ATOM     12  C   UNL     1      -4.735   2.965   2.961  0.00  0.00    +0.007 A 
ATOM     13  C   UNL     1      -5.889   2.369   2.490  0.00  0.00    +0.022 A 
ATOM     14  C   UNL     1      -5.831   1.118   1.902  0.00  0.00    +0.059 A 
ATOM     15  C   UNL     1      -4.615   0.466   1.782  0.00  0.00    +0.060 A 
ATOM     16  C   UNL     1      -3.460   1.067   2.249  0.00  0.00    +0.027 A 
ATOM     17 CL   UNL     1      -4.540  -1.103   1.044  0.00  0.00    -0.082 Cl
ATOM     18 CL   UNL     1      -7.282   0.365   1.317  0.00  0.00    -0.082 Cl
ENDBRANCH   7  11
BRANCH   1  19
ATOM     19  C   UNL     1      -1.521   3.582   0.980  0.00  0.00    +0.339 C 
ATOM     20  O   UNL     1      -1.264   4.421   0.137  0.00  0.00    -0.245 OA
BRANCH  19  21
ATOM     21  O   UNL     1      -1.536   2.274   0.648  0.00  0.00    -0.461 OA
BRANCH  21  22
ATOM     22  C   UNL     1      -1.239   1.946  -0.710  0.00  0.00    +0.232 C 
BRANCH  22  23
ATOM     23  C   UNL     1      -1.303   0.429  -0.894  0.00  0.00    +0.041 C 
BRANCH  23  25
ATOM     24  C   UNL     1      -1.049  -1.440  -2.534  0.00  0.00    +0.004 C 
ATOM     25  C   UNL     1      -0.985   0.078  -2.349  0.00  0.00    -0.000 C 
ENDBRANCH  23  25
ENDBRANCH  22  23
ENDBRANCH  21  22
ENDBRANCH  19  21
ENDBRANCH   1  19
TORSDOF 6
