REMARK  Name = ZINC45520473
REMARK  11 active torsions:
REMARK  status: ('A' for Active; 'I' for Inactive)
REMARK    1  A    between atoms: C_1  and  O_2
REMARK    2  A    between atoms: O_2  and  C_3
REMARK    3  A    between atoms: C_3  and  C_4
REMARK    4  A    between atoms: C_4  and  N_5
REMARK    5  A    between atoms: N_5  and  C_6
REMARK    6  A    between atoms: N_5  and  C_18
REMARK    7  A    between atoms: C_6  and  C_7
REMARK    8  A    between atoms: N_9  and  C_10
REMARK    9  A    between atoms: C_19  and  N_34
REMARK   10  A    between atoms: N_20  and  C_27
REMARK   11  A    between atoms: C_27  and  C_28
REMARK                            x       y       z     vdW  Elec       q    Type
REMARK                         _______ _______ _______ _____ _____    ______ ____
ROOT
ATOM      1  C   UNL     1       0.612  -2.377  -1.334  0.00  0.00    +0.134 A 
ATOM      2  C   UNL     1       1.266  -1.789  -2.383  0.00  0.00    +0.127 A 
ATOM      3  N   UNL     1       0.776  -1.949  -3.659  0.00  0.00    -0.276 N 
ATOM      4  C   UNL     1      -0.336  -2.676  -3.875  0.00  0.00    +0.331 A 
ATOM      5  O   UNL     1      -0.754  -2.808  -5.009  0.00  0.00    -0.246 OA
ATOM      6  N   UNL     1      -0.991  -3.261  -2.856  0.00  0.00    -0.273 N 
ATOM      7  H   UNL     1      -1.790  -3.781  -3.034  0.00  0.00    +0.173 HD
ATOM      8  C   UNL     1      -0.544  -3.136  -1.591  0.00  0.00    +0.277 A 
ATOM      9  O   UNL     1      -1.141  -3.673  -0.673  0.00  0.00    -0.266 OA
ENDROOT
BRANCH   2  10
ATOM     10  N   UNL     1       2.402  -1.044  -2.164  0.00  0.00    -0.343 N 
ATOM     11  H   UNL     1       2.788  -0.999  -1.275  0.00  0.00    +0.144 HD
ATOM     12  H   UNL     1       2.818  -0.566  -2.898  0.00  0.00    +0.144 HD
ENDBRANCH   2  10
BRANCH   1  13
ATOM     13  N   UNL     1       1.095  -2.228  -0.013  0.00  0.00    -0.312 N 
BRANCH  13  14
ATOM     14  C   UNL     1       0.303  -1.494   0.978  0.00  0.00    +0.134 C 
BRANCH  14  15
ATOM     15  C   UNL     1       0.781  -0.043   1.039  0.00  0.00    +0.178 C 
BRANCH  15  17
ATOM     16  C   UNL     1       0.925   1.968  -0.257  0.00  0.00    +0.194 C 
ATOM     17  O   UNL     1       0.514   0.601  -0.209  0.00  0.00    -0.381 OA
ENDBRANCH  15  17
ENDBRANCH  14  15
ENDBRANCH  13  14
BRANCH  13  18
ATOM     18  C   UNL     1       2.386  -2.807   0.364  0.00  0.00    +0.201 C 
BRANCH  18  19
ATOM     19  C   UNL     1       2.167  -4.163   0.984  0.00  0.00    +0.231 C 
ATOM     20  O   UNL     1       1.043  -4.602   1.099  0.00  0.00    -0.274 OA
ATOM     21  N   UNL     1       3.221  -4.887   1.410  0.00  0.00    -0.311 N 
ATOM     22  H   UNL     1       4.120  -4.535   1.319  0.00  0.00    +0.149 HD
BRANCH  21  23
ATOM     23  C   UNL     1       3.008  -6.205   2.013  0.00  0.00    +0.073 C 
ATOM     24  C   UNL     1       2.704  -6.042   3.504  0.00  0.00    +0.022 C 
ATOM     25  C   UNL     1       2.099  -7.338   4.046  0.00  0.00    +0.002 C 
ATOM     26  C   UNL     1       1.053  -7.864   3.061  0.00  0.00    +0.000 C 
ATOM     27  C   UNL     1       1.545  -9.177   2.448  0.00  0.00    +0.000 C 
ATOM     28  C   UNL     1       2.617  -8.877   1.398  0.00  0.00    +0.000 C 
ATOM     29  C   UNL     1       3.932  -8.525   2.097  0.00  0.00    +0.002 C 
ATOM     30  C   UNL     1       4.269  -7.055   1.840  0.00  0.00    +0.022 C 
ENDBRANCH  21  23
ENDBRANCH  18  19
ENDBRANCH  13  18
ENDBRANCH   1  13
BRANCH   3  31
ATOM     31  C   UNL     1       1.468  -1.324  -4.789  0.00  0.00    +0.163 C 
BRANCH  31  32
ATOM     32  C   UNL     1       2.500  -2.276  -5.335  0.00  0.00    -0.028 A 
ATOM     33  C   UNL     1       3.787  -2.264  -4.832  0.00  0.00    +0.005 A 
ATOM     34  C   UNL     1       4.734  -3.138  -5.333  0.00  0.00    +0.000 A 
ATOM     35  C   UNL     1       4.393  -4.024  -6.337  0.00  0.00    +0.000 A 
ATOM     36  C   UNL     1       3.106  -4.037  -6.840  0.00  0.00    +0.000 A 
ATOM     37  C   UNL     1       2.158  -3.167  -6.336  0.00  0.00    +0.005 A 
ENDBRANCH  31  32
ENDBRANCH   3  31
TORSDOF 10
