REMARK  Name = ZINC11330013
REMARK  5 active torsions:
REMARK  status: ('A' for Active; 'I' for Inactive)
REMARK    1  A    between atoms: N_9  and  C_12
REMARK    2  A    between atoms: C_12  and  O_13
REMARK    3  A    between atoms: O_13  and  C_14
REMARK    4  A    between atoms: C_14  and  C_16
REMARK    5  A    between atoms: C_21  and  N_22
REMARK                            x       y       z     vdW  Elec       q    Type
REMARK                         _______ _______ _______ _____ _____    ______ ____
ROOT
ATOM      1  O   UNL     1       4.073  -3.607  -1.425  0.00  0.00    -0.441 OA
ENDROOT
BRANCH   1   2
ATOM      2  C   UNL     1       5.246  -3.067  -1.812  0.00  0.00    +0.343 C 
ATOM      3  O   UNL     1       5.912  -2.429  -1.021  0.00  0.00    -0.245 OA
BRANCH   2   4
ATOM      4  C   UNL     1       5.721  -3.251  -3.194  0.00  0.00    +0.081 A 
ATOM      5  C   UNL     1       5.018  -4.079  -4.074  0.00  0.00    +0.032 A 
ATOM      6  C   UNL     1       5.467  -4.247  -5.366  0.00  0.00    +0.019 A 
ATOM      7  C   UNL     1       6.614  -3.598  -5.799  0.00  0.00    +0.017 A 
ATOM      8  C   UNL     1       7.319  -2.778  -4.942  0.00  0.00    +0.024 A 
ATOM      9  C   UNL     1       6.878  -2.592  -3.637  0.00  0.00    +0.039 A 
ATOM     10 BR   UNL     1       4.515  -5.367  -6.556  0.00  0.00    -0.050 Br
BRANCH   9  11
ATOM     11  N   UNL     1       7.582  -1.762  -2.775  0.00  0.00    -0.357 N 
ATOM     12  H   UNL     1       7.334  -1.713  -1.838  0.00  0.00    +0.142 HD
ATOM     13  H   UNL     1       8.322  -1.231  -3.108  0.00  0.00    +0.142 HD
ENDBRANCH   9  11
ENDBRANCH   2   4
ENDBRANCH   1   2
BRANCH   1  14
ATOM     14  C   UNL     1       3.621  -3.297  -0.105  0.00  0.00    +0.353 C 
BRANCH  14  23
ATOM     15  C   UNL     1       0.663   2.013  -0.362  0.00  0.00    +0.001 A 
ATOM     16  C   UNL     1       1.792   2.493   0.275  0.00  0.00    +0.001 A 
ATOM     17  C   UNL     1       2.839   1.640   0.587  0.00  0.00    +0.014 A 
ATOM     18  C   UNL     1       2.752   0.297   0.257  0.00  0.00    +0.049 A 
ATOM     19  C   UNL     1       1.601  -0.193  -0.392  0.00  0.00    +0.049 A 
ATOM     20  C   UNL     1       0.562   0.672  -0.698  0.00  0.00    +0.014 A 
ATOM     21  C   UNL     1       1.833  -1.639  -0.593  0.00  0.00    +0.256 C 
ATOM     22  O   UNL     1       1.064  -2.413  -1.123  0.00  0.00    -0.269 OA
ATOM     23  N   UNL     1       3.041  -1.952  -0.090  0.00  0.00    -0.199 N 
ATOM     24  C   UNL     1       3.646  -0.868   0.429  0.00  0.00    +0.256 C 
ATOM     25  O   UNL     1       4.742  -0.850   0.950  0.00  0.00    -0.269 OA
ENDBRANCH  14  23
ENDBRANCH   1  14
TORSDOF 5
