REMARK  Name = ZINC03849246
REMARK  4 active torsions:
REMARK  status: ('A' for Active; 'I' for Inactive)
REMARK    1  A    between atoms: C_1  and  C_2
REMARK    2  A    between atoms: C_4  and  C_22
REMARK    3  A    between atoms: C_8  and  N_12
REMARK    4  A    between atoms: N_13  and  C_14
REMARK                            x       y       z     vdW  Elec       q    Type
REMARK                         _______ _______ _______ _____ _____    ______ ____
ROOT
ATOM      1  C   UNL     1       2.358  -5.613  -0.049  0.00  0.00    +0.066 C 
ATOM      2  C   UNL     1       3.345  -4.475  -0.053  0.00  0.00    +0.042 A 
ATOM      3  C   UNL     1       4.719  -4.742  -0.068  0.00  0.00    +0.046 A 
ATOM      4  C   UNL     1       5.598  -3.707  -0.071  0.00  0.00    +0.044 A 
ATOM      5  N   UNL     1       5.122  -2.430  -0.060  0.00  0.00    -0.215 N 
ATOM      6  C   UNL     1       3.772  -2.211  -0.046  0.00  0.00    +0.185 A 
ATOM      7  N   UNL     1       2.915  -3.232  -0.042  0.00  0.00    -0.231 NA
ATOM      8  C   UNL     1       3.586  -0.814  -0.036  0.00  0.00    +0.171 A 
ATOM      9  C   UNL     1       4.873  -0.229  -0.052  0.00  0.00    +0.168 A 
ATOM     10  N   UNL     1       5.768  -1.189  -0.060  0.00  0.00    -0.148 NA
ATOM     11  N   UNL     1       5.145   1.137  -0.054  0.00  0.00    -0.340 N 
ATOM     12  C   UNL     1       7.083  -3.967  -0.087  0.00  0.00    +0.066 C 
ATOM     13  H   UNL     1       4.416   1.777  -0.045  0.00  0.00    +0.144 HD
ATOM     14  H   UNL     1       6.064   1.448  -0.065  0.00  0.00    +0.144 HD
ENDROOT
BRANCH   8  15
ATOM     15  N   UNL     1       2.406  -0.160  -0.022  0.00  0.00    -0.142 NA
ATOM     16  N   UNL     1       2.383   1.130  -0.015  0.00  0.00    -0.148 NA
BRANCH  16  17
ATOM     17  C   UNL     1       1.187   1.792   0.000  0.00  0.00    +0.106 A 
ATOM     18  C   UNL     1      -0.013   1.076   0.008  0.00  0.00    +0.051 A 
ATOM     19  C   UNL     1      -1.216   1.751   0.017  0.00  0.00    +0.043 A 
ATOM     20  C   UNL     1      -1.237   3.136   0.029  0.00  0.00    +0.021 A 
ATOM     21  C   UNL     1      -0.053   3.853   0.022  0.00  0.00    +0.023 A 
ATOM     22  C   UNL     1       1.158   3.190   0.008  0.00  0.00    +0.068 A 
ATOM     23 CL   UNL     1       2.642   4.091  -0.001  0.00  0.00    -0.081 Cl
ATOM     24 CL   UNL     1      -2.708   0.863   0.019  0.00  0.00    -0.083 Cl
ENDBRANCH  16  17
ENDBRANCH   8  15
TORSDOF 2
