REMARK  Name = ZINC04889847
REMARK  9 active torsions:
REMARK  status: ('A' for Active; 'I' for Inactive)
REMARK    1  A    between atoms: C_1  and  C_2
REMARK    2  A    between atoms: C_2  and  O_3
REMARK    3  A    between atoms: O_3  and  C_4
REMARK    4  A    between atoms: C_4  and  C_6
REMARK    5  A    between atoms: C_6  and  C_31
REMARK    6  A    between atoms: C_11  and  C_13
REMARK    7  A    between atoms: N_20  and  C_23
REMARK    8  A    between atoms: C_27  and  O_29
REMARK    9  A    between atoms: O_29  and  C_30
REMARK                            x       y       z     vdW  Elec       q    Type
REMARK                         _______ _______ _______ _____ _____    ______ ____
ROOT
ATOM      1  C   UNL     1      -1.908   4.555  -0.272  0.00  0.00    +0.041 C 
ATOM      2  C   UNL     1      -1.891   4.311   1.252  0.00  0.00    +0.086 C 
ATOM      3  C   UNL     1      -1.421   2.838   1.415  0.00  0.00    +0.078 C 
ATOM      4  C   UNL     1      -1.194   2.336  -0.027  0.00  0.00    -0.020 C 
ATOM      5  C   UNL     1      -0.085   2.975   2.110  0.00  0.00    +0.229 C 
ATOM      6  O   UNL     1       0.636   2.054   2.429  0.00  0.00    -0.275 OA
ATOM      7  N   UNL     1       0.178   4.270   2.317  0.00  0.00    -0.210 N 
ATOM      8  C   UNL     1      -0.778   5.123   1.874  0.00  0.00    +0.229 C 
ATOM      9  O   UNL     1      -0.756   6.332   1.959  0.00  0.00    -0.275 OA
ATOM     10  C   UNL     1      -1.446   5.979  -0.588  0.00  0.00    +0.002 C 
ATOM     11  N   UNL     1      -0.972   3.560  -0.796  0.00  0.00    +0.396 N 
ATOM     12  H   UNL     1      -0.005   3.885  -0.676  0.00  0.00    -0.083 HD
ATOM     13  H   UNL     1      -1.155   3.392  -1.792  0.00  0.00    -0.083 HD
ENDROOT
BRANCH   7  14
ATOM     14  C   UNL     1       1.349   4.715   2.946  0.00  0.00    +0.047 A 
ATOM     15  C   UNL     1       1.562   4.445   4.292  0.00  0.00    +0.024 A 
ATOM     16  C   UNL     1       2.718   4.879   4.910  0.00  0.00    +0.005 A 
ATOM     17  C   UNL     1       3.662   5.591   4.194  0.00  0.00    +0.046 A 
ATOM     18  C   UNL     1       3.452   5.869   2.851  0.00  0.00    +0.122 A 
ATOM     19  C   UNL     1       2.295   5.430   2.226  0.00  0.00    +0.069 A 
BRANCH  18  20
ATOM     20  O   UNL     1       4.380   6.570   2.149  0.00  0.00    -0.495 OA
ATOM     21  C   UNL     1       5.548   6.990   2.856  0.00  0.00    +0.277 C 
ENDBRANCH  18  20
ENDBRANCH   7  14
BRANCH   4  22
ATOM     22  C   UNL     1       0.005   1.425  -0.083  0.00  0.00    -0.023 A 
ATOM     23  C   UNL     1       0.047   0.071  -0.135  0.00  0.00    +0.009 A 
ATOM     24  C   UNL     1       1.275  -0.560  -0.186  0.00  0.00    +0.008 A 
ATOM     25  C   UNL     1       2.402   0.193  -0.183  0.00  0.00    +0.045 A 
ATOM     26  S   UNL     1       1.739   1.849  -0.105  0.00  0.00    -0.103 S 
ENDBRANCH   4  22
BRANCH   1  27
ATOM     27  C   UNL     1      -3.287   4.316  -0.830  0.00  0.00    +0.297 C 
ATOM     28  O   UNL     1      -4.259   4.484  -0.131  0.00  0.00    -0.252 OA
BRANCH  27  29
ATOM     29  O   UNL     1      -3.436   3.916  -2.102  0.00  0.00    -0.466 OA
BRANCH  29  31
ATOM     30  C   UNL     1      -4.763   3.255  -4.034  0.00  0.00    +0.048 C 
ATOM     31  C   UNL     1      -4.794   3.705  -2.572  0.00  0.00    +0.228 C 
ENDBRANCH  29  31
ENDBRANCH  27  29
ENDBRANCH   1  27
TORSDOF 6
