REMARK  Name = ZINC56237775
REMARK  7 active torsions:
REMARK  status: ('A' for Active; 'I' for Inactive)
REMARK    1  A    between atoms: C_1  and  C_2
REMARK    2  A    between atoms: C_2  and  C_4
REMARK    3  A    between atoms: C_2  and  N_21
REMARK    4  A    between atoms: C_4  and  C_5
REMARK    5  A    between atoms: C_15  and  O_17
REMARK    6  A    between atoms: O_17  and  C_18
REMARK    7  A    between atoms: C_22  and  C_24
REMARK                            x       y       z     vdW  Elec       q    Type
REMARK                         _______ _______ _______ _____ _____    ______ ____
ROOT
ATOM      1  C   UNL     1      -1.414  -2.036   0.129  0.00  0.00    +0.222 C 
ATOM      2  O   UNL     1      -0.356  -2.630   0.129  0.00  0.00    -0.275 OA
ATOM      3  N   UNL     1      -2.569  -2.717   0.259  0.00  0.00    -0.271 N 
ATOM      4  C   UNL     1      -3.860  -2.021   0.174  0.00  0.00    +0.114 C 
ATOM      5  C   UNL     1      -4.749  -2.541   1.312  0.00  0.00    +0.024 C 
ATOM      6  C   UNL     1      -5.006  -4.032   1.095  0.00  0.00    +0.038 C 
ATOM      7  C   UNL     1      -3.708  -4.766   0.881  0.00  0.00    -0.022 A 
ATOM      8  C   UNL     1      -2.560  -4.105   0.472  0.00  0.00    +0.040 A 
ATOM      9  C   UNL     1      -1.379  -4.811   0.274  0.00  0.00    +0.027 A 
ATOM     10  C   UNL     1      -1.346  -6.176   0.480  0.00  0.00    +0.048 A 
ATOM     11  C   UNL     1      -2.493  -6.841   0.887  0.00  0.00    +0.127 A 
ATOM     12  C   UNL     1      -3.671  -6.134   1.094  0.00  0.00    +0.051 A 
ENDROOT
BRANCH   1  13
ATOM     13  C   UNL     1      -1.435  -0.536  -0.018  0.00  0.00    +0.118 C 
BRANCH  13  15
ATOM     14  C   UNL     1      -0.025   1.526  -0.047  0.00  0.00    +0.028 C 
ATOM     15  C   UNL     1      -0.001  -0.004  -0.024  0.00  0.00    +0.079 C 
BRANCH  15  16
ATOM     16  N   UNL     1       0.699  -0.499  -1.212  0.00  0.00    -0.308 N 
ATOM     17  C   UNL     1       2.042  -0.607  -1.208  0.00  0.00    +0.244 C 
ATOM     18  O   UNL     1       2.673  -0.293  -0.217  0.00  0.00    -0.270 OA
ATOM     19  H   UNL     1       0.195  -0.750  -2.002  0.00  0.00    +0.149 HD
BRANCH  17  20
ATOM     20  C   UNL     1       2.748  -1.106  -2.407  0.00  0.00    +0.037 A 
ATOM     21  C   UNL     1       2.026  -1.462  -3.547  0.00  0.00    +0.013 A 
ATOM     22  C   UNL     1       2.691  -1.927  -4.663  0.00  0.00    +0.001 A 
ATOM     23  C   UNL     1       4.070  -2.042  -4.653  0.00  0.00    +0.000 A 
ATOM     24  C   UNL     1       4.791  -1.692  -3.525  0.00  0.00    +0.001 A 
ATOM     25  C   UNL     1       4.139  -1.219  -2.405  0.00  0.00    +0.013 A 
ENDBRANCH  17  20
ENDBRANCH  15  16
ENDBRANCH  13  15
ENDBRANCH   1  13
BRANCH  11  26
ATOM     26  O   UNL     1      -2.462  -8.184   1.092  0.00  0.00    -0.434 OA
BRANCH  26  27
ATOM     27  C   UNL     1      -1.216  -8.847   0.870  0.00  0.00    +0.541 C 
ATOM     28  F   UNL     1      -0.819  -8.660  -0.458  0.00  0.00    -0.166 F 
ATOM     29  F   UNL     1      -0.246  -8.313   1.726  0.00  0.00    -0.166 F 
ENDBRANCH  26  27
ENDBRANCH  11  26
TORSDOF 6
