REMARK  Name = ZINC56145247
REMARK  4 active torsions:
REMARK  status: ('A' for Active; 'I' for Inactive)
REMARK    1  A    between atoms: C_3  and  C_6
REMARK    2  A    between atoms: C_12  and  C_14
REMARK    3  A    between atoms: C_17  and  S_19
REMARK    4  A    between atoms: S_19  and  N_22
REMARK                            x       y       z     vdW  Elec       q    Type
REMARK                         _______ _______ _______ _____ _____    ______ ____
ROOT
ATOM      1  C   UNL     1       3.761   1.845  -0.024  0.00  0.00    +0.113 C 
ATOM      2  C   UNL     1       4.356   1.771   1.397  0.00  0.00    +0.029 C 
ATOM      3  C   UNL     1       5.822   1.333   1.138  0.00  0.00    +0.021 C 
ATOM      4  C   UNL     1       5.652   0.380  -0.072  0.00  0.00    +0.109 C 
ATOM      5  N   UNL     1       4.590   0.998  -0.893  0.00  0.00    -0.287 N 
ATOM      6  C   UNL     1       4.409   0.814  -2.216  0.00  0.00    +0.282 C 
ATOM      7  O   UNL     1       3.494   1.377  -2.789  0.00  0.00    -0.267 OA
ENDROOT
BRANCH   1  10
ATOM      8  C   UNL     1      -0.016   1.351   0.009  0.00  0.00    +0.008 A 
ATOM      9  C   UNL     1       1.183   2.038   0.002  0.00  0.00    +0.013 A 
ATOM     10  C   UNL     1       2.343   1.336  -0.013  0.00  0.00    +0.010 A 
ATOM     11  S   UNL     1       1.754  -0.349  -0.017  0.00  0.00    -0.100 S 
ATOM     12  C   UNL     1       0.002  -0.004   0.002  0.00  0.00    +0.045 A 
ENDBRANCH   1  10
BRANCH   6  13
ATOM     13  C   UNL     1       5.314  -0.063  -2.966  0.00  0.00    +0.192 A 
ATOM     14  C   UNL     1       5.247  -0.331  -4.303  0.00  0.00    +0.057 A 
ATOM     15  C   UNL     1       6.302  -1.212  -4.591  0.00  0.00    +0.072 A 
ATOM     16  C   UNL     1       6.957  -1.440  -3.432  0.00  0.00    +0.258 A 
ATOM     17  O   UNL     1       6.362  -0.742  -2.456  0.00  0.00    -0.432 OA
BRANCH  16  18
ATOM     18  S   UNL     1       8.366  -2.480  -3.238  0.00  0.00    +0.089 S 
ATOM     19  O   UNL     1       8.390  -2.881  -1.875  0.00  0.00    -0.150 OA
ATOM     20  O   UNL     1       8.330  -3.416  -4.306  0.00  0.00    -0.150 OA
BRANCH  18  21
ATOM     21  N   UNL     1       9.707  -1.538  -3.478  0.00  0.00    -0.201 NA
ATOM     22  H   UNL     1      10.536  -1.750  -3.022  0.00  0.00    +0.144 HD
ATOM     23  H   UNL     1       9.663  -0.775  -4.075  0.00  0.00    +0.144 HD
ENDBRANCH  18  21
ENDBRANCH  16  18
ENDBRANCH   6  13
TORSDOF 4
