REMARK  Name = ZINC48893834
REMARK  5 active torsions:
REMARK  status: ('A' for Active; 'I' for Inactive)
REMARK    1  A    between atoms: C_3  and  N_19
REMARK    2  A    between atoms: C_6  and  C_7
REMARK    3  A    between atoms: C_7  and  C_8
REMARK    4  A    between atoms: C_8  and  N_9
REMARK    5  A    between atoms: N_9  and  C_10
REMARK                            x       y       z     vdW  Elec       q    Type
REMARK                         _______ _______ _______ _____ _____    ______ ____
ROOT
ATOM      1  C   UNL     1      -1.744  -1.028  -1.429  0.00  0.00    +0.106 C 
ENDROOT
BRANCH   1   2
ATOM      2  N   UNL     1      -3.003  -1.778  -1.421  0.00  0.00    -0.341 N 
ATOM      3  H   UNL     1      -3.412  -2.031  -0.579  0.00  0.00    +0.146 HD
BRANCH   2   4
ATOM      4  C   UNL     1      -3.609  -2.126  -2.617  0.00  0.00    +0.071 A 
ATOM      5  C   UNL     1      -3.017  -1.767  -3.846  0.00  0.00    +0.157 A 
ATOM      6  N   UNL     1      -3.586  -2.093  -4.973  0.00  0.00    -0.177 NA
ATOM      7  N   UNL     1      -4.791  -2.804  -4.993  0.00  0.00    -0.242 N 
ATOM      8  H   UNL     1      -5.197  -3.037  -5.843  0.00  0.00    +0.192 HD
ATOM      9  C   UNL     1      -5.391  -3.167  -3.843  0.00  0.00    +0.285 A 
ATOM     10  O   UNL     1      -6.443  -3.788  -3.868  0.00  0.00    -0.265 OA
ATOM     11  C   UNL     1      -4.798  -2.834  -2.617  0.00  0.00    +0.129 A 
ATOM     12 CL   UNL     1      -5.547  -3.297  -1.121  0.00  0.00    -0.076 Cl
ENDBRANCH   2   4
ENDBRANCH   1   2
BRANCH   1  13
ATOM     13  C   UNL     1      -1.293  -0.775   0.010  0.00  0.00    +0.054 C 
BRANCH  13  19
ATOM     14  C   UNL     1      -0.017   1.378   0.010  0.00  0.00    +0.006 A 
ATOM     15  C   UNL     1       1.171   2.086   0.002  0.00  0.00    +0.033 A 
ATOM     16  C   UNL     1       2.377   1.411  -0.013  0.00  0.00    +0.126 A 
ATOM     17  C   UNL     1       2.396   0.029  -0.020  0.00  0.00    +0.033 A 
ATOM     18  C   UNL     1       1.208  -0.679  -0.012  0.00  0.00    +0.006 A 
ATOM     19  C   UNL     1       0.002  -0.004   0.002  0.00  0.00    -0.046 A 
BRANCH  16  20
ATOM     20  N   UNL     1       3.649   2.168  -0.022  0.00  0.00    +0.056 N 
ATOM     21  O   UNL     1       3.633   3.377  -0.016  0.00  0.00    -0.126 OA
ATOM     22  O   UNL     1       4.704   1.578  -0.035  0.00  0.00    -0.126 OA
ENDBRANCH  16  20
ENDBRANCH  13  19
ENDBRANCH   1  13
TORSDOF 5
