REMARK  Name = ZINC00939599
REMARK  8 active torsions:
REMARK  status: ('A' for Active; 'I' for Inactive)
REMARK    1  A    between atoms: C_4  and  N_7
REMARK    2  A    between atoms: N_7  and  C_8
REMARK    3  A    between atoms: C_8  and  N_10
REMARK    4  A    between atoms: N_10  and  C_11
REMARK    5  A    between atoms: C_11  and  C_13
REMARK    6  A    between atoms: C_11  and  N_17
REMARK    7  A    between atoms: C_18  and  C_20
REMARK    8  A    between atoms: C_24  and  N_26
REMARK                            x       y       z     vdW  Elec       q    Type
REMARK                         _______ _______ _______ _____ _____    ______ ____
ROOT
ATOM      1  C   UNL     1       1.207   8.277   0.257  0.00  0.00    +0.211 C 
ENDROOT
BRANCH   1   2
ATOM      2  C   UNL     1       2.424   8.797   1.026  0.00  0.00    +0.225 C 
ATOM      3 CL   UNL     1       3.868   7.801   0.609  0.00  0.00    -0.080 Cl
ATOM      4 CL   UNL     1       2.730  10.516   0.576  0.00  0.00    -0.080 Cl
ATOM      5 CL   UNL     1       2.108   8.687   2.797  0.00  0.00    -0.080 Cl
ENDBRANCH   1   2
BRANCH   1   6
ATOM      6  N   UNL     1       0.959   6.881   0.623  0.00  0.00    -0.290 N 
ATOM      7  C   UNL     1      -0.296   6.468   0.892  0.00  0.00    +0.246 C 
ATOM      8  O   UNL     1      -1.221   7.254   0.831  0.00  0.00    -0.270 OA
ATOM      9  H   UNL     1       1.697   6.253   0.671  0.00  0.00    +0.151 HD
BRANCH   7  10
ATOM     10  C   UNL     1      -0.546   5.058   1.261  0.00  0.00    +0.039 A 
ATOM     11  C   UNL     1       0.514   4.153   1.332  0.00  0.00    +0.013 A 
ATOM     12  C   UNL     1       0.273   2.839   1.676  0.00  0.00    +0.003 A 
ATOM     13  C   UNL     1      -1.016   2.418   1.951  0.00  0.00    +0.033 A 
ATOM     14  C   UNL     1      -2.072   3.309   1.878  0.00  0.00    +0.127 A 
ATOM     15  C   UNL     1      -1.844   4.627   1.540  0.00  0.00    +0.045 A 
BRANCH  14  16
ATOM     16  N   UNL     1      -3.448   2.848   2.168  0.00  0.00    +0.056 N 
ATOM     17  O   UNL     1      -3.651   1.686   2.471  0.00  0.00    -0.126 OA
ATOM     18  O   UNL     1      -4.379   3.631   2.103  0.00  0.00    -0.126 OA
ENDBRANCH  14  16
ENDBRANCH   7  10
ENDBRANCH   1   6
BRANCH   1  19
ATOM     19  N   UNL     1       1.464   8.367  -1.182  0.00  0.00    -0.305 N 
ATOM     20  H   UNL     1       2.316   8.076  -1.542  0.00  0.00    +0.150 HD
BRANCH  19  21
ATOM     21  C   UNL     1       0.516   8.854  -2.007  0.00  0.00    +0.136 C 
ATOM     22  S   UNL     1      -0.989   9.368  -1.372  0.00  0.00    -0.019 S 
BRANCH  21  23
ATOM     23  N   UNL     1       0.752   8.937  -3.331  0.00  0.00    -0.297 N 
ATOM     24  H   UNL     1       1.625   8.704  -3.684  0.00  0.00    +0.154 HD
BRANCH  23  28
ATOM     25  C   UNL     1      -2.267  10.194  -5.912  0.00  0.00    +0.000 A 
ATOM     26  C   UNL     1      -2.034  10.882  -4.735  0.00  0.00    +0.002 A 
ATOM     27  C   UNL     1      -1.034  10.468  -3.878  0.00  0.00    +0.023 A 
ATOM     28  C   UNL     1      -0.262   9.359  -4.198  0.00  0.00    +0.033 A 
ATOM     29  C   UNL     1      -0.495   8.673  -5.383  0.00  0.00    +0.023 A 
ATOM     30  C   UNL     1      -1.500   9.089  -6.234  0.00  0.00    +0.002 A 
ENDBRANCH  23  28
ENDBRANCH  21  23
ENDBRANCH  19  21
ENDBRANCH   1  19
TORSDOF 8
