REMARK  Name = ZINC66463402
REMARK  6 active torsions:
REMARK  status: ('A' for Active; 'I' for Inactive)
REMARK    1  A    between atoms: C_1  and  C_2
REMARK    2  A    between atoms: C_2  and  C_4
REMARK    3  A    between atoms: C_4  and  O_5
REMARK    4  A    between atoms: O_5  and  C_6
REMARK    5  A    between atoms: C_10  and  N_12
REMARK    6  A    between atoms: C_13  and  C_15
REMARK                            x       y       z     vdW  Elec       q    Type
REMARK                         _______ _______ _______ _____ _____    ______ ____
ROOT
ATOM      1  N   UNL     1       0.053  -6.579  -2.899  0.00  0.00    -0.285 N 
ATOM      2  C   UNL     1      -0.048  -7.391  -3.970  0.00  0.00    +0.225 C 
ATOM      3  O   UNL     1      -0.060  -6.921  -5.088  0.00  0.00    -0.275 OA
ATOM      4  H   UNL     1       0.130  -6.957  -2.009  0.00  0.00    +0.155 HD
ENDROOT
BRANCH   2   5
ATOM      5  C   UNL     1      -0.145  -8.882  -3.778  0.00  0.00    +0.116 C 
ATOM      6  C   UNL     1       1.101  -9.385  -3.048  0.00  0.00    +0.113 C 
ATOM      7  C   UNL     1       2.292  -9.324  -3.967  0.00  0.00    +0.218 C 
ATOM      8  O   UNL     1       3.383  -9.049  -3.516  0.00  0.00    -0.275 OA
ATOM      9  N   UNL     1       2.159  -9.573  -5.283  0.00  0.00    -0.285 N 
ATOM     10  C   UNL     1       0.906  -9.876  -5.824  0.00  0.00    +0.037 A 
ATOM     11  C   UNL     1      -0.248  -9.556  -5.121  0.00  0.00    -0.014 A 
ATOM     12  C   UNL     1      -1.485  -9.856  -5.655  0.00  0.00    +0.006 A 
ATOM     13  C   UNL     1      -1.576 -10.474  -6.889  0.00  0.00    +0.000 A 
ATOM     14  C   UNL     1      -0.428 -10.794  -7.591  0.00  0.00    +0.002 A 
ATOM     15  C   UNL     1       0.812 -10.495  -7.063  0.00  0.00    +0.023 A 
ATOM     16  H   UNL     1       2.939  -9.541  -5.860  0.00  0.00    +0.155 HD
ENDBRANCH   2   5
BRANCH   1  21
ATOM     17  C   UNL     1      -0.562  -3.001  -2.297  0.00  0.00    +0.123 A 
ATOM     18  C   UNL     1       0.037  -2.442  -3.417  0.00  0.00    +0.046 A 
ATOM     19  C   UNL     1       0.638  -3.254  -4.360  0.00  0.00    +0.005 A 
ATOM     20  C   UNL     1       0.644  -4.625  -4.190  0.00  0.00    +0.023 A 
ATOM     21  C   UNL     1       0.047  -5.190  -3.071  0.00  0.00    +0.037 A 
ATOM     22  C   UNL     1      -0.552  -4.375  -2.120  0.00  0.00    +0.069 A 
BRANCH  17  23
ATOM     23  O   UNL     1      -1.152  -2.200  -1.371  0.00  0.00    -0.488 OA
BRANCH  23  24
ATOM     24  C   UNL     1      -1.124  -0.793  -1.617  0.00  0.00    +0.259 C 
BRANCH  24  26
ATOM     25  C   UNL     1      -1.929   1.431  -0.513  0.00  0.00    +0.042 C 
ATOM     26  C   UNL     1      -1.821  -0.072  -0.493  0.00  0.00    -0.043 C 
ATOM     27  C   UNL     1      -2.333  -0.751   0.503  0.00  0.00    +0.011 C 
ENDBRANCH  24  26
ENDBRANCH  23  24
ENDBRANCH  17  23
ENDBRANCH   1  21
TORSDOF 5
