REMARK  Name = ZINC62788456
REMARK  8 active torsions:
REMARK  status: ('A' for Active; 'I' for Inactive)
REMARK    1  A    between atoms: C_3  and  C_16
REMARK    2  A    between atoms: C_4  and  N_8
REMARK    3  A    between atoms: N_8  and  C_9
REMARK    4  A    between atoms: C_9  and  C_10
REMARK    5  A    between atoms: C_10  and  C_11
REMARK    6  A    between atoms: C_11  and  S_12
REMARK    7  A    between atoms: S_12  and  N_15
REMARK    8  A    between atoms: C_16  and  N_18
REMARK                            x       y       z     vdW  Elec       q    Type
REMARK                         _______ _______ _______ _____ _____    ______ ____
ROOT
ATOM      1  C   UNL     1      -0.014   1.388   0.007  0.00  0.00    +0.021 A 
ATOM      2  C   UNL     1       1.169   2.095  -0.008  0.00  0.00    +0.013 A 
ATOM      3  C   UNL     1       2.388   1.413  -0.021  0.00  0.00    +0.024 A 
ATOM      4  C   UNL     1       2.398   0.008  -0.018  0.00  0.00    +0.038 A 
ATOM      5  C   UNL     1       1.197  -0.687  -0.003  0.00  0.00    +0.043 A 
ATOM      6  C   UNL     1      -0.001   0.001   0.010  0.00  0.00    +0.043 A 
ATOM      7 CL   UNL     1      -1.499  -0.876   0.030  0.00  0.00    -0.083 Cl
ENDROOT
BRANCH   4   8
ATOM      8  N   UNL     1       3.605  -0.681  -0.032  0.00  0.00    -0.343 N 
ATOM      9  H   UNL     1       4.442  -0.196   0.036  0.00  0.00    +0.146 HD
BRANCH   8  10
ATOM     10  C   UNL     1       3.612  -2.142  -0.148  0.00  0.00    +0.103 C 
BRANCH  10  11
ATOM     11  C   UNL     1       5.056  -2.647  -0.138  0.00  0.00    +0.043 C 
BRANCH  11  12
ATOM     12  C   UNL     1       5.064  -4.172  -0.259  0.00  0.00    +0.186 C 
BRANCH  12  13
ATOM     13  S   UNL     1       6.776  -4.771  -0.248  0.00  0.00    +0.027 S 
ATOM     14  O   UNL     1       7.447  -4.359  -1.431  0.00  0.00    -0.158 OA
ATOM     15  O   UNL     1       7.362  -4.555   1.029  0.00  0.00    -0.158 OA
BRANCH  13  16
ATOM     16  N   UNL     1       6.653  -6.417  -0.383  0.00  0.00    -0.208 NA
ATOM     17  H   UNL     1       5.779  -6.834  -0.447  0.00  0.00    +0.144 HD
ATOM     18  H   UNL     1       7.454  -6.963  -0.399  0.00  0.00    +0.144 HD
ENDBRANCH  13  16
ENDBRANCH  12  13
ENDBRANCH  11  12
ENDBRANCH  10  11
ENDBRANCH   8  10
ENDBRANCH   4   8
BRANCH   3  19
ATOM     19  C   UNL     1       3.655   2.162  -0.038  0.00  0.00    +0.079 C 
ATOM     20  S   UNL     1       4.346   2.710   1.429  0.00  0.00    -0.035 S 
BRANCH  19  21
ATOM     21  N   UNL     1       4.272   2.417  -1.209  0.00  0.00    -0.352 N 
ATOM     22  H   UNL     1       3.881   2.107  -2.041  0.00  0.00    +0.143 HD
ATOM     23  H   UNL     1       5.107   2.911  -1.220  0.00  0.00    +0.143 HD
ENDBRANCH  19  21
ENDBRANCH   3  19
TORSDOF 8
