REMARK  Name = ZINC24800378
REMARK  15 active torsions:
REMARK  status: ('A' for Active; 'I' for Inactive)
REMARK    1  A    between atoms: C_1  and  C_2
REMARK    2  A    between atoms: C_2  and  C_3
REMARK    3  A    between atoms: C_3  and  N_4
REMARK    4  A    between atoms: N_4  and  C_5
REMARK    5  A    between atoms: N_4  and  C_17
REMARK    6  A    between atoms: C_5  and  C_6
REMARK    7  A    between atoms: N_8  and  C_9
REMARK    8  A    between atoms: C_17  and  C_18
REMARK    9  A    between atoms: N_20  and  C_21
REMARK   10  A    between atoms: N_20  and  C_22
REMARK   11  A    between atoms: C_22  and  C_23
REMARK   12  A    between atoms: N_25  and  C_26
REMARK   13  A    between atoms: C_26  and  C_27
REMARK   14  A    between atoms: C_26  and  C_28
REMARK   15  A    between atoms: C_26  and  C_29
REMARK                            x       y       z     vdW  Elec       q    Type
REMARK                         _______ _______ _______ _____ _____    ______ ____
ROOT
ATOM      1  N   UNL     1       1.569   1.143   0.451  0.00  0.00    +0.391 N 
ATOM      2  H   UNL     1       1.091   0.403  -0.207  0.00  0.00    -0.080 HD
ENDROOT
BRANCH   1   3
ATOM      3  C   UNL     1       1.333   0.731   1.841  0.00  0.00    -0.078 C 
BRANCH   3   5
ATOM      4  C   UNL     1      -0.326  -0.287   3.407  0.00  0.00    +0.002 C 
ATOM      5  C   UNL     1      -0.115   0.262   1.995  0.00  0.00    -0.022 C 
ENDBRANCH   3   5
ENDBRANCH   1   3
BRANCH   1   6
ATOM      6  C   UNL     1       0.959   2.451   0.178  0.00  0.00    +0.020 C 
BRANCH   6   7
ATOM      7  C   UNL     1       0.748   2.607  -1.306  0.00  0.00    +0.201 C 
ATOM      8  O   UNL     1       0.976   1.679  -2.052  0.00  0.00    -0.278 OA
ATOM      9  N   UNL     1       0.311   3.781  -1.804  0.00  0.00    -0.286 N 
ATOM     10  H   UNL     1       0.191   4.650  -1.140  0.00  0.00    +0.155 HD
BRANCH   9  11
ATOM     11  C   UNL     1       0.011   3.894  -3.167  0.00  0.00    +0.052 A 
ATOM     12  C   UNL     1      -0.248   2.756  -3.920  0.00  0.00    +0.026 A 
ATOM     13  C   UNL     1      -0.544   2.870  -5.264  0.00  0.00    +0.022 A 
ATOM     14  C   UNL     1      -0.583   4.118  -5.862  0.00  0.00    +0.042 A 
ATOM     15  C   UNL     1      -0.326   5.254  -5.115  0.00  0.00    +0.041 A 
ATOM     16  C   UNL     1      -0.035   5.146  -3.768  0.00  0.00    +0.064 A 
ATOM     17 CL   UNL     1       0.280   6.573  -2.830  0.00  0.00    -0.082 Cl
ATOM     18 CL   UNL     1      -0.956   4.258  -7.551  0.00  0.00    -0.083 Cl
ENDBRANCH   9  11
ENDBRANCH   6   7
ENDBRANCH   1   6
BRANCH   1  19
ATOM     19  C   UNL     1       3.006   1.158   0.143  0.00  0.00    +0.019 C 
BRANCH  19  20
ATOM     20  C   UNL     1       3.546  -0.248   0.197  0.00  0.00    +0.199 C 
ATOM     21  O   UNL     1       2.807  -1.171   0.465  0.00  0.00    -0.278 OA
ATOM     22  N   UNL     1       4.850  -0.479  -0.053  0.00  0.00    -0.297 N 
ATOM     23  C   UNL     1       5.742   0.637  -0.378  0.00  0.00    +0.132 C 
BRANCH  22  24
ATOM     24  C   UNL     1       5.375  -1.845  -0.001  0.00  0.00    +0.203 C 
BRANCH  24  25
ATOM     25  C   UNL     1       5.261  -2.480  -1.363  0.00  0.00    +0.231 C 
ATOM     26  O   UNL     1       4.788  -1.853  -2.286  0.00  0.00    -0.274 OA
ATOM     27  N   UNL     1       5.685  -3.745  -1.554  0.00  0.00    -0.309 N 
ATOM     28  H   UNL     1       6.114  -4.314  -0.717  0.00  0.00    +0.149 HD
BRANCH  27  29
ATOM     29  C   UNL     1       5.574  -4.362  -2.878  0.00  0.00    +0.026 C 
ATOM     30  C   UNL     1       6.379  -3.545  -3.891  0.00  0.00    +0.031 C 
ATOM     31  C   UNL     1       6.123  -5.789  -2.824  0.00  0.00    +0.031 C 
ATOM     32  C   UNL     1       4.105  -4.396  -3.304  0.00  0.00    +0.031 C 
ENDBRANCH  27  29
ENDBRANCH  24  25
ENDBRANCH  22  24
ENDBRANCH  19  20
ENDBRANCH   1  19
TORSDOF 10
