REMARK  Name = ZINC04374894
REMARK  10 active torsions:
REMARK  status: ('A' for Active; 'I' for Inactive)
REMARK    1  A    between atoms: C_1  and  C_2
REMARK    2  A    between atoms: C_2  and  N_3
REMARK    3  A    between atoms: N_6  and  C_7
REMARK    4  A    between atoms: C_10  and  C_13
REMARK    5  A    between atoms: C_15  and  C_24
REMARK    6  A    between atoms: C_16  and  C_23
REMARK    7  A    between atoms: N_17  and  C_21
REMARK    8  A    between atoms: C_21  and  C_22
REMARK    9  A    between atoms: C_24  and  O_26
REMARK   10  A    between atoms: O_26  and  C_27
REMARK                            x       y       z     vdW  Elec       q    Type
REMARK                         _______ _______ _______ _____ _____    ______ ____
ROOT
ATOM      1  C   UNL     1      -0.602   4.734   0.148  0.00  0.00    +0.141 C 
ATOM      2  C   UNL     1      -0.655   4.826   1.659  0.00  0.00    +0.078 C 
ATOM      3  C   UNL     1      -1.755   5.377   2.217  0.00  0.00    +0.021 C 
ATOM      4  N   UNL     1      -2.784   5.833   1.444  0.00  0.00    -0.286 N 
ATOM      5  C   UNL     1      -2.789   5.777   0.107  0.00  0.00    +0.138 C 
ATOM      6  S   UNL     1      -4.145   6.386  -0.742  0.00  0.00    -0.018 S 
ATOM      7  N   UNL     1      -1.763   5.255  -0.594  0.00  0.00    -0.315 N 
ATOM      8  C   UNL     1      -1.849   5.489   3.717  0.00  0.00    +0.061 C 
ATOM      9  H   UNL     1      -1.788   5.224  -1.563  0.00  0.00    +0.149 HD
ENDROOT
BRANCH   1  13
ATOM     10  C   UNL     1      -0.105   0.622  -0.905  0.00  0.00    +0.035 A 
ATOM     11  C   UNL     1      -1.379   1.143  -0.718  0.00  0.00    +0.024 A 
ATOM     12  C   UNL     1      -1.536   2.471  -0.372  0.00  0.00    +0.007 A 
ATOM     13  C   UNL     1      -0.427   3.284  -0.224  0.00  0.00    -0.022 A 
ATOM     14  C   UNL     1       0.842   2.769  -0.415  0.00  0.00    +0.007 A 
ATOM     15  C   UNL     1       1.006   1.441  -0.756  0.00  0.00    +0.024 A 
BRANCH  10  19
ATOM     16  N   UNL     1      -0.571  -2.960  -1.010  0.00  0.00    -0.299 N 
ATOM     17  C   UNL     1      -0.779  -1.655  -0.748  0.00  0.00    +0.304 C 
ATOM     18  O   UNL     1      -1.722  -1.316  -0.059  0.00  0.00    -0.253 OA
ATOM     19  N   UNL     1       0.057  -0.725  -1.250  0.00  0.00    -0.269 N 
ATOM     20  H   UNL     1       0.181  -3.231  -1.559  0.00  0.00    +0.150 HD
ATOM     21  H   UNL     1       0.772  -0.989  -1.850  0.00  0.00    +0.156 HD
BRANCH  16  23
ATOM     22  C   UNL     1      -1.022  -5.362  -0.908  0.00  0.00    +0.024 C 
ATOM     23  C   UNL     1      -1.480  -3.971  -0.464  0.00  0.00    +0.102 C 
ENDBRANCH  16  23
ENDBRANCH  10  19
ENDBRANCH   1  13
BRANCH   4  24
ATOM     24  C   UNL     1      -3.946   6.418   2.117  0.00  0.00    +0.109 C 
ATOM     25  C   UNL     1      -4.906   5.304   2.538  0.00  0.00    +0.025 C 
ENDBRANCH   4  24
BRANCH   2  26
ATOM     26  C   UNL     1       0.411   4.352   2.459  0.00  0.00    +0.339 C 
ATOM     27  O   UNL     1       0.346   4.436   3.671  0.00  0.00    -0.245 OA
BRANCH  26  28
ATOM     28  O   UNL     1       1.500   3.807   1.877  0.00  0.00    -0.465 OA
ATOM     29  C   UNL     1       2.538   3.349   2.745  0.00  0.00    +0.280 C 
ENDBRANCH  26  28
ENDBRANCH   2  26
TORSDOF 6
