REMARK  Name = ZINC09288043
REMARK  6 active torsions:
REMARK  status: ('A' for Active; 'I' for Inactive)
REMARK    1  A    between atoms: C_1  and  C_2
REMARK    2  A    between atoms: C_9  and  C_13
REMARK    3  A    between atoms: C_10  and  O_12
REMARK    4  A    between atoms: N_15  and  C_16
REMARK    5  A    between atoms: C_16  and  C_18
REMARK    6  A    between atoms: C_16  and  C_19
REMARK                            x       y       z     vdW  Elec       q    Type
REMARK                         _______ _______ _______ _____ _____    ______ ____
ROOT
ATOM      1  C   UNL     1      -2.485  -0.249   0.066  0.00  0.00    +0.064 C 
ATOM      2  C   UNL     1      -1.097  -0.834   0.030  0.00  0.00    +0.033 A 
ATOM      3  C   UNL     1      -0.927  -2.154   0.018  0.00  0.00    +0.070 A 
ATOM      4  S   UNL     1       0.851  -2.297  -0.025  0.00  0.00    -0.057 S 
ATOM      5  C   UNL     1       1.228  -0.609  -0.022  0.00  0.00    +0.184 A 
ATOM      6  N   UNL     1       0.003  -0.004   0.011  0.00  0.00    -0.258 N 
ATOM      7  C   UNL     1      -0.016   1.362   0.021  0.00  0.00    +0.275 A 
ATOM      8  O   UNL     1      -1.079   1.958   0.045  0.00  0.00    -0.266 OA
ATOM      9  C   UNL     1       1.196   2.080  -0.001  0.00  0.00    +0.162 A 
ATOM     10  C   UNL     1       2.412   1.370  -0.036  0.00  0.00    +0.232 A 
ATOM     11  N   UNL     1       2.371   0.042  -0.044  0.00  0.00    -0.187 NA
ENDROOT
BRANCH   9  12
ATOM     12  C   UNL     1       1.192   3.544   0.010  0.00  0.00    +0.255 C 
ATOM     13  O   UNL     1       2.241   4.155   0.097  0.00  0.00    -0.270 OA
ATOM     14  N   UNL     1       0.026   4.215  -0.077  0.00  0.00    -0.304 N 
ATOM     15  H   UNL     1      -0.814   3.731  -0.072  0.00  0.00    +0.150 HD
BRANCH  14  16
ATOM     16  C   UNL     1       0.028   5.677  -0.180  0.00  0.00    +0.100 C 
ATOM     17  C   UNL     1       0.203   6.085  -1.644  0.00  0.00    +0.033 C 
BRANCH  16  18
ATOM     18  C   UNL     1      -1.279   6.218   0.339  0.00  0.00    -0.027 A 
ATOM     19  C   UNL     1      -2.462   5.567   0.046  0.00  0.00    +0.005 A 
ATOM     20  C   UNL     1      -3.661   6.062   0.527  0.00  0.00    +0.000 A 
ATOM     21  C   UNL     1      -3.676   7.213   1.292  0.00  0.00    +0.000 A 
ATOM     22  C   UNL     1      -2.493   7.867   1.581  0.00  0.00    +0.000 A 
ATOM     23  C   UNL     1      -1.294   7.370   1.104  0.00  0.00    +0.005 A 
ENDBRANCH  16  18
ENDBRANCH  14  16
ENDBRANCH   9  12
BRANCH  10  24
ATOM     24  O   UNL     1       3.594   2.025  -0.059  0.00  0.00    -0.492 OA
ATOM     25  H   UNL     1       4.366   1.443  -0.081  0.00  0.00    +0.294 HD
ENDBRANCH  10  24
TORSDOF 4
