REMARK  Name = ZINC66940826
REMARK  11 active torsions:
REMARK  status: ('A' for Active; 'I' for Inactive)
REMARK    1  A    between atoms: C_1  and  C_2
REMARK    2  A    between atoms: C_5  and  N_11
REMARK    3  A    between atoms: C_7  and  C_8
REMARK    4  A    between atoms: N_11  and  C_12
REMARK    5  A    between atoms: C_12  and  C_14
REMARK    6  A    between atoms: C_12  and  C_15
REMARK    7  A    between atoms: N_17  and  C_18
REMARK    8  A    between atoms: C_18  and  C_20
REMARK    9  A    between atoms: C_18  and  C_21
REMARK   10  A    between atoms: C_26  and  O_27
REMARK   11  A    between atoms: O_27  and  C_28
REMARK                            x       y       z     vdW  Elec       q    Type
REMARK                         _______ _______ _______ _____ _____    ______ ____
ROOT
ATOM      1  C   UNL     1       0.536  -4.208  -1.737  0.00  0.00    +0.154 C 
ATOM      2  C   UNL     1      -0.958  -4.424  -1.987  0.00  0.00    +0.038 C 
ENDROOT
BRANCH   1   3
ATOM      3  C   UNL     1       1.251  -5.534  -1.785  0.00  0.00    +0.233 C 
ATOM      4  O   UNL     1       1.859  -5.930  -0.814  0.00  0.00    -0.274 OA
ATOM      5  N   UNL     1       1.213  -6.279  -2.907  0.00  0.00    -0.307 N 
ATOM      6  H   UNL     1       0.726  -5.962  -3.684  0.00  0.00    +0.149 HD
BRANCH   5   7
ATOM      7  C   UNL     1       1.908  -7.568  -2.954  0.00  0.00    +0.104 C 
ATOM      8  C   UNL     1       0.992  -8.661  -2.400  0.00  0.00    +0.033 C 
BRANCH   7   9
ATOM      9  C   UNL     1       2.271  -7.891  -4.380  0.00  0.00    +0.014 A 
ATOM     10  C   UNL     1       1.489  -7.419  -5.417  0.00  0.00    +0.009 A 
ATOM     11  C   UNL     1       1.821  -7.716  -6.726  0.00  0.00    +0.001 A 
ATOM     12  C   UNL     1       2.937  -8.486  -7.001  0.00  0.00    +0.004 A 
ATOM     13  C   UNL     1       3.722  -8.960  -5.968  0.00  0.00    +0.046 A 
ATOM     14  C   UNL     1       3.394  -8.659  -4.654  0.00  0.00    +0.125 A 
BRANCH  14  15
ATOM     15  O   UNL     1       4.168  -9.119  -3.636  0.00  0.00    -0.495 OA
ATOM     16  C   UNL     1       5.309  -9.903  -3.992  0.00  0.00    +0.277 C 
ENDBRANCH  14  15
ENDBRANCH   7   9
ENDBRANCH   5   7
ENDBRANCH   1   3
BRANCH   1  17
ATOM     17  N   UNL     1       0.727  -3.597  -0.419  0.00  0.00    -0.333 N 
ATOM     18  H   UNL     1       0.915  -4.156   0.351  0.00  0.00    +0.147 HD
BRANCH  17  23
ATOM     19  C   UNL     1       0.358   2.043   0.150  0.00  0.00    +0.044 C 
ATOM     20  C   UNL     1       0.456   0.546   0.003  0.00  0.00    -0.038 A 
ATOM     21  C   UNL     1       0.279  -0.038  -1.235  0.00  0.00    +0.006 A 
ATOM     22  C   UNL     1       0.368  -1.410  -1.376  0.00  0.00    +0.023 A 
ATOM     23  C   UNL     1       0.638  -2.211  -0.272  0.00  0.00    +0.028 A 
ATOM     24  C   UNL     1       0.818  -1.633   0.976  0.00  0.00    +0.036 A 
ATOM     25  C   UNL     1       0.733  -0.248   1.117  0.00  0.00    +0.041 A 
BRANCH  25  26
ATOM     26  C   UNL     1       0.930   0.376   2.442  0.00  0.00    +0.242 C 
ATOM     27  O   UNL     1       0.968   1.587   2.545  0.00  0.00    -0.270 OA
ATOM     28  N   UNL     1       1.069  -0.397   3.537  0.00  0.00    -0.325 N 
ATOM     29  H   UNL     1       1.040  -1.363   3.456  0.00  0.00    +0.145 HD
ATOM     30  H   UNL     1       1.199   0.012   4.407  0.00  0.00    +0.145 HD
ENDBRANCH  25  26
ENDBRANCH  17  23
ENDBRANCH   1  17
TORSDOF 7
