REMARK  Name = ZINC49240546
REMARK  10 active torsions:
REMARK  status: ('A' for Active; 'I' for Inactive)
REMARK    1  A    between atoms: C_1  and  C_2
REMARK    2  A    between atoms: C_2  and  C_3
REMARK    3  A    between atoms: C_3  and  C_5
REMARK    4  A    between atoms: C_3  and  N_8
REMARK    5  A    between atoms: C_5  and  C_6
REMARK    6  A    between atoms: C_5  and  C_7
REMARK    7  A    between atoms: N_8  and  S_9
REMARK    8  A    between atoms: S_9  and  C_12
REMARK    9  A    between atoms: C_12  and  C_13
REMARK   10  A    between atoms: C_16  and  N_19
REMARK                            x       y       z     vdW  Elec       q    Type
REMARK                         _______ _______ _______ _____ _____    ______ ____
ROOT
ATOM      1  S   UNL     1      -3.865   0.314  -0.853  0.00  0.00    +0.034 S 
ATOM      2  O   UNL     1      -4.399   0.609  -2.137  0.00  0.00    -0.158 OA
ATOM      3  O   UNL     1      -4.426  -0.720  -0.056  0.00  0.00    -0.158 OA
ENDROOT
BRANCH   1   4
ATOM      4  N   UNL     1      -2.309  -0.174  -1.144  0.00  0.00    -0.191 NA
ATOM      5  H   UNL     1      -1.966  -0.186  -2.051  0.00  0.00    +0.148 HD
BRANCH   4   6
ATOM      6  C   UNL     1      -1.451  -0.588  -0.031  0.00  0.00    +0.078 C 
BRANCH   6   7
ATOM      7  C   UNL     1      -1.117  -2.074  -0.170  0.00  0.00    +0.001 C 
ATOM      8  C   UNL     1      -0.322  -2.534   1.053  0.00  0.00    +0.009 C 
ATOM      9  C   UNL     1      -2.413  -2.881  -0.269  0.00  0.00    +0.009 C 
ENDBRANCH   6   7
BRANCH   6  11
ATOM     10  C   UNL     1      -0.481   1.702   0.211  0.00  0.00    +0.005 C 
ATOM     11  C   UNL     1      -0.158   0.230  -0.053  0.00  0.00    +0.017 C 
ENDBRANCH   6  11
ENDBRANCH   4   6
ENDBRANCH   1   4
BRANCH   1  12
ATOM     12  C   UNL     1      -3.702   1.835   0.121  0.00  0.00    +0.220 C 
BRANCH  12  13
ATOM     13  C   UNL     1      -5.072   2.373   0.446  0.00  0.00    -0.025 A 
ATOM     14  C   UNL     1      -5.690   3.259  -0.417  0.00  0.00    +0.007 A 
ATOM     15  C   UNL     1      -6.946   3.752  -0.119  0.00  0.00    +0.033 A 
ATOM     16  C   UNL     1      -7.586   3.358   1.042  0.00  0.00    +0.126 A 
ATOM     17  C   UNL     1      -6.969   2.471   1.904  0.00  0.00    +0.033 A 
ATOM     18  C   UNL     1      -5.714   1.975   1.604  0.00  0.00    +0.007 A 
BRANCH  16  19
ATOM     19  N   UNL     1      -8.931   3.886   1.362  0.00  0.00    +0.056 N 
ATOM     20  O   UNL     1      -9.470   4.662   0.608  0.00  0.00    -0.126 OA
ATOM     21  O   UNL     1      -9.490   3.542   2.377  0.00  0.00    -0.126 OA
ENDBRANCH  16  19
ENDBRANCH  12  13
ENDBRANCH   1  12
TORSDOF 7
