REMARK  Name = ZINC13252202
REMARK  8 active torsions:
REMARK  status: ('A' for Active; 'I' for Inactive)
REMARK    1  A    between atoms: C_3  and  N_21
REMARK    2  A    between atoms: C_5  and  S_7
REMARK    3  A    between atoms: S_7  and  N_10
REMARK    4  A    between atoms: N_10  and  C_11
REMARK    5  A    between atoms: C_14  and  S_17
REMARK    6  A    between atoms: S_17  and  C_18
REMARK    7  A    between atoms: C_22  and  C_24
REMARK    8  A    between atoms: C_30  and  C_32
REMARK                            x       y       z     vdW  Elec       q    Type
REMARK                         _______ _______ _______ _____ _____    ______ ____
ROOT
ATOM      1  C   UNL     1      -0.002   3.441  -5.351  0.00  0.00    +0.004 A 
ATOM      2  C   UNL     1       0.484   3.125  -4.097  0.00  0.00    +0.023 A 
ATOM      3  C   UNL     1       1.709   2.483  -3.971  0.00  0.00    +0.035 A 
ATOM      4  C   UNL     1       2.444   2.166  -5.106  0.00  0.00    +0.052 A 
ATOM      5  C   UNL     1       1.950   2.480  -6.357  0.00  0.00    +0.110 A 
ATOM      6  C   UNL     1       0.729   3.119  -6.479  0.00  0.00    +0.029 A 
ENDROOT
BRANCH   3   7
ATOM      7  N   UNL     1       2.205   2.162  -2.703  0.00  0.00    -0.285 N 
ATOM      8  C   UNL     1       1.355   1.829  -1.711  0.00  0.00    +0.221 C 
ATOM      9  O   UNL     1       0.169   1.718  -1.941  0.00  0.00    -0.275 OA
ATOM     10  H   UNL     1       3.160   2.178  -2.537  0.00  0.00    +0.155 HD
BRANCH   8  11
ATOM     11  C   UNL     1       1.877   1.596  -0.317  0.00  0.00    +0.093 C 
ATOM     12  C   UNL     1       1.100   0.453   0.339  0.00  0.00    +0.040 C 
ATOM     13  C   UNL     1      -0.304   0.889   0.641  0.00  0.00    -0.030 C 
ATOM     14  C   UNL     1      -0.688   2.125   0.675  0.00  0.00    -0.030 C 
ATOM     15  C   UNL     1       0.217   3.294   0.417  0.00  0.00    +0.042 C 
ATOM     16  C   UNL     1       1.681   2.863   0.525  0.00  0.00    +0.118 C 
BRANCH  16  17
ATOM     17  C   UNL     1       2.576   3.959   0.008  0.00  0.00    +0.360 C 
ATOM     18  O   UNL     1       3.299   3.753  -0.938  0.00  0.00    -0.246 OA
ATOM     19  O   UNL     1       2.570   5.165   0.598  0.00  0.00    -0.246 OA
ENDBRANCH  16  17
ENDBRANCH   8  11
ENDBRANCH   3   7
BRANCH   5  20
ATOM     20  S   UNL     1       2.878   2.073  -7.798  0.00  0.00    +0.072 S 
ATOM     21  O   UNL     1       3.815   1.078  -7.410  0.00  0.00    -0.150 OA
ATOM     22  O   UNL     1       1.937   1.867  -8.843  0.00  0.00    -0.150 OA
BRANCH  20  23
ATOM     23  N   UNL     1       3.756   3.415  -8.210  0.00  0.00    -0.216 N 
ATOM     24  H   UNL     1       3.580   3.871  -9.048  0.00  0.00    +0.174 HD
BRANCH  23  25
ATOM     25  C   UNL     1       4.752   3.891  -7.350  0.00  0.00    +0.048 A 
ATOM     26  C   UNL     1       4.537   5.047  -6.611  0.00  0.00    +0.025 A 
ATOM     27  C   UNL     1       5.518   5.514  -5.758  0.00  0.00    +0.017 A 
ATOM     28  C   UNL     1       6.724   4.834  -5.648  0.00  0.00    +0.013 A 
ATOM     29  C   UNL     1       6.941   3.680  -6.391  0.00  0.00    +0.017 A 
ATOM     30  C   UNL     1       5.958   3.210  -7.239  0.00  0.00    +0.025 A 
BRANCH  28  31
ATOM     31  S   UNL     1       7.979   5.434  -4.566  0.00  0.00    -0.056 S 
BRANCH  31  32
ATOM     32  C   UNL     1       7.250   6.925  -3.834  0.00  0.00    +0.404 C 
ATOM     33  F   UNL     1       6.945   7.841  -4.846  0.00  0.00    -0.197 F 
ATOM     34  F   UNL     1       6.080   6.583  -3.146  0.00  0.00    -0.197 F 
ENDBRANCH  31  32
ENDBRANCH  28  31
ENDBRANCH  23  25
ENDBRANCH  20  23
ENDBRANCH   5  20
TORSDOF 8
