REMARK  Name = ZINC16194838
REMARK  8 active torsions:
REMARK  status: ('A' for Active; 'I' for Inactive)
REMARK    1  A    between atoms: C_1  and  O_2
REMARK    2  A    between atoms: O_2  and  C_3
REMARK    3  A    between atoms: C_5  and  C_30
REMARK    4  A    between atoms: C_6  and  N_11
REMARK    5  A    between atoms: C_8  and  O_9
REMARK    6  A    between atoms: O_9  and  C_10
REMARK    7  A    between atoms: N_11  and  C_12
REMARK    8  A    between atoms: N_15  and  C_20
REMARK                            x       y       z     vdW  Elec       q    Type
REMARK                         _______ _______ _______ _____ _____    ______ ____
ROOT
ATOM      1  C   UNL     1      -1.187   1.743  -0.047  0.00  0.00    +0.075 A 
ATOM      2  C   UNL     1       0.035   1.040  -0.116  0.00  0.00    +0.157 A 
ATOM      3  N   UNL     1       1.166   1.686  -0.169  0.00  0.00    -0.174 NA
ATOM      4  N   UNL     1       1.199   3.084  -0.153  0.00  0.00    -0.222 N 
ATOM      5  C   UNL     1       0.057   3.796  -0.082  0.00  0.00    +0.288 A 
ATOM      6  O   UNL     1       0.094   5.017  -0.068  0.00  0.00    -0.265 OA
ATOM      7  C   UNL     1      -1.174   3.126  -0.024  0.00  0.00    +0.129 A 
ATOM      8 CL   UNL     1      -2.660   4.019   0.069  0.00  0.00    -0.076 Cl
ENDROOT
BRANCH   4   9
ATOM      9  C   UNL     1       2.487   3.781  -0.213  0.00  0.00    +0.068 C 
ATOM     10  C   UNL     1       2.660   4.642   1.039  0.00  0.00    +0.034 C 
ATOM     11  C   UNL     1       4.005   5.369   0.976  0.00  0.00    -0.008 C 
ATOM     12  C   UNL     1       5.137   4.343   0.902  0.00  0.00    +0.007 C 
ATOM     13  C   UNL     1       4.963   3.482  -0.351  0.00  0.00    -0.008 C 
ATOM     14  C   UNL     1       3.619   2.754  -0.288  0.00  0.00    +0.034 C 
ATOM     15  C   UNL     1       5.002   4.374  -1.593  0.00  0.00    +0.007 C 
ATOM     16  C   UNL     1       3.870   5.401  -1.518  0.00  0.00    -0.008 C 
ATOM     17  C   UNL     1       4.044   6.262  -0.266  0.00  0.00    +0.007 C 
ATOM     18  C   UNL     1       2.526   4.674  -1.455  0.00  0.00    +0.034 C 
ENDBRANCH   4   9
BRANCH   1  19
ATOM     19  N   UNL     1      -2.388   1.054   0.003  0.00  0.00    -0.311 N 
ATOM     20  H   UNL     1      -3.221   1.539   0.112  0.00  0.00    +0.152 HD
BRANCH  19  24
ATOM     21  C   UNL     1      -2.420  -3.110  -0.304  0.00  0.00    +0.162 A 
ATOM     22  C   UNL     1      -2.060  -2.521   0.889  0.00  0.00    +0.066 A 
ATOM     23  C   UNL     1      -2.040  -1.126   1.002  0.00  0.00    +0.088 A 
ATOM     24  C   UNL     1      -2.399  -0.334  -0.101  0.00  0.00    +0.049 A 
ATOM     25  C   UNL     1      -2.760  -0.938  -1.296  0.00  0.00    +0.073 A 
ATOM     26  C   UNL     1      -2.770  -2.319  -1.400  0.00  0.00    +0.163 A 
BRANCH  23  27
ATOM     27  C   UNL     1      -1.651  -0.493   2.271  0.00  0.00    +0.388 C 
ATOM     28  O   UNL     1      -1.748   0.712   2.404  0.00  0.00    -0.241 OA
ATOM     29  O   UNL     1      -1.186  -1.248   3.286  0.00  0.00    -0.241 OA
ENDBRANCH  23  27
BRANCH  21  31
ATOM     30  C   UNL     1      -2.062  -5.215   0.744  0.00  0.00    +0.277 C 
ATOM     31  O   UNL     1      -2.432  -4.466  -0.415  0.00  0.00    -0.491 OA
ENDBRANCH  21  31
BRANCH  26  32
ATOM     32  O   UNL     1      -3.124  -2.907  -2.572  0.00  0.00    -0.491 OA
ATOM     33  C   UNL     1      -3.472  -2.039  -3.653  0.00  0.00    +0.277 C 
ENDBRANCH  26  32
ENDBRANCH  19  24
ENDBRANCH   1  19
TORSDOF 6
