REMARK  Name = ZINC19208559
REMARK  9 active torsions:
REMARK  status: ('A' for Active; 'I' for Inactive)
REMARK    1  A    between atoms: C_1  and  C_2
REMARK    2  A    between atoms: C_5  and  C_8
REMARK    3  A    between atoms: C_8  and  O_32
REMARK    4  A    between atoms: N_11  and  C_14
REMARK    5  A    between atoms: C_14  and  C_15
REMARK    6  A    between atoms: C_15  and  C_17
REMARK    7  A    between atoms: C_15  and  O_31
REMARK    8  A    between atoms: N_26  and  S_27
REMARK    9  A    between atoms: S_27  and  C_30
REMARK                            x       y       z     vdW  Elec       q    Type
REMARK                         _______ _______ _______ _____ _____    ______ ____
ROOT
ATOM      1  C   UNL     1      -1.093   1.525  -2.938  0.00  0.00    -0.042 C 
ENDROOT
BRANCH   1   5
ATOM      2  C   UNL     1      -2.593   3.086   0.749  0.00  0.00    +0.088 C 
ATOM      3  C   UNL     1      -2.558   3.983  -0.490  0.00  0.00    +0.021 C 
ATOM      4  C   UNL     1      -1.555   3.415  -1.498  0.00  0.00    -0.076 C 
ATOM      5  N   UNL     1      -1.953   2.051  -1.870  0.00  0.00    +0.382 N 
ATOM      6  C   UNL     1      -1.948   1.160  -0.703  0.00  0.00    -0.076 C 
ATOM      7  C   UNL     1      -2.963   1.661   0.328  0.00  0.00    +0.021 C 
ATOM      8  H   UNL     1      -2.983   2.096  -2.254  0.00  0.00    -0.082 HD
BRANCH   2  13
ATOM      9  C   UNL     1      -6.536   5.080   4.473  0.00  0.00    +0.044 C 
ATOM     10  C   UNL     1      -5.508   4.561   3.502  0.00  0.00    -0.050 A 
ATOM     11  C   UNL     1      -4.200   5.000   3.579  0.00  0.00    +0.004 A 
ATOM     12  C   UNL     1      -3.257   4.523   2.688  0.00  0.00    +0.007 A 
ATOM     13  C   UNL     1      -3.622   3.606   1.720  0.00  0.00    -0.016 A 
ATOM     14  C   UNL     1      -4.931   3.170   1.640  0.00  0.00    +0.007 A 
ATOM     15  C   UNL     1      -5.873   3.644   2.533  0.00  0.00    +0.004 A 
ENDBRANCH   2  13
BRANCH   2  16
ATOM     16  O   UNL     1      -1.308   3.081   1.372  0.00  0.00    -0.384 OA
ATOM     17  H   UNL     1      -0.427   2.731   0.814  0.00  0.00    +0.211 HD
ENDBRANCH   2  16
ENDBRANCH   1   5
BRANCH   1  18
ATOM     18  C   UNL     1      -1.488   2.163  -4.272  0.00  0.00    +0.128 C 
BRANCH  18  19
ATOM     19  C   UNL     1      -0.594   1.637  -5.364  0.00  0.00    -0.021 A 
ATOM     20  C   UNL     1      -0.901   0.444  -5.994  0.00  0.00    +0.008 A 
ATOM     21  C   UNL     1      -0.081  -0.038  -6.994  0.00  0.00    +0.025 A 
ATOM     22  C   UNL     1       1.053   0.675  -7.368  0.00  0.00    +0.054 A 
ATOM     23  C   UNL     1       1.359   1.871  -6.739  0.00  0.00    -0.024 A 
ATOM     24  C   UNL     1       0.529   2.349  -5.739  0.00  0.00    +0.011 A 
ATOM     25  C   UNL     1       2.572   2.675  -7.125  0.00  0.00    +0.038 C 
ATOM     26  C   UNL     1       3.594   1.792  -7.841  0.00  0.00    +0.025 C 
ATOM     27  C   UNL     1       2.890   1.042  -8.979  0.00  0.00    +0.131 C 
ATOM     28  N   UNL     1       1.875   0.165  -8.379  0.00  0.00    -0.207 N 
BRANCH  28  29
ATOM     29  S   UNL     1       1.708  -1.402  -8.890  0.00  0.00    +0.043 S 
ATOM     30  O   UNL     1       2.927  -1.697  -9.558  0.00  0.00    -0.155 OA
ATOM     31  O   UNL     1       1.326  -2.123  -7.727  0.00  0.00    -0.155 OA
ATOM     32  C   UNL     1       0.338  -1.361 -10.078  0.00  0.00    +0.218 C 
ENDBRANCH  28  29
ENDBRANCH  18  19
BRANCH  18  33
ATOM     33  O   UNL     1      -2.847   1.837  -4.571  0.00  0.00    -0.389 OA
ATOM     34  H   UNL     1      -3.311   2.210  -5.496  0.00  0.00    +0.210 HD
ENDBRANCH  18  33
ENDBRANCH   1  18
TORSDOF 7
