REMARK  Name = ZINC53519709
REMARK  10 active torsions:
REMARK  status: ('A' for Active; 'I' for Inactive)
REMARK    1  A    between atoms: C_1  and  C_2
REMARK    2  A    between atoms: C_5  and  O_8
REMARK    3  A    between atoms: O_8  and  C_9
REMARK    4  A    between atoms: C_9  and  C_10
REMARK    5  A    between atoms: C_10  and  N_11
REMARK    6  A    between atoms: N_14  and  C_15
REMARK    7  A    between atoms: C_15  and  C_17
REMARK    8  A    between atoms: C_15  and  C_18
REMARK    9  A    between atoms: C_22  and  S_24
REMARK   10  A    between atoms: S_24  and  N_27
REMARK                            x       y       z     vdW  Elec       q    Type
REMARK                         _______ _______ _______ _____ _____    ______ ____
ROOT
ATOM      1  N   UNL     1       1.344  -6.688   0.389  0.00  0.00    -0.296 N 
ATOM      2  C   UNL     1       1.582  -7.984   0.104  0.00  0.00    +0.300 C 
ATOM      3  O   UNL     1       0.757  -8.830   0.387  0.00  0.00    -0.253 OA
ATOM      4  N   UNL     1       2.736  -8.341  -0.495  0.00  0.00    -0.293 N 
ATOM      5  H   UNL     1       2.002  -6.013   0.163  0.00  0.00    +0.150 HD
ATOM      6  H   UNL     1       3.394  -7.665  -0.721  0.00  0.00    +0.151 HD
ENDROOT
BRANCH   4   7
ATOM      7  C   UNL     1       2.995  -9.749  -0.805  0.00  0.00    +0.102 C 
ATOM      8  C   UNL     1       2.358 -10.101  -2.151  0.00  0.00    +0.033 C 
BRANCH   7   9
ATOM      9  C   UNL     1       4.482  -9.982  -0.877  0.00  0.00    -0.026 A 
ATOM     10  C   UNL     1       5.302  -9.037  -1.467  0.00  0.00    +0.005 A 
ATOM     11  C   UNL     1       6.666  -9.251  -1.534  0.00  0.00    +0.002 A 
ATOM     12  C   UNL     1       7.210 -10.409  -1.010  0.00  0.00    +0.028 A 
ATOM     13  C   UNL     1       6.391 -11.352  -0.419  0.00  0.00    +0.105 A 
ATOM     14  C   UNL     1       5.027 -11.137  -0.349  0.00  0.00    +0.034 A 
BRANCH  13  15
ATOM     15  S   UNL     1       7.085 -12.828   0.248  0.00  0.00    +0.056 S 
ATOM     16  O   UNL     1       6.046 -13.797   0.257  0.00  0.00    -0.153 OA
ATOM     17  O   UNL     1       8.318 -13.038  -0.427  0.00  0.00    -0.153 OA
BRANCH  15  18
ATOM     18  N   UNL     1       7.459 -12.521   1.832  0.00  0.00    -0.204 NA
ATOM     19  H   UNL     1       7.435 -13.238   2.484  0.00  0.00    +0.144 HD
ATOM     20  H   UNL     1       7.703 -11.623   2.107  0.00  0.00    +0.144 HD
ENDBRANCH  15  18
ENDBRANCH  13  15
ENDBRANCH   7   9
ENDBRANCH   4   7
BRANCH   1  21
ATOM     21  C   UNL     1       0.090  -6.300   1.040  0.00  0.00    +0.146 C 
BRANCH  21  22
ATOM     22  C   UNL     1       0.072  -4.785   1.249  0.00  0.00    +0.247 C 
BRANCH  22  23
ATOM     23  O   UNL     1       0.057  -4.129  -0.021  0.00  0.00    -0.490 OA
BRANCH  23  28
ATOM     24  C   UNL     1      -0.018   1.503   0.010  0.00  0.00    +0.044 C 
ATOM     25  C   UNL     1       0.002  -0.004   0.002  0.00  0.00    -0.050 A 
ATOM     26  C   UNL     1       0.006  -0.688  -1.200  0.00  0.00    +0.007 A 
ATOM     27  C   UNL     1       0.024  -2.069  -1.210  0.00  0.00    +0.046 A 
ATOM     28  C   UNL     1       0.039  -2.770  -0.013  0.00  0.00    +0.121 A 
ATOM     29  C   UNL     1       0.036  -2.082   1.191  0.00  0.00    +0.046 A 
ATOM     30  C   UNL     1       0.023  -0.701   1.196  0.00  0.00    +0.007 A 
ENDBRANCH  23  28
ENDBRANCH  22  23
ENDBRANCH  21  22
ENDBRANCH   1  21
TORSDOF 8
