REMARK  Name = ZINC13249472
REMARK  4 active torsions:
REMARK  status: ('A' for Active; 'I' for Inactive)
REMARK    1  A    between atoms: C_4  and  S_10
REMARK    2  A    between atoms: C_6  and  C_7
REMARK    3  A    between atoms: S_10  and  N_13
REMARK    4  A    between atoms: C_17  and  N_24
REMARK                            x       y       z     vdW  Elec       q    Type
REMARK                         _______ _______ _______ _____ _____    ______ ____
ROOT
ATOM      1  N   UNL     1       4.684  -0.459  -1.480  0.00  0.00    -0.128 NA
ATOM      2  C   UNL     1       5.876  -0.974  -1.762  0.00  0.00    +0.095 A 
ATOM      3  C   UNL     1       6.528  -1.831  -0.853  0.00  0.00    +0.032 A 
ATOM      4  C   UNL     1       7.760  -2.364  -1.141  0.00  0.00    +0.024 A 
ATOM      5  C   UNL     1       8.430  -2.100  -2.323  0.00  0.00    +0.022 A 
ATOM      6  C   UNL     1       7.869  -1.267  -3.283  0.00  0.00    +0.007 A 
ATOM      7  C   UNL     1       6.549  -0.671  -3.033  0.00  0.00    +0.029 A 
ATOM      8  C   UNL     1       5.998   0.149  -3.991  0.00  0.00    +0.121 A 
ATOM      9  N   UNL     1       6.671   0.383  -5.132  0.00  0.00    -0.263 NA
ATOM     10  C   UNL     1       7.889  -0.160  -5.389  0.00  0.00    +0.111 A 
ATOM     11  C   UNL     1       8.516  -0.967  -4.507  0.00  0.00    +0.030 A 
ENDROOT
BRANCH   5  12
ATOM     12  N   UNL     1       9.683  -2.677  -2.553  0.00  0.00    -0.393 NA
ATOM     13  C   UNL     1       9.557  -4.139  -2.538  0.00  0.00    +0.085 C 
ATOM     14  C   UNL     1      10.909  -4.775  -2.869  0.00  0.00    +0.017 C 
ATOM     15  C   UNL     1      11.941  -4.339  -1.826  0.00  0.00    +0.003 C 
ATOM     16  C   UNL     1      12.010  -2.809  -1.798  0.00  0.00    +0.017 C 
ATOM     17  C   UNL     1      10.617  -2.247  -1.507  0.00  0.00    +0.085 C 
ATOM     18  H   UNL     1      10.028  -2.381  -3.454  0.00  0.00    +0.126 HD
ENDBRANCH   5  12
BRANCH   1  19
ATOM     19  S   UNL     1       3.947  -0.816  -0.041  0.00  0.00    +0.101 S 
ATOM     20  O   UNL     1       4.745  -0.233   0.980  0.00  0.00    -0.146 OA
ATOM     21  O   UNL     1       3.645  -2.205  -0.073  0.00  0.00    -0.146 OA
BRANCH  19  25
ATOM     22  C   UNL     1      -0.017   1.393   0.010  0.00  0.00    +0.016 A 
ATOM     23  C   UNL     1       1.169   2.096   0.002  0.00  0.00    +0.023 A 
ATOM     24  C   UNL     1       2.378   1.419  -0.013  0.00  0.00    +0.068 A 
ATOM     25  C   UNL     1       2.404   0.034  -0.021  0.00  0.00    +0.131 A 
ATOM     26  C   UNL     1       1.225  -0.680  -0.014  0.00  0.00    +0.045 A 
ATOM     27  C   UNL     1       0.002  -0.004   0.002  0.00  0.00    +0.065 A 
ATOM     28 CL   UNL     1       3.867   2.312  -0.024  0.00  0.00    -0.082 Cl
BRANCH  27  29
ATOM     29  C   UNL     1      -1.263  -0.762   0.011  0.00  0.00    +0.387 C 
ATOM     30  O   UNL     1      -2.332  -0.168   0.024  0.00  0.00    -0.241 OA
ATOM     31  O   UNL     1      -1.243  -1.985   0.004  0.00  0.00    -0.241 OA
ENDBRANCH  27  29
ENDBRANCH  19  25
ENDBRANCH   1  19
TORSDOF 4
