REMARK  Name = ZINC47577367
REMARK  10 active torsions:
REMARK  status: ('A' for Active; 'I' for Inactive)
REMARK    1  A    between atoms: C_1  and  C_2
REMARK    2  A    between atoms: C_2  and  C_3
REMARK    3  A    between atoms: C_3  and  C_5
REMARK    4  A    between atoms: C_3  and  N_6
REMARK    5  A    between atoms: N_9  and  C_10
REMARK    6  A    between atoms: C_10  and  C_12
REMARK    7  A    between atoms: C_10  and  C_13
REMARK    8  A    between atoms: C_15  and  C_21
REMARK    9  A    between atoms: C_18  and  O_19
REMARK   10  A    between atoms: O_19  and  C_20
REMARK                            x       y       z     vdW  Elec       q    Type
REMARK                         _______ _______ _______ _____ _____    ______ ____
ROOT
ATOM      1  C   UNL     1       4.945   0.543   3.468  0.00  0.00    +0.105 C 
ATOM      2  C   UNL     1       5.394  -0.909   3.644  0.00  0.00    +0.033 C 
ENDROOT
BRANCH   1   3
ATOM      3  C   UNL     1       6.147   1.411   3.201  0.00  0.00    +0.014 A 
ATOM      4  C   UNL     1       6.534   1.676   1.901  0.00  0.00    +0.012 A 
ATOM      5  C   UNL     1       7.637   2.472   1.655  0.00  0.00    -0.050 A 
ATOM      6  C   UNL     1       8.355   3.006   2.708  0.00  0.00    +0.007 A 
ATOM      7  C   UNL     1       7.973   2.745   4.009  0.00  0.00    +0.046 A 
ATOM      8  C   UNL     1       6.863   1.951   4.259  0.00  0.00    +0.125 A 
ATOM      9  C   UNL     1       8.056   2.758   0.236  0.00  0.00    +0.044 C 
BRANCH   8  10
ATOM     10  O   UNL     1       6.482   1.697   5.538  0.00  0.00    -0.495 OA
ATOM     11  C   UNL     1       7.266   2.286   6.578  0.00  0.00    +0.277 C 
ENDBRANCH   8  10
ENDBRANCH   1   3
BRANCH   1  15
ATOM     12  N   UNL     1       1.843   0.514   1.494  0.00  0.00    -0.297 N 
ATOM     13  C   UNL     1       2.698   0.430   2.533  0.00  0.00    +0.300 C 
ATOM     14  O   UNL     1       2.280   0.173   3.645  0.00  0.00    -0.253 OA
ATOM     15  N   UNL     1       4.016   0.633   2.339  0.00  0.00    -0.293 N 
ATOM     16  H   UNL     1       2.177   0.719   0.607  0.00  0.00    +0.151 HD
ATOM     17  H   UNL     1       4.350   0.839   1.452  0.00  0.00    +0.151 HD
BRANCH  12  18
ATOM     18  C   UNL     1       0.410   0.293   1.705  0.00  0.00    +0.071 C 
ATOM     19  C   UNL     1       0.110  -1.206   1.643  0.00  0.00    +0.028 C 
BRANCH  18  21
ATOM     20  C   UNL     1      -0.180   2.528   0.757  0.00  0.00    +0.005 C 
ATOM     21  C   UNL     1      -0.383   1.018   0.616  0.00  0.00    +0.019 C 
ENDBRANCH  18  21
ENDBRANCH  12  18
ENDBRANCH   1  15
TORSDOF 5
