REMARK  Name = ZINC03310473
REMARK  8 active torsions:
REMARK  status: ('A' for Active; 'I' for Inactive)
REMARK    1  A    between atoms: C_5  and  C_7
REMARK    2  A    between atoms: C_7  and  C_8
REMARK    3  A    between atoms: C_11  and  S_14
REMARK    4  A    between atoms: N_12  and  N_13
REMARK    5  A    between atoms: S_14  and  C_15
REMARK    6  A    between atoms: C_15  and  C_16
REMARK    7  A    between atoms: C_24  and  O_28
REMARK    8  A    between atoms: C_25  and  O_27
REMARK                            x       y       z     vdW  Elec       q    Type
REMARK                         _______ _______ _______ _____ _____    ______ ____
ROOT
ATOM      1  S   UNL     1      -1.569  -3.666  -4.440  0.00  0.00    -0.080 S 
ENDROOT
BRANCH   1   5
ATOM      2  C   UNL     1      -1.611  -1.237  -1.388  0.00  0.00    +0.155 A 
ATOM      3  N   UNL     1      -2.311  -0.587  -2.275  0.00  0.00    -0.132 NA
ATOM      4  N   UNL     1      -2.385  -1.268  -3.363  0.00  0.00    -0.121 NA
ATOM      5  C   UNL     1      -1.740  -2.402  -3.224  0.00  0.00    +0.209 A 
ATOM      6  N   UNL     1      -1.226  -2.418  -1.959  0.00  0.00    -0.228 N 
BRANCH   6   7
ATOM      7  N   UNL     1      -0.482  -3.409  -1.384  0.00  0.00    -0.295 N 
ATOM      8  H   UNL     1      -1.073  -4.080  -0.917  0.00  0.00    +0.163 HD
ATOM      9  H   UNL     1       0.109  -3.860  -2.066  0.00  0.00    +0.163 HD
ENDBRANCH   6   7
BRANCH   2  10
ATOM     10  C   UNL     1      -1.292  -0.775   0.011  0.00  0.00    +0.116 C 
BRANCH  10  15
ATOM     11  C   UNL     1       1.171   2.086   0.002  0.00  0.00    +0.000 A 
ATOM     12  C   UNL     1       2.378   1.413  -0.013  0.00  0.00    +0.003 A 
ATOM     13  C   UNL     1       2.399   0.031  -0.021  0.00  0.00    +0.038 A 
ATOM     14  C   UNL     1       1.210  -0.679  -0.013  0.00  0.00    +0.127 A 
ATOM     15  C   UNL     1       0.002  -0.004   0.002  0.00  0.00    -0.005 A 
ATOM     16  C   UNL     1      -0.017   1.378   0.010  0.00  0.00    +0.007 A 
ATOM     17  F   UNL     1       1.230  -2.030  -0.020  0.00  0.00    -0.205 F 
ENDBRANCH  10  15
ENDBRANCH   2  10
ENDBRANCH   1   5
BRANCH   1  18
ATOM     18  C   UNL     1      -2.501  -2.920  -5.801  0.00  0.00    +0.113 C 
BRANCH  18  19
ATOM     19  C   UNL     1      -2.490  -3.851  -6.986  0.00  0.00    -0.020 A 
ATOM     20  C   UNL     1      -3.461  -4.789  -7.145  0.00  0.00    +0.097 A 
ATOM     21  C   UNL     1      -3.429  -5.647  -8.263  0.00  0.00    +0.338 A 
ATOM     22  O   UNL     1      -4.305  -6.484  -8.393  0.00  0.00    -0.245 OA
ATOM     23  O   UNL     1      -2.459  -5.567  -9.187  0.00  0.00    -0.422 OA
ATOM     24  C   UNL     1      -1.465  -4.657  -9.088  0.00  0.00    +0.143 A 
ATOM     25  C   UNL     1      -1.438  -3.765  -8.001  0.00  0.00    +0.025 A 
ATOM     26  C   UNL     1      -0.414  -2.816  -7.897  0.00  0.00    +0.061 A 
ATOM     27  C   UNL     1       0.563  -2.759  -8.867  0.00  0.00    +0.159 A 
ATOM     28  C   UNL     1       0.531  -3.642  -9.950  0.00  0.00    +0.162 A 
ATOM     29  C   UNL     1      -0.471  -4.590 -10.054  0.00  0.00    +0.096 A 
BRANCH  28  30
ATOM     30  O   UNL     1       1.499  -3.577 -10.901  0.00  0.00    -0.503 OA
ATOM     31  H   UNL     1       2.267  -4.136 -10.719  0.00  0.00    +0.292 HD
ENDBRANCH  28  30
BRANCH  27  32
ATOM     32  O   UNL     1       1.561  -1.839  -8.771  0.00  0.00    -0.503 OA
ATOM     33  H   UNL     1       2.337  -2.150  -8.286  0.00  0.00    +0.292 HD
ENDBRANCH  27  32
ENDBRANCH  18  19
ENDBRANCH   1  18
TORSDOF 8
