REMARK  Name = ZINC09170638
REMARK  7 active torsions:
REMARK  status: ('A' for Active; 'I' for Inactive)
REMARK    1  A    between atoms: C_1  and  C_2
REMARK    2  A    between atoms: C_2  and  N_3
REMARK    3  A    between atoms: C_6  and  N_17
REMARK    4  A    between atoms: C_12  and  C_15
REMARK    5  A    between atoms: C_12  and  C_16
REMARK    6  A    between atoms: N_17  and  S_18
REMARK    7  A    between atoms: S_18  and  C_21
REMARK                            x       y       z     vdW  Elec       q    Type
REMARK                         _______ _______ _______ _____ _____    ______ ____
ROOT
ATOM      1  N   UNL     1      -2.501   2.265  -0.292  0.00  0.00    -0.268 N 
ATOM      2  C   UNL     1      -1.577   3.157  -0.853  0.00  0.00    +0.080 A 
ATOM      3  C   UNL     1      -1.908   4.489  -1.040  0.00  0.00    +0.051 A 
ATOM      4  C   UNL     1      -0.984   5.356  -1.607  0.00  0.00    +0.050 A 
ATOM      5  C   UNL     1       0.268   4.887  -1.985  0.00  0.00    +0.028 A 
ATOM      6  C   UNL     1       0.598   3.558  -1.796  0.00  0.00    +0.049 A 
ATOM      7  C   UNL     1      -0.319   2.690  -1.229  0.00  0.00    +0.142 A 
ATOM      8  O   UNL     1      -0.000   1.382  -1.036  0.00  0.00    -0.489 OA
ATOM      9  C   UNL     1       0.293   0.973   0.298  0.00  0.00    +0.244 C 
ATOM     10  C   UNL     1      -0.720   1.574   1.271  0.00  0.00    +0.076 C 
ATOM     11  C   UNL     1      -2.111   1.453   0.716  0.00  0.00    +0.229 C 
ATOM     12  O   UNL     1      -2.879   0.631   1.169  0.00  0.00    -0.275 OA
ATOM     13  C   UNL     1      -0.645   0.830   2.605  0.00  0.00    +0.024 C 
ATOM     14  C   UNL     1      -0.391   3.051   1.497  0.00  0.00    +0.024 C 
ENDROOT
BRANCH   1  16
ATOM     15  C   UNL     1      -3.968   1.189  -1.926  0.00  0.00    +0.025 C 
ATOM     16  C   UNL     1      -3.877   2.212  -0.793  0.00  0.00    +0.110 C 
ENDBRANCH   1  16
BRANCH   4  17
ATOM     17  N   UNL     1      -1.313   6.702  -1.799  0.00  0.00    -0.216 N 
ATOM     18  H   UNL     1      -1.754   7.199  -1.092  0.00  0.00    +0.174 HD
BRANCH  17  19
ATOM     19  S   UNL     1      -0.952   7.447  -3.233  0.00  0.00    +0.072 S 
ATOM     20  O   UNL     1      -1.429   8.782  -3.129  0.00  0.00    -0.150 OA
ATOM     21  O   UNL     1       0.407   7.145  -3.516  0.00  0.00    -0.150 OA
BRANCH  19  22
ATOM     22  C   UNL     1      -1.913   6.665  -4.484  0.00  0.00    +0.109 A 
ATOM     23  C   UNL     1      -1.408   5.574  -5.167  0.00  0.00    +0.029 A 
ATOM     24  C   UNL     1      -2.169   4.964  -6.143  0.00  0.00    +0.006 A 
ATOM     25  C   UNL     1      -3.434   5.444  -6.454  0.00  0.00    -0.044 A 
ATOM     26  C   UNL     1      -3.937   6.532  -5.776  0.00  0.00    -0.042 A 
ATOM     27  C   UNL     1      -3.171   7.141  -4.790  0.00  0.00    +0.032 A 
ATOM     28  C   UNL     1      -5.304   7.100  -6.054  0.00  0.00    +0.035 C 
ATOM     29  C   UNL     1      -5.820   6.619  -7.409  0.00  0.00    +0.005 C 
ATOM     30  C   UNL     1      -5.688   5.092  -7.462  0.00  0.00    +0.005 C 
ATOM     31  C   UNL     1      -4.204   4.739  -7.540  0.00  0.00    +0.035 C 
ENDBRANCH  19  22
ENDBRANCH  17  19
ENDBRANCH   4  17
TORSDOF 4
