REMARK  Name = ZINC34774715
REMARK  7 active torsions:
REMARK  status: ('A' for Active; 'I' for Inactive)
REMARK    1  A    between atoms: C_4  and  C_7
REMARK    2  A    between atoms: C_12  and  N_21
REMARK    3  A    between atoms: C_14  and  S_16
REMARK    4  A    between atoms: S_16  and  C_17
REMARK    5  A    between atoms: C_17  and  C_18
REMARK    6  A    between atoms: N_24  and  C_27
REMARK    7  A    between atoms: C_27  and  C_28
REMARK                            x       y       z     vdW  Elec       q    Type
REMARK                         _______ _______ _______ _____ _____    ______ ____
ROOT
ATOM      1  C   UNL     1       4.255  -0.950   3.942  0.00  0.00    +0.002 A 
ATOM      2  C   UNL     1       5.442  -0.671   4.529  0.00  0.00    +0.056 A 
ATOM      3  S   UNL     1       6.588  -1.740   3.680  0.00  0.00    -0.076 S 
ATOM      4  C   UNL     1       5.460  -2.532   2.564  0.00  0.00    +0.115 A 
ATOM      5  C   UNL     1       4.215  -1.952   2.880  0.00  0.00    +0.055 A 
ATOM      6  C   UNL     1       3.109  -2.422   2.121  0.00  0.00    +0.134 A 
ATOM      7  N   UNL     1       3.304  -3.347   1.196  0.00  0.00    -0.206 NA
ATOM      8  C   UNL     1       4.505  -3.857   0.951  0.00  0.00    +0.191 A 
ATOM      9  N   UNL     1       5.574  -3.449   1.622  0.00  0.00    -0.214 NA
ENDROOT
BRANCH   6  10
ATOM     10  N   UNL     1       1.842  -1.916   2.347  0.00  0.00    -0.318 N 
ATOM     11  C   UNL     1       1.221  -0.980   1.397  0.00  0.00    +0.088 C 
ATOM     12  C   UNL     1      -0.183  -1.492   1.058  0.00  0.00    -0.059 C 
ATOM     13  N   UNL     1      -0.943  -1.691   2.298  0.00  0.00    +0.387 N 
ATOM     14  C   UNL     1      -0.320  -2.749   3.102  0.00  0.00    -0.059 C 
ATOM     15  C   UNL     1       1.074  -2.304   3.540  0.00  0.00    +0.088 C 
ATOM     16  H   UNL     1      -0.954  -0.831   2.826  0.00  0.00    -0.081 HD
BRANCH  13  17
ATOM     17  C   UNL     1      -2.322  -2.076   1.968  0.00  0.00    +0.019 C 
BRANCH  17  18
ATOM     18  C   UNL     1      -3.136  -2.161   3.234  0.00  0.00    +0.199 C 
ATOM     19  O   UNL     1      -2.619  -1.924   4.305  0.00  0.00    -0.278 OA
ATOM     20  N   UNL     1      -4.439  -2.500   3.175  0.00  0.00    -0.303 N 
ATOM     21  C   UNL     1      -5.079  -2.796   1.886  0.00  0.00    +0.107 C 
ATOM     22  C   UNL     1      -5.750  -4.170   1.973  0.00  0.00    +0.019 C 
ATOM     23  C   UNL     1      -6.706  -4.192   3.168  0.00  0.00    +0.003 C 
ATOM     24  C   UNL     1      -5.917  -3.958   4.458  0.00  0.00    +0.019 C 
ATOM     25  C   UNL     1      -5.246  -2.587   4.401  0.00  0.00    +0.107 C 
ENDBRANCH  17  18
ENDBRANCH  13  17
ENDBRANCH   6  10
BRANCH   1  29
ATOM     26  C   UNL     1       0.708   1.041   5.176  0.00  0.00    +0.000 A 
ATOM     27  C   UNL     1       1.423   0.282   6.084  0.00  0.00    +0.001 A 
ATOM     28  C   UNL     1       2.576  -0.367   5.689  0.00  0.00    +0.008 A 
ATOM     29  C   UNL     1       3.018  -0.256   4.372  0.00  0.00    -0.017 A 
ATOM     30  C   UNL     1       2.293   0.510   3.460  0.00  0.00    +0.008 A 
ATOM     31  C   UNL     1       1.142   1.155   3.867  0.00  0.00    +0.001 A 
ENDBRANCH   1  29
BRANCH   8  32
ATOM     32  S   UNL     1       4.685  -5.087  -0.297  0.00  0.00    -0.077 S 
BRANCH  32  33
ATOM     33  C   UNL     1       6.457  -5.476  -0.278  0.00  0.00    +0.172 C 
BRANCH  33  34
ATOM     34  C   UNL     1       6.751  -6.530  -1.314  0.00  0.00    +0.221 C 
ATOM     35  O   UNL     1       5.853  -6.975  -1.998  0.00  0.00    -0.275 OA
ATOM     36  N   UNL     1       8.011  -6.978  -1.481  0.00  0.00    -0.329 N 
ATOM     37  H   UNL     1       8.729  -6.622  -0.934  0.00  0.00    +0.145 HD
ATOM     38  H   UNL     1       8.200  -7.657  -2.148  0.00  0.00    +0.145 HD
ENDBRANCH  33  34
ENDBRANCH  32  33
ENDBRANCH   8  32
TORSDOF 7
