REMARK  Name = ZINC12884152
REMARK  6 active torsions:
REMARK  status: ('A' for Active; 'I' for Inactive)
REMARK    1  A    between atoms: C_1  and  C_2
REMARK    2  A    between atoms: C_4  and  C_9
REMARK    3  A    between atoms: C_5  and  C_8
REMARK    4  A    between atoms: C_9  and  C_11
REMARK    5  A    between atoms: C_11  and  S_12
REMARK    6  A    between atoms: S_12  and  C_13
REMARK                            x       y       z     vdW  Elec       q    Type
REMARK                         _______ _______ _______ _____ _____    ______ ____
ROOT
ATOM      1  S   UNL     1      -1.519  -0.894   0.012  0.00  0.00    -0.080 S 
ENDROOT
BRANCH   1   2
ATOM      2  C   UNL     1       0.002  -0.004   0.002  0.00  0.00    +0.170 A 
ATOM      3  N   UNL     1      -0.016   1.361   0.009  0.00  0.00    -0.301 N 
ATOM      4  H   UNL     1      -0.868   1.825   0.016  0.00  0.00    +0.171 HD
ATOM      5  C   UNL     1       1.124   2.074   0.003  0.00  0.00    +0.260 A 
ATOM      6  O   UNL     1       1.090   3.293   0.009  0.00  0.00    -0.267 OA
ATOM      7  C   UNL     1       2.377   1.385  -0.013  0.00  0.00    +0.072 A 
ATOM      8  C   UNL     1       3.725   1.926  -0.023  0.00  0.00    +0.023 A 
ATOM      9  C   UNL     1       4.770   1.085  -0.036  0.00  0.00    +0.048 A 
ATOM     10  S   UNL     1       4.004  -0.525  -0.038  0.00  0.00    -0.077 S 
ATOM     11  C   UNL     1       2.303  -0.021  -0.020  0.00  0.00    +0.116 A 
ATOM     12  N   UNL     1       1.142  -0.665  -0.013  0.00  0.00    -0.216 NA
ENDBRANCH   1   2
BRANCH   1  13
ATOM     13  C   UNL     1      -0.890  -2.591  -0.003  0.00  0.00    +0.157 C 
BRANCH  13  14
ATOM     14  C   UNL     1      -2.047  -3.556   0.003  0.00  0.00    +0.175 C 
ATOM     15  O   UNL     1      -3.186  -3.137   0.017  0.00  0.00    -0.291 OA
BRANCH  14  19
ATOM     16  C   UNL     1       0.295  -8.081  -0.044  0.00  0.00    +0.063 C 
ATOM     17  C   UNL     1      -0.746  -6.991  -0.028  0.00  0.00    +0.014 A 
ATOM     18  C   UNL     1      -0.492  -5.672  -0.023  0.00  0.00    +0.034 A 
ATOM     19  C   UNL     1      -1.798  -4.999  -0.007  0.00  0.00    +0.039 A 
ATOM     20  C   UNL     1      -2.743  -6.008   0.003  0.00  0.00    +0.024 A 
ATOM     21  N   UNL     1      -2.097  -7.187  -0.016  0.00  0.00    -0.362 N 
ATOM     22  H   UNL     1      -2.530  -8.055  -0.017  0.00  0.00    +0.165 HD
ATOM     23  C   UNL     1      -4.238  -5.819   0.026  0.00  0.00    +0.064 C 
ENDBRANCH  14  19
ENDBRANCH  13  14
ENDBRANCH   1  13
TORSDOF 4
