REMARK  Name = ZINC54161442
REMARK  6 active torsions:
REMARK  status: ('A' for Active; 'I' for Inactive)
REMARK    1  A    between atoms: C_1  and  C_2
REMARK    2  A    between atoms: C_2  and  C_4
REMARK    3  A    between atoms: C_2  and  N_18
REMARK    4  A    between atoms: C_4  and  C_5
REMARK    5  A    between atoms: C_7  and  C_10
REMARK    6  A    between atoms: C_13  and  N_15
REMARK                            x       y       z     vdW  Elec       q    Type
REMARK                         _______ _______ _______ _____ _____    ______ ____
ROOT
ATOM      1  C   UNL     1       0.657  -2.014   1.298  0.00  0.00    +0.171 A 
ATOM      2  N   UNL     1      -0.308  -2.712   1.900  0.00  0.00    -0.189 NA
ATOM      3  C   UNL     1      -0.082  -4.003   1.762  0.00  0.00    +0.294 A 
ATOM      4  O   UNL     1       1.053  -4.152   1.054  0.00  0.00    -0.330 OA
ATOM      5  N   UNL     1       1.511  -2.840   0.761  0.00  0.00    -0.061 NA
ENDROOT
BRANCH   3   6
ATOM      6  C   UNL     1      -0.921  -5.087   2.287  0.00  0.00    +0.195 A 
ATOM      7  C   UNL     1      -0.683  -6.424   2.147  0.00  0.00    +0.057 A 
ATOM      8  C   UNL     1      -1.733  -7.091   2.802  0.00  0.00    +0.076 A 
ATOM      9  C   UNL     1      -2.553  -6.144   3.305  0.00  0.00    +0.280 A 
ATOM     10  O   UNL     1      -2.058  -4.937   2.996  0.00  0.00    -0.429 OA
BRANCH   9  11
ATOM     11  N   UNL     1      -3.793  -6.397   4.074  0.00  0.00    +0.093 N 
ATOM     12  O   UNL     1      -4.144  -7.532   4.298  0.00  0.00    -0.123 OA
ATOM     13  O   UNL     1      -4.453  -5.468   4.478  0.00  0.00    -0.123 OA
ENDBRANCH   9  11
ENDBRANCH   3   6
BRANCH   1  14
ATOM     14  C   UNL     1       0.742  -0.511   1.242  0.00  0.00    +0.063 C 
BRANCH  14  16
ATOM     15  C   UNL     1      -0.019   1.526   0.010  0.00  0.00    -0.014 C 
ATOM     16  C   UNL     1       0.002  -0.004   0.002  0.00  0.00    -0.071 C 
BRANCH  16  17
ATOM     17  N   UNL     1       0.690  -0.478  -1.207  0.00  0.00    +0.380 N 
ATOM     18  H   UNL     1       1.636  -0.129  -1.214  0.00  0.00    -0.090 HD
ATOM     19  H   UNL     1       0.703  -1.487  -1.212  0.00  0.00    -0.090 HD
ATOM     20  H   UNL     1       0.202  -0.144  -2.024  0.00  0.00    -0.090 HD
ENDBRANCH  16  17
ENDBRANCH  14  16
ENDBRANCH   1  14
TORSDOF 5
