REMARK  Name = ZINC04311195
REMARK  7 active torsions:
REMARK  status: ('A' for Active; 'I' for Inactive)
REMARK    1  A    between atoms: C_1  and  C_2
REMARK    2  A    between atoms: C_2  and  C_3
REMARK    3  A    between atoms: C_3  and  C_4
REMARK    4  A    between atoms: C_11  and  N_26
REMARK    5  A    between atoms: C_12  and  C_24
REMARK    6  A    between atoms: C_13  and  C_15
REMARK    7  A    between atoms: C_18  and  N_21
REMARK                            x       y       z     vdW  Elec       q    Type
REMARK                         _______ _______ _______ _____ _____    ______ ____
ROOT
ATOM      1  C   UNL     1       0.739  -2.004  -1.265  0.00  0.00    +0.071 A 
ATOM      2  C   UNL     1       1.726  -2.809  -0.712  0.00  0.00    +0.049 A 
ATOM      3  C   UNL     1       1.379  -4.114  -0.928  0.00  0.00    +0.222 A 
ATOM      4  N   UNL     1       0.212  -4.119  -1.594  0.00  0.00    -0.246 N 
ATOM      5  H   UNL     1      -0.277  -4.905  -1.883  0.00  0.00    +0.192 HD
ATOM      6  N   UNL     1      -0.176  -2.784  -1.791  0.00  0.00    -0.176 NA
ATOM      7  O   UNL     1       2.142  -5.154  -0.510  0.00  0.00    -0.423 OA
ATOM      8  C   UNL     1       3.401  -4.882  -0.108  0.00  0.00    +0.200 C 
ATOM      9  C   UNL     1       3.856  -3.636   0.148  0.00  0.00    +0.098 C 
ATOM     10  C   UNL     1       2.985  -2.412   0.014  0.00  0.00    +0.101 C 
ENDROOT
BRANCH  10  11
ATOM     11  C   UNL     1       2.637  -1.882   1.381  0.00  0.00    -0.034 A 
ATOM     12  C   UNL     1       1.978  -2.689   2.289  0.00  0.00    +0.007 A 
ATOM     13  C   UNL     1       1.660  -2.202   3.543  0.00  0.00    +0.033 A 
ATOM     14  C   UNL     1       2.001  -0.908   3.889  0.00  0.00    +0.126 A 
ATOM     15  C   UNL     1       2.660  -0.101   2.982  0.00  0.00    +0.033 A 
ATOM     16  C   UNL     1       2.983  -0.589   1.729  0.00  0.00    +0.007 A 
BRANCH  14  17
ATOM     17  N   UNL     1       1.658  -0.387   5.232  0.00  0.00    +0.056 N 
ATOM     18  O   UNL     1       1.081  -1.092   6.025  0.00  0.00    -0.126 OA
ATOM     19  O   UNL     1       1.956   0.746   5.534  0.00  0.00    -0.126 OA
ENDBRANCH  14  17
ENDBRANCH  10  11
BRANCH   8  20
ATOM     20  N   UNL     1       4.270  -5.933   0.048  0.00  0.00    -0.328 N 
ATOM     21  H   UNL     1       3.972  -6.839  -0.130  0.00  0.00    +0.145 HD
ATOM     22  H   UNL     1       5.182  -5.770   0.335  0.00  0.00    +0.145 HD
ENDBRANCH   8  20
BRANCH   9  23
ATOM     23  C   UNL     1       5.217  -3.472   0.564  0.00  0.00    +0.101 C 
ATOM     24  N   UNL     1       6.296  -3.341   0.894  0.00  0.00    -0.191 NA
ENDBRANCH   9  23
BRANCH   1  25
ATOM     25  C   UNL     1       0.718  -0.497  -1.257  0.00  0.00    +0.057 C 
BRANCH  25  27
ATOM     26  C   UNL     1      -0.019   1.526   0.010  0.00  0.00    +0.004 C 
ATOM     27  C   UNL     1       0.002  -0.004   0.002  0.00  0.00    +0.003 C 
ENDBRANCH  25  27
ENDBRANCH   1  25
TORSDOF 6
