REMARK  Name = ZINC66776289
REMARK  8 active torsions:
REMARK  status: ('A' for Active; 'I' for Inactive)
REMARK    1  A    between atoms: C_1  and  C_2
REMARK    2  A    between atoms: C_2  and  C_3
REMARK    3  A    between atoms: C_2  and  C_4
REMARK    4  A    between atoms: C_4  and  C_6
REMARK    5  A    between atoms: C_4  and  N_20
REMARK    6  A    between atoms: N_8  and  C_9
REMARK    7  A    between atoms: C_9  and  C_10
REMARK    8  A    between atoms: C_10  and  C_11
REMARK                            x       y       z     vdW  Elec       q    Type
REMARK                         _______ _______ _______ _____ _____    ______ ____
ROOT
ATOM      1  C   UNL     1      -1.413  -2.041   0.005  0.00  0.00    +0.234 C 
ATOM      2  O   UNL     1      -1.921  -2.659   0.916  0.00  0.00    -0.274 OA
ATOM      3  N   UNL     1      -0.830  -2.701  -1.015  0.00  0.00    -0.313 N 
ATOM      4  H   UNL     1      -0.423  -2.206  -1.744  0.00  0.00    +0.149 HD
ENDROOT
BRANCH   1   5
ATOM      5  C   UNL     1      -1.433  -0.534   0.013  0.00  0.00    +0.163 C 
BRANCH   5   6
ATOM      6  N   UNL     1      -2.119  -0.061   1.218  0.00  0.00    -0.288 N 
ATOM      7  C   UNL     1      -2.704   1.153   1.228  0.00  0.00    +0.298 C 
ATOM      8  O   UNL     1      -2.663   1.856   0.237  0.00  0.00    -0.253 OA
ATOM      9  N   UNL     1      -3.335   1.588   2.337  0.00  0.00    -0.313 N 
ATOM     10  H   UNL     1      -2.152  -0.622   2.009  0.00  0.00    +0.151 HD
ATOM     11  H   UNL     1      -3.368   1.027   3.128  0.00  0.00    +0.146 HD
ATOM     12  H   UNL     1      -3.756   2.461   2.345  0.00  0.00    +0.146 HD
ENDBRANCH   5   6
BRANCH   5  14
ATOM     13  C   UNL     1      -0.019   1.526   0.010  0.00  0.00    +0.009 C 
ATOM     14  C   UNL     1       0.002  -0.004   0.002  0.00  0.00    +0.012 C 
ATOM     15  C   UNL     1       0.742  -0.511   1.242  0.00  0.00    +0.009 C 
ENDBRANCH   5  14
ENDBRANCH   1   5
BRANCH   3  16
ATOM     16  C   UNL     1      -0.810  -4.166  -1.024  0.00  0.00    +0.110 C 
BRANCH  16  17
ATOM     17  C   UNL     1      -0.094  -4.659  -2.282  0.00  0.00    +0.073 C 
BRANCH  17  18
ATOM     18  C   UNL     1      -0.073  -6.166  -2.291  0.00  0.00    +0.036 A 
ATOM     19  C   UNL     1       0.839  -6.945  -1.669  0.00  0.00    +0.113 A 
ATOM     20  N   UNL     1       0.499  -8.246  -1.923  0.00  0.00    -0.308 N 
ATOM     21  C   UNL     1       1.057  -9.435  -1.553  0.00  0.00    +0.092 A 
ATOM     22  C   UNL     1       0.510 -10.604  -1.948  0.00  0.00    +0.018 A 
ATOM     23  C   UNL     1      -0.644 -10.611  -2.749  0.00  0.00    +0.005 A 
ATOM     24  C   UNL     1      -1.210  -9.433  -3.126  0.00  0.00    +0.045 A 
ATOM     25  C   UNL     1      -0.627  -8.221  -2.704  0.00  0.00    +0.115 A 
ATOM     26  N   UNL     1      -0.957  -6.954  -2.908  0.00  0.00    -0.343 N 
ATOM     27  H   UNL     1      -1.718  -6.647  -3.426  0.00  0.00    +0.167 HD
ENDBRANCH  17  18
ENDBRANCH  16  17
ENDBRANCH   3  16
TORSDOF 6
