REMARK  Name = ZINC40801832
REMARK  5 active torsions:
REMARK  status: ('A' for Active; 'I' for Inactive)
REMARK    1  A    between atoms: C_1  and  C_2
REMARK    2  A    between atoms: C_2  and  N_3
REMARK    3  A    between atoms: C_4  and  C_6
REMARK    4  A    between atoms: C_10  and  N_11
REMARK    5  A    between atoms: C_12  and  C_14
REMARK                            x       y       z     vdW  Elec       q    Type
REMARK                         _______ _______ _______ _____ _____    ______ ____
ROOT
ATOM      1  N   UNL     1      -3.171  -2.442   2.499  0.00  0.00    -0.273 N 
ATOM      2  C   UNL     1      -3.963  -2.744   3.547  0.00  0.00    +0.284 C 
ATOM      3  O   UNL     1      -5.091  -3.158   3.358  0.00  0.00    -0.266 OA
ATOM      4  H   UNL     1      -2.272  -2.112   2.650  0.00  0.00    +0.156 HD
ENDROOT
BRANCH   2   5
ATOM      5  C   UNL     1      -3.465  -2.573   4.914  0.00  0.00    +0.194 A 
ATOM      6  C   UNL     1      -4.166  -2.848   6.053  0.00  0.00    +0.070 A 
ATOM      7  C   UNL     1      -3.317  -2.543   7.120  0.00  0.00    +0.106 A 
ATOM      8  C   UNL     1      -3.496  -2.617   8.578  0.00  0.00    +0.204 A 
ATOM      9  O   UNL     1      -4.451  -3.159   9.107  0.00  0.00    -0.286 OA
ATOM     10  C   UNL     1      -2.401  -1.969   9.346  0.00  0.00    +0.065 A 
ATOM     11  C   UNL     1      -2.530  -1.780  10.722  0.00  0.00    +0.015 A 
ATOM     12  C   UNL     1      -1.513  -1.175  11.426  0.00  0.00    +0.001 A 
ATOM     13  C   UNL     1      -0.366  -0.757  10.768  0.00  0.00    +0.004 A 
ATOM     14  C   UNL     1      -0.228  -0.940   9.410  0.00  0.00    +0.047 A 
ATOM     15  C   UNL     1      -1.243  -1.551   8.675  0.00  0.00    +0.143 A 
ATOM     16  O   UNL     1      -1.067  -1.721   7.343  0.00  0.00    -0.424 OA
ATOM     17  C   UNL     1      -2.106  -2.090   6.575  0.00  0.00    +0.304 A 
ATOM     18  O   UNL     1      -2.232  -2.122   5.251  0.00  0.00    -0.419 OA
ENDBRANCH   2   5
BRANCH   1  23
ATOM     19  C   UNL     1      -2.976  -2.347   0.018  0.00  0.00    +0.069 A 
ATOM     20  C   UNL     1      -3.696  -2.607  -1.217  0.00  0.00    -0.023 A 
ATOM     21  C   UNL     1      -4.951  -3.071  -1.037  0.00  0.00    -0.004 A 
ATOM     22  S   UNL     1      -5.152  -3.153   0.719  0.00  0.00    -0.077 S 
ATOM     23  C   UNL     1      -3.642  -2.604   1.206  0.00  0.00    +0.085 A 
ATOM     24  C   UNL     1      -5.940  -3.429  -2.103  0.00  0.00    +0.043 C 
ATOM     25  C   UNL     1      -5.450  -2.836  -3.433  0.00  0.00    +0.005 C 
ATOM     26  C   UNL     1      -3.969  -3.181  -3.614  0.00  0.00    +0.005 C 
ATOM     27  C   UNL     1      -3.124  -2.392  -2.610  0.00  0.00    +0.037 C 
BRANCH  19  29
ATOM     28  N   UNL     1      -1.372  -0.511   0.012  0.00  0.00    -0.312 N 
ATOM     29  C   UNL     1      -1.601  -1.839   0.007  0.00  0.00    +0.247 C 
ATOM     30  O   UNL     1      -0.665  -2.618  -0.006  0.00  0.00    -0.270 OA
ATOM     31  H   UNL     1      -2.118   0.109   0.023  0.00  0.00    +0.149 HD
BRANCH  28  33
ATOM     32  C   UNL     1      -0.019   1.526   0.010  0.00  0.00    +0.024 C 
ATOM     33  C   UNL     1       0.002  -0.004   0.002  0.00  0.00    +0.101 C 
ENDBRANCH  28  33
ENDBRANCH  19  29
ENDBRANCH   1  23
TORSDOF 4
