REMARK  Name = ZINC57325084
REMARK  6 active torsions:
REMARK  status: ('A' for Active; 'I' for Inactive)
REMARK    1  A    between atoms: C_1  and  C_2
REMARK    2  A    between atoms: C_2  and  C_4
REMARK    3  A    between atoms: C_2  and  N_11
REMARK    4  A    between atoms: N_11  and  C_12
REMARK    5  A    between atoms: C_12  and  C_14
REMARK    6  A    between atoms: C_12  and  C_15
REMARK                            x       y       z     vdW  Elec       q    Type
REMARK                         _______ _______ _______ _____ _____    ______ ____
ROOT
ATOM      1  N   UNL     1       0.616  -0.351  -1.215  0.00  0.00    -0.299 NA
ATOM      2  H   UNL     1       1.439   0.213  -1.365  0.00  0.00    +0.123 HD
ENDROOT
BRANCH   1   4
ATOM      3  C   UNL     1       0.911   0.621   1.014  0.00  0.00    +0.029 C 
ATOM      4  C   UNL     1      -0.094   0.068   0.001  0.00  0.00    +0.081 C 
BRANCH   4   5
ATOM      5  C   UNL     1      -0.810  -1.116   0.598  0.00  0.00    -0.031 A 
ATOM      6  C   UNL     1      -0.196  -2.354   0.622  0.00  0.00    +0.006 A 
ATOM      7  C   UNL     1      -0.852  -3.441   1.169  0.00  0.00    +0.020 A 
ATOM      8  C   UNL     1      -2.123  -3.288   1.694  0.00  0.00    +0.041 A 
ATOM      9  C   UNL     1      -2.737  -2.049   1.670  0.00  0.00    +0.020 A 
ATOM     10  C   UNL     1      -2.078  -0.962   1.127  0.00  0.00    +0.006 A 
ATOM     11 CL   UNL     1      -2.948  -4.652   2.382  0.00  0.00    -0.084 Cl
ENDBRANCH   4   5
ENDBRANCH   1   4
BRANCH   1  12
ATOM     12  C   UNL     1      -0.272  -0.309  -2.384  0.00  0.00    +0.138 C 
ATOM     13  C   UNL     1      -0.247   1.094  -2.993  0.00  0.00    +0.034 C 
BRANCH  12  14
ATOM     14  C   UNL     1       0.200  -1.309  -3.409  0.00  0.00    +0.237 C 
ATOM     15  O   UNL     1       1.178  -1.990  -3.186  0.00  0.00    -0.274 OA
ATOM     16  N   UNL     1      -0.467  -1.448  -4.572  0.00  0.00    -0.239 N 
ATOM     17  C   UNL     1      -0.046  -2.342  -5.488  0.00  0.00    +0.303 C 
ATOM     18  O   UNL     1       0.935  -3.024  -5.265  0.00  0.00    -0.253 OA
ATOM     19  N   UNL     1      -0.712  -2.480  -6.651  0.00  0.00    -0.313 N 
ATOM     20  H   UNL     1      -1.250  -0.903  -4.750  0.00  0.00    +0.159 HD
ATOM     21  H   UNL     1      -1.495  -1.936  -6.829  0.00  0.00    +0.146 HD
ATOM     22  H   UNL     1      -0.409  -3.124  -7.310  0.00  0.00    +0.146 HD
ENDBRANCH  12  14
ENDBRANCH   1  12
TORSDOF 4
