REMARK  Name = ZINC22635938
REMARK  4 active torsions:
REMARK  status: ('A' for Active; 'I' for Inactive)
REMARK    1  A    between atoms: C_1  and  C_2
REMARK    2  A    between atoms: C_2  and  N_3
REMARK    3  A    between atoms: C_11  and  O_22
REMARK    4  A    between atoms: C_13  and  C_16
REMARK                            x       y       z     vdW  Elec       q    Type
REMARK                         _______ _______ _______ _____ _____    ______ ____
ROOT
ATOM      1  N   UNL     1      -0.718   1.570  -1.187  0.00  0.00    +0.383 N 
ATOM      2  C   UNL     1      -0.013   1.086   0.008  0.00  0.00    -0.074 C 
ATOM      3  C   UNL     1      -0.724   1.577   1.272  0.00  0.00    +0.018 C 
ATOM      4  C   UNL     1      -2.198   1.215   1.163  0.00  0.00    -0.027 A 
ATOM      5  C   UNL     1      -2.729   0.903  -0.043  0.00  0.00    -0.021 A 
ATOM      6  S   UNL     1      -4.436   0.557   0.287  0.00  0.00    -0.080 S 
ATOM      7  C   UNL     1      -4.439   0.823   1.977  0.00  0.00    +0.080 A 
ATOM      8  C   UNL     1      -3.117   1.173   2.285  0.00  0.00    +0.067 A 
ATOM      9  C   UNL     1      -2.808   1.474   3.706  0.00  0.00    +0.220 C 
ATOM     10  N   UNL     1      -3.715   1.189   4.599  0.00  0.00    -0.221 NA
ATOM     11  C   UNL     1      -4.973   0.510   4.317  0.00  0.00    +0.240 C 
ATOM     12  N   UNL     1      -5.422   0.751   2.933  0.00  0.00    -0.312 N 
ATOM     13  C   UNL     1      -2.005   0.869  -1.352  0.00  0.00    -0.035 C 
ATOM     14  H   UNL     1      -6.495   0.862   2.715  0.00  0.00    +0.149 HD
ATOM     15  H   UNL     1      -0.924   2.642  -1.049  0.00  0.00    -0.081 HD
ENDROOT
BRANCH  11  16
ATOM     16  C   UNL     1      -4.789  -0.972   4.524  0.00  0.00    +0.059 A 
ATOM     17  C   UNL     1      -3.935  -1.549   5.394  0.00  0.00    +0.026 A 
ATOM     18  C   UNL     1      -4.082  -2.944   5.266  0.00  0.00    +0.019 A 
ATOM     19  C   UNL     1      -5.019  -3.167   4.322  0.00  0.00    +0.083 A 
ATOM     20  N   UNL     1      -5.461  -1.960   3.867  0.00  0.00    -0.361 N 
ATOM     21  H   UNL     1      -6.218  -1.702   3.111  0.00  0.00    +0.165 HD
ENDBRANCH  11  16
BRANCH   1  23
ATOM     22  C   UNL     1      -0.540   2.161  -3.557  0.00  0.00    -0.017 C 
ATOM     23  C   UNL     1       0.117   1.427  -2.386  0.00  0.00    -0.082 C 
ENDBRANCH   1  23
BRANCH   9  24
ATOM     24  O   UNL     1      -1.625   2.026   4.063  0.00  0.00    -0.492 OA
ATOM     25  H   UNL     1      -1.415   2.242   5.121  0.00  0.00    +0.294 HD
ENDBRANCH   9  24
TORSDOF 3
