REMARK  Name = ZINC00071170
REMARK  4 active torsions:
REMARK  status: ('A' for Active; 'I' for Inactive)
REMARK    1  A    between atoms: C_4  and  S_8
REMARK    2  A    between atoms: C_5  and  N_7
REMARK    3  A    between atoms: S_8  and  C_9
REMARK    4  A    between atoms: N_14  and  C_17
REMARK                            x       y       z     vdW  Elec       q    Type
REMARK                         _______ _______ _______ _____ _____    ______ ____
ROOT
ATOM      1  C   UNL     1       5.253   0.642  -0.123  0.00  0.00    +0.147 C 
ATOM      2  C   UNL     1       6.543  -0.200  -0.060  0.00  0.00    +0.120 C 
ATOM      3  C   UNL     1       7.167   0.204   1.257  0.00  0.00    +0.228 C 
ATOM      4  O   UNL     1       8.209  -0.227   1.703  0.00  0.00    -0.275 OA
ATOM      5  N   UNL     1       6.387   1.115   1.853  0.00  0.00    -0.209 N 
ATOM      6  C   UNL     1       5.282   1.438   1.163  0.00  0.00    +0.240 C 
ATOM      7  O   UNL     1       4.440   2.238   1.513  0.00  0.00    -0.274 OA
ENDROOT
BRANCH   5   8
ATOM      8  C   UNL     1       6.699   1.686   3.096  0.00  0.00    +0.048 A 
ATOM      9  C   UNL     1       7.794   2.530   3.216  0.00  0.00    +0.028 A 
ATOM     10  C   UNL     1       8.103   3.094   4.439  0.00  0.00    +0.051 A 
ATOM     11  C   UNL     1       7.321   2.818   5.549  0.00  0.00    +0.166 A 
ATOM     12  C   UNL     1       6.221   1.971   5.432  0.00  0.00    +0.168 A 
ATOM     13  C   UNL     1       5.910   1.411   4.204  0.00  0.00    +0.073 A 
ATOM     14  O   UNL     1       5.622   1.861   6.653  0.00  0.00    -0.453 OA
ATOM     15  C   UNL     1       6.601   2.322   7.604  0.00  0.00    +0.466 C 
ATOM     16  O   UNL     1       7.410   3.240   6.845  0.00  0.00    -0.453 OA
ENDBRANCH   5   8
BRANCH   1  17
ATOM     17  S   UNL     1       3.791  -0.430  -0.178  0.00  0.00    -0.110 S 
BRANCH  17  21
ATOM     18  C   UNL     1       0.323   2.462  -0.574  0.00  0.00    +0.002 A 
ATOM     19  C   UNL     1       1.619   2.940  -0.501  0.00  0.00    +0.001 A 
ATOM     20  C   UNL     1       2.678   2.060  -0.381  0.00  0.00    +0.016 A 
ATOM     21  C   UNL     1       2.443   0.694  -0.331  0.00  0.00    +0.029 A 
ATOM     22  C   UNL     1       1.135   0.212  -0.404  0.00  0.00    +0.038 A 
ATOM     23  C   UNL     1       0.079   1.102  -0.525  0.00  0.00    +0.024 A 
BRANCH  22  24
ATOM     24  N   UNL     1       0.891  -1.166  -0.356  0.00  0.00    -0.357 N 
ATOM     25  H   UNL     1       1.631  -1.787  -0.271  0.00  0.00    +0.142 HD
ATOM     26  H   UNL     1      -0.019  -1.499  -0.406  0.00  0.00    +0.142 HD
ENDBRANCH  22  24
ENDBRANCH  17  21
ENDBRANCH   1  17
TORSDOF 4
