REMARK  Name = ZINC04768192
REMARK  9 active torsions:
REMARK  status: ('A' for Active; 'I' for Inactive)
REMARK    1  A    between atoms: C_1  and  C_2
REMARK    2  A    between atoms: C_5  and  N_9
REMARK    3  A    between atoms: C_6  and  C_8
REMARK    4  A    between atoms: C_10  and  S_14
REMARK    5  A    between atoms: S_14  and  C_15
REMARK    6  A    between atoms: C_15  and  C_17
REMARK    7  A    between atoms: C_15  and  C_20
REMARK    8  A    between atoms: C_17  and  C_18
REMARK    9  A    between atoms: C_17  and  C_19
REMARK                            x       y       z     vdW  Elec       q    Type
REMARK                         _______ _______ _______ _____ _____    ______ ____
ROOT
ATOM      1  S   UNL     1       2.579  -2.940   0.980  0.00  0.00    -0.071 S 
ENDROOT
BRANCH   1   3
ATOM      2  N   UNL     1       3.433  -5.590   0.776  0.00  0.00    -0.187 N 
ATOM      3  C   UNL     1       2.464  -4.657   0.599  0.00  0.00    +0.215 A 
ATOM      4  N   UNL     1       1.420  -5.277   0.093  0.00  0.00    -0.101 NA
ATOM      5  N   UNL     1       1.672  -6.526  -0.065  0.00  0.00    -0.022 NA
ATOM      6  N   UNL     1       2.869  -6.797   0.328  0.00  0.00    -0.038 NA
BRANCH   2  11
ATOM      7  C   UNL     1       8.644  -4.790   2.880  0.00  0.00    +0.044 C 
ATOM      8  C   UNL     1       7.261  -5.002   2.322  0.00  0.00    -0.050 A 
ATOM      9  C   UNL     1       6.781  -4.166   1.330  0.00  0.00    +0.005 A 
ATOM     10  C   UNL     1       5.516  -4.361   0.812  0.00  0.00    +0.028 A 
ATOM     11  C   UNL     1       4.721  -5.392   1.296  0.00  0.00    +0.073 A 
ATOM     12  C   UNL     1       5.205  -6.230   2.291  0.00  0.00    -0.025 A 
ATOM     13  C   UNL     1       6.473  -6.033   2.801  0.00  0.00    +0.008 A 
ATOM     14  C   UNL     1       4.348  -7.354   2.814  0.00  0.00    +0.046 C 
ENDBRANCH   2  11
ENDBRANCH   1   3
BRANCH   1  15
ATOM     15  C   UNL     1       0.951  -2.384   0.420  0.00  0.00    +0.143 C 
BRANCH  15  16
ATOM     16  C   UNL     1       0.717  -0.968   0.881  0.00  0.00    +0.234 C 
ATOM     17  O   UNL     1       1.661  -0.241   1.107  0.00  0.00    -0.274 OA
ATOM     18  N   UNL     1      -0.540  -0.511   1.043  0.00  0.00    -0.239 N 
ATOM     19  C   UNL     1      -0.749   0.755   1.456  0.00  0.00    +0.303 C 
ATOM     20  O   UNL     1       0.197   1.484   1.682  0.00  0.00    -0.253 OA
ATOM     21  N   UNL     1      -2.006   1.214   1.612  0.00  0.00    -0.313 N 
ATOM     22  H   UNL     1      -1.295  -1.093   0.862  0.00  0.00    +0.159 HD
ATOM     23  H   UNL     1      -2.761   0.634   1.427  0.00  0.00    +0.146 HD
ATOM     24  H   UNL     1      -2.156   2.125   1.909  0.00  0.00    +0.146 HD
ENDBRANCH  15  16
BRANCH  15  25
ATOM     25  C   UNL     1       0.891  -2.438  -1.108  0.00  0.00    +0.005 C 
ATOM     26  C   UNL     1      -0.525  -2.097  -1.576  0.00  0.00    +0.009 C 
ATOM     27  C   UNL     1       1.879  -1.427  -1.693  0.00  0.00    +0.009 C 
ENDBRANCH  15  25
ENDBRANCH   1  15
TORSDOF 5
