REMARK  Name = ZINC22780113
REMARK  14 active torsions:
REMARK  status: ('A' for Active; 'I' for Inactive)
REMARK    1  A    between atoms: C_1  and  C_2
REMARK    2  A    between atoms: C_2  and  O_3
REMARK    3  A    between atoms: O_3  and  C_4
REMARK    4  A    between atoms: C_4  and  C_6
REMARK    5  A    between atoms: C_7  and  C_31
REMARK    6  A    between atoms: N_8  and  C_18
REMARK    7  A    between atoms: C_12  and  O_16
REMARK    8  A    between atoms: O_16  and  C_17
REMARK    9  A    between atoms: C_18  and  C_19
REMARK   10  A    between atoms: C_19  and  C_21
REMARK   11  A    between atoms: C_19  and  O_30
REMARK   12  A    between atoms: C_21  and  N_22
REMARK   13  A    between atoms: N_22  and  C_23
REMARK   14  A    between atoms: C_23  and  C_24
REMARK                            x       y       z     vdW  Elec       q    Type
REMARK                         _______ _______ _______ _____ _____    ______ ____
ROOT
ATOM      1  C   UNL     1      -1.295   1.928   0.019  0.00  0.00    +0.087 A 
ATOM      2  C   UNL     1      -2.003   2.321   1.117  0.00  0.00    +0.031 A 
ATOM      3  N   UNL     1      -3.134   2.955   0.731  0.00  0.00    -0.341 N 
ATOM      4  C   UNL     1      -3.213   3.004  -0.648  0.00  0.00    +0.051 A 
ATOM      5  C   UNL     1      -2.068   2.371  -1.157  0.00  0.00    +0.018 A 
ATOM      6  C   UNL     1      -1.881   2.264  -2.532  0.00  0.00    +0.057 A 
ATOM      7  C   UNL     1      -2.823   2.794  -3.394  0.00  0.00    +0.135 A 
ATOM      8  C   UNL     1      -3.955   3.427  -2.888  0.00  0.00    +0.061 A 
ATOM      9  C   UNL     1      -4.151   3.532  -1.528  0.00  0.00    +0.045 A 
ATOM     10 BR   UNL     1      -5.236   4.148  -4.078  0.00  0.00    -0.046 Br
ATOM     11  C   UNL     1      -1.587   2.084   2.547  0.00  0.00    +0.064 C 
ENDROOT
BRANCH   1  12
ATOM     12  C   UNL     1      -0.014   1.212   0.009  0.00  0.00    +0.341 C 
ATOM     13  O   UNL     1       0.002  -0.004   0.002  0.00  0.00    -0.245 OA
BRANCH  12  14
ATOM     14  O   UNL     1       1.144   1.902   0.001  0.00  0.00    -0.461 OA
BRANCH  14  16
ATOM     15  C   UNL     1       3.573   2.076  -0.021  0.00  0.00    +0.048 C 
ATOM     16  C   UNL     1       2.372   1.128  -0.015  0.00  0.00    +0.229 C 
ENDBRANCH  14  16
ENDBRANCH  12  14
ENDBRANCH   1  12
BRANCH   7  17
ATOM     17  O   UNL     1      -2.643   2.698  -4.738  0.00  0.00    -0.494 OA
ATOM     18  C   UNL     1      -1.460   2.036  -5.189  0.00  0.00    +0.277 C 
ENDBRANCH   7  17
BRANCH   3  19
ATOM     19  C   UNL     1      -4.134   3.513   1.645  0.00  0.00    +0.151 C 
BRANCH  19  20
ATOM     20  C   UNL     1      -3.777   4.965   1.967  0.00  0.00    +0.117 C 
BRANCH  20  21
ATOM     21  O   UNL     1      -2.543   5.004   2.687  0.00  0.00    -0.392 OA
ATOM     22  H   UNL     1      -2.123   5.969   3.007  0.00  0.00    +0.210 HD
ENDBRANCH  20  21
BRANCH  20  23
ATOM     23  C   UNL     1      -4.885   5.586   2.820  0.00  0.00    -0.049 C 
BRANCH  23  24
ATOM     24  N   UNL     1      -4.602   7.012   3.029  0.00  0.00    +0.383 N 
ATOM     25  H   UNL     1      -3.636   7.122   3.545  0.00  0.00    -0.085 HD
ATOM     26  H   UNL     1      -4.558   7.524   2.057  0.00  0.00    -0.085 HD
BRANCH  24  27
ATOM     27  C   UNL     1      -5.647   7.642   3.846  0.00  0.00    -0.047 C 
BRANCH  27  28
ATOM     28  C   UNL     1      -5.323   9.101   4.039  0.00  0.00    -0.064 A 
ATOM     29  C   UNL     1      -4.565   9.504   5.122  0.00  0.00    +0.002 A 
ATOM     30  C   UNL     1      -4.264  10.842   5.296  0.00  0.00    +0.000 A 
ATOM     31  C   UNL     1      -4.729  11.778   4.392  0.00  0.00    +0.000 A 
ATOM     32  C   UNL     1      -5.492  11.376   3.312  0.00  0.00    +0.000 A 
ATOM     33  C   UNL     1      -5.789  10.038   3.135  0.00  0.00    +0.002 A 
ENDBRANCH  27  28
ENDBRANCH  24  27
ENDBRANCH  23  24
ENDBRANCH  20  23
ENDBRANCH  19  20
ENDBRANCH   3  19
TORSDOF 11
