REMARK  Name = ZINC37627774
REMARK  5 active torsions:
REMARK  status: ('A' for Active; 'I' for Inactive)
REMARK    1  A    between atoms: C_8  and  N_13
REMARK    2  A    between atoms: C_14  and  C_16
REMARK    3  A    between atoms: C_16  and  C_18
REMARK    4  A    between atoms: C_16  and  N_22
REMARK    5  A    between atoms: C_18  and  C_19
REMARK                            x       y       z     vdW  Elec       q    Type
REMARK                         _______ _______ _______ _____ _____    ______ ____
ROOT
ATOM      1  N   UNL     1       3.441  -2.031  -0.753  0.00  0.00    -0.310 N 
ATOM      2  C   UNL     1       2.853  -3.104  -0.188  0.00  0.00    +0.199 C 
ATOM      3  O   UNL     1       2.509  -3.065   0.974  0.00  0.00    -0.278 OA
ATOM      4  H   UNL     1       3.716  -2.062  -1.683  0.00  0.00    +0.149 HD
ENDROOT
BRANCH   1  12
ATOM      5  C   UNL     1      -0.017   1.381   0.010  0.00  0.00    +0.039 A 
ATOM      6  C   UNL     1       1.174   2.075   0.002  0.00  0.00    +0.018 A 
ATOM      7  C   UNL     1       2.392   1.396  -0.007  0.00  0.00    +0.013 A 
ATOM      8  C   UNL     1       2.415   0.014   0.000  0.00  0.00    -0.011 A 
ATOM      9  C   UNL     1       1.206  -0.678  -0.004  0.00  0.00    +0.045 A 
ATOM     10  C   UNL     1       0.002  -0.004   0.002  0.00  0.00    +0.124 A 
ATOM     11  F   UNL     1      -1.159  -0.695   0.001  0.00  0.00    -0.205 F 
ATOM     12  C   UNL     1       3.664  -0.817   0.036  0.00  0.00    +0.105 C 
ATOM     13  C   UNL     1       4.888  -0.104  -0.510  0.00  0.00    +0.038 C 
ATOM     14  C   UNL     1       5.168   1.140   0.345  0.00  0.00    +0.076 C 
ATOM     15  S   UNL     1       3.873   2.356  -0.036  0.00  0.00    -0.125 S 
ENDBRANCH   1  12
BRANCH   2  16
ATOM     16  C   UNL     1       2.624  -4.353  -1.000  0.00  0.00    +0.021 C 
BRANCH  16  17
ATOM     17  N   UNL     1       2.433  -5.496  -0.098  0.00  0.00    +0.386 N 
ATOM     18  H   UNL     1       1.633  -5.328   0.494  0.00  0.00    -0.089 HD
ATOM     19  H   UNL     1       2.280  -6.332  -0.642  0.00  0.00    -0.089 HD
ATOM     20  H   UNL     1       3.256  -5.614   0.474  0.00  0.00    -0.089 HD
ENDBRANCH  16  17
BRANCH  16  21
ATOM     21  C   UNL     1       1.376  -4.175  -1.868  0.00  0.00    +0.088 C 
BRANCH  21  22
ATOM     22  C   UNL     1       1.216  -5.372  -2.770  0.00  0.00    +0.209 C 
ATOM     23  O   UNL     1       2.021  -6.278  -2.722  0.00  0.00    -0.276 OA
ATOM     24  N   UNL     1       0.179  -5.435  -3.628  0.00  0.00    -0.329 N 
ATOM     25  H   UNL     1      -0.464  -4.710  -3.666  0.00  0.00    +0.145 HD
ATOM     26  H   UNL     1       0.076  -6.206  -4.208  0.00  0.00    +0.145 HD
ENDBRANCH  21  22
ENDBRANCH  16  21
ENDBRANCH   2  16
TORSDOF 5
