REMARK  Name = ZINC39543051
REMARK  6 active torsions:
REMARK  status: ('A' for Active; 'I' for Inactive)
REMARK    1  A    between atoms: C_1  and  N_2
REMARK    2  A    between atoms: N_2  and  C_3
REMARK    3  A    between atoms: C_8  and  O_9
REMARK    4  A    between atoms: C_10  and  C_12
REMARK    5  A    between atoms: C_15  and  S_26
REMARK    6  A    between atoms: S_26  and  C_29
REMARK                            x       y       z     vdW  Elec       q    Type
REMARK                         _______ _______ _______ _____ _____    ______ ____
ROOT
ATOM      1  C   UNL     1      -0.023   0.089  -2.470  0.00  0.00    +0.150 C 
ATOM      2  C   UNL     1       1.192   1.032  -2.565  0.00  0.00    +0.088 C 
ATOM      3  C   UNL     1       1.964   0.519  -3.759  0.00  0.00    +0.107 C 
ATOM      4  C   UNL     1       1.338  -0.507  -4.274  0.00  0.00    +0.097 C 
ATOM      5  N   UNL     1       1.770  -1.273  -5.373  0.00  0.00    -0.302 N 
ATOM      6  C   UNL     1       1.495  -2.648  -5.279  0.00  0.00    +0.037 A 
ATOM      7  C   UNL     1       1.976  -3.516  -6.249  0.00  0.00    +0.023 A 
ATOM      8  C   UNL     1       1.697  -4.866  -6.162  0.00  0.00    +0.002 A 
ATOM      9  C   UNL     1       0.940  -5.346  -5.109  0.00  0.00    +0.000 A 
ATOM     10  C   UNL     1       0.465  -4.482  -4.141  0.00  0.00    +0.007 A 
ATOM     11  C   UNL     1       0.743  -3.127  -4.216  0.00  0.00    -0.010 A 
ATOM     12  C   UNL     1       0.232  -2.215  -3.132  0.00  0.00    +0.124 C 
ATOM     13  N   UNL     1       0.145  -0.830  -3.607  0.00  0.00    -0.369 NA
ATOM     14  H   UNL     1       2.222  -0.882  -6.136  0.00  0.00    +0.153 HD
ATOM     15  H   UNL     1      -0.636  -0.735  -4.239  0.00  0.00    +0.129 HD
ENDROOT
BRANCH   1  18
ATOM     16  C   UNL     1      -2.363  -0.147  -0.889  0.00  0.00    +0.138 C 
ATOM     17  N   UNL     1      -1.122  -0.774  -0.429  0.00  0.00    -0.270 N 
ATOM     18  C   UNL     1       0.000  -0.672  -1.169  0.00  0.00    +0.239 C 
ATOM     19  O   UNL     1       1.028  -1.191  -0.788  0.00  0.00    -0.273 OA
BRANCH  17  20
ATOM     20  C   UNL     1      -1.101  -1.482   0.781  0.00  0.00    +0.078 A 
ATOM     21  C   UNL     1      -1.377  -2.841   0.797  0.00  0.00    +0.027 A 
ATOM     22  C   UNL     1      -1.356  -3.536   1.991  0.00  0.00    +0.002 A 
ATOM     23  C   UNL     1      -1.059  -2.880   3.171  0.00  0.00    +0.004 A 
ATOM     24  C   UNL     1      -0.783  -1.526   3.164  0.00  0.00    +0.047 A 
ATOM     25  C   UNL     1      -0.796  -0.823   1.970  0.00  0.00    +0.138 A 
BRANCH  25  26
ATOM     26  O   UNL     1      -0.518   0.508   1.959  0.00  0.00    -0.505 OA
ATOM     27  H   UNL     1      -1.294   1.073   2.076  0.00  0.00    +0.292 HD
ENDBRANCH  25  26
ENDBRANCH  17  20
ENDBRANCH   1  18
BRANCH   3  28
ATOM     28  S   UNL     1       3.474   1.199  -4.363  0.00  0.00    +0.024 S 
ATOM     29  O   UNL     1       4.333   1.342  -3.241  0.00  0.00    -0.165 OA
ATOM     30  O   UNL     1       3.834   0.435  -5.506  0.00  0.00    -0.165 OA
BRANCH  28  31
ATOM     31  C   UNL     1       3.119   2.827  -4.937  0.00  0.00    +0.093 A 
ATOM     32  C   UNL     1       2.735   3.028  -6.250  0.00  0.00    +0.027 A 
ATOM     33  C   UNL     1       2.457   4.305  -6.700  0.00  0.00    +0.002 A 
ATOM     34  C   UNL     1       2.562   5.381  -5.838  0.00  0.00    +0.000 A 
ATOM     35  C   UNL     1       2.946   5.179  -4.525  0.00  0.00    +0.002 A 
ATOM     36  C   UNL     1       3.220   3.901  -4.074  0.00  0.00    +0.027 A 
ENDBRANCH  28  31
ENDBRANCH   3  28
TORSDOF 5
