REMARK  Name = ZINC20706868
REMARK  6 active torsions:
REMARK  status: ('A' for Active; 'I' for Inactive)
REMARK    1  A    between atoms: C_1  and  O_2
REMARK    2  A    between atoms: O_2  and  C_3
REMARK    3  A    between atoms: C_6  and  O_26
REMARK    4  A    between atoms: C_16  and  C_19
REMARK    5  A    between atoms: C_24  and  O_25
REMARK    6  A    between atoms: O_26  and  C_27
REMARK                            x       y       z     vdW  Elec       q    Type
REMARK                         _______ _______ _______ _____ _____    ______ ____
ROOT
ATOM      1  C   UNL     1       0.011  -0.018   0.004  0.00  0.00    +0.126 A 
ATOM      2  C   UNL     1       1.221  -0.696   0.003  0.00  0.00    +0.049 A 
ATOM      3  C   UNL     1       1.229  -2.079   0.023  0.00  0.00    +0.051 A 
ATOM      4  C   UNL     1       0.040  -2.781   0.027  0.00  0.00    +0.141 A 
ATOM      5  C   UNL     1      -1.189  -2.112   0.014  0.00  0.00    +0.077 A 
ATOM      6  C   UNL     1      -1.184  -0.716   0.010  0.00  0.00    +0.026 A 
ATOM      7  C   UNL     1      -2.490  -0.021   0.025  0.00  0.00    +0.052 C 
ATOM      8  C   UNL     1      -2.689   1.320  -0.578  0.00  0.00    -0.022 C 
ATOM      9  C   UNL     1      -3.933   1.395  -1.038  0.00  0.00    -0.030 C 
ATOM     10  C   UNL     1      -4.658   0.068  -0.802  0.00  0.00    +0.033 C 
ATOM     11  C   UNL     1      -3.485  -0.919  -0.774  0.00  0.00    +0.029 C 
ATOM     12  C   UNL     1      -3.630  -2.171   0.067  0.00  0.00    +0.109 C 
ATOM     13  N   UNL     1      -2.348  -2.890  -0.006  0.00  0.00    -0.333 N 
ATOM     14  H   UNL     1      -2.336  -3.988  -0.073  0.00  0.00    +0.147 HD
ENDROOT
BRANCH  12  15
ATOM     15  C   UNL     1      -4.737  -3.033  -0.482  0.00  0.00    +0.014 A 
ATOM     16  C   UNL     1      -5.948  -3.107   0.179  0.00  0.00    +0.009 A 
ATOM     17  C   UNL     1      -6.965  -3.895  -0.327  0.00  0.00    +0.001 A 
ATOM     18  C   UNL     1      -6.771  -4.618  -1.489  0.00  0.00    +0.004 A 
ATOM     19  C   UNL     1      -5.560  -4.551  -2.151  0.00  0.00    +0.046 A 
ATOM     20  C   UNL     1      -4.539  -3.758  -1.649  0.00  0.00    +0.122 A 
BRANCH  20  21
ATOM     21  O   UNL     1      -3.347  -3.691  -2.298  0.00  0.00    -0.506 OA
ATOM     22  H   UNL     1      -3.191  -4.266  -3.223  0.00  0.00    +0.292 HD
ENDBRANCH  20  21
ENDBRANCH  12  15
BRANCH   1  24
ATOM     23  C   UNL     1       1.267   2.001  -0.013  0.00  0.00    +0.277 C 
ATOM     24  O   UNL     1      -0.001   1.341  -0.007  0.00  0.00    -0.495 OA
ENDBRANCH   1  24
BRANCH   4  25
ATOM     25  O   UNL     1       0.064  -4.142   0.045  0.00  0.00    -0.493 OA
ATOM     26  C   UNL     1       1.349  -4.768   0.058  0.00  0.00    +0.277 C 
ENDBRANCH   4  25
TORSDOF 4
