REMARK  Name = ZINC64020246
REMARK  9 active torsions:
REMARK  status: ('A' for Active; 'I' for Inactive)
REMARK    1  A    between atoms: C_1  and  C_2
REMARK    2  A    between atoms: C_4  and  C_12
REMARK    3  A    between atoms: C_12  and  C_14
REMARK    4  A    between atoms: C_14  and  C_16
REMARK    5  A    between atoms: C_14  and  O_17
REMARK    6  A    between atoms: O_17  and  C_18
REMARK    7  A    between atoms: C_18  and  C_20
REMARK    8  A    between atoms: C_24  and  N_26
REMARK    9  A    between atoms: C_27  and  C_29
REMARK                            x       y       z     vdW  Elec       q    Type
REMARK                         _______ _______ _______ _____ _____    ______ ____
ROOT
ATOM      1  O   UNL     1       1.076   0.020  -4.849  0.00  0.00    -0.453 OA
ENDROOT
BRANCH   1   2
ATOM      2  C   UNL     1       1.283  -0.772  -3.678  0.00  0.00    +0.244 C 
ATOM      3  C   UNL     1       0.965  -2.236  -3.990  0.00  0.00    +0.061 C 
BRANCH   2   4
ATOM      4  C   UNL     1       0.379  -0.286  -2.575  0.00  0.00    +0.202 C 
ATOM      5  O   UNL     1      -0.610   0.367  -2.844  0.00  0.00    -0.288 OA
BRANCH   4   8
ATOM      6  C   UNL     1      -0.032   1.408   0.087  0.00  0.00    +0.035 C 
ATOM      7  C   UNL     1      -0.063  -0.120   0.002  0.00  0.00    +0.111 C 
ATOM      8  C   UNL     1       0.680  -0.588  -1.230  0.00  0.00    +0.030 C 
ATOM      9  C   UNL     1       1.717  -1.374  -0.761  0.00  0.00    +0.007 A 
ATOM     10  C   UNL     1       2.750  -2.091  -1.410  0.00  0.00    +0.010 A 
ATOM     11  C   UNL     1       3.650  -2.794  -0.686  0.00  0.00    +0.001 A 
ATOM     12  C   UNL     1       3.610  -2.850   0.716  0.00  0.00    +0.002 A 
ATOM     13  C   UNL     1       2.666  -2.202   1.431  0.00  0.00    +0.026 A 
ATOM     14  C   UNL     1       1.646  -1.413   0.720  0.00  0.00    +0.043 A 
ATOM     15  N   UNL     1       0.639  -0.704   1.148  0.00  0.00    -0.377 N 
ATOM     16  H   UNL     1       0.393  -0.582   2.079  0.00  0.00    +0.160 HD
ENDBRANCH   4   8
ENDBRANCH   2   4
ENDBRANCH   1   2
BRANCH   1  17
ATOM     17  C   UNL     1       2.126   0.180  -5.670  0.00  0.00    +0.322 C 
ATOM     18  O   UNL     1       3.185  -0.337  -5.404  0.00  0.00    -0.250 OA
BRANCH  17  19
ATOM     19  C   UNL     1       1.983   1.002  -6.925  0.00  0.00    +0.165 C 
ATOM     20  C   UNL     1       2.920   0.491  -8.050  0.00  0.00    +0.055 C 
ATOM     21  C   UNL     1       3.496   1.634  -8.822  0.00  0.00    +0.005 C 
ATOM     22  C   UNL     1       3.481   2.855  -8.297  0.00  0.00    +0.065 C 
ATOM     23  S   UNL     1       2.686   2.691  -6.707  0.00  0.00    -0.095 S 
BRANCH  22  24
ATOM     24  N   UNL     1       3.981   4.021  -8.869  0.00  0.00    -0.274 N 
ATOM     25  C   UNL     1       3.890   5.191  -8.206  0.00  0.00    +0.284 C 
ATOM     26  O   UNL     1       3.370   5.227  -7.106  0.00  0.00    -0.266 OA
ATOM     27  H   UNL     1       4.396   3.992  -9.746  0.00  0.00    +0.156 HD
BRANCH  25  28
ATOM     28  C   UNL     1       4.417   6.419  -8.808  0.00  0.00    +0.189 A 
ATOM     29  C   UNL     1       4.394   7.663  -8.245  0.00  0.00    +0.054 A 
ATOM     30  C   UNL     1       5.001   8.533  -9.164  0.00  0.00    +0.042 A 
ATOM     31  C   UNL     1       5.363   7.791 -10.235  0.00  0.00    +0.196 A 
ATOM     32  O   UNL     1       5.014   6.517 -10.014  0.00  0.00    -0.458 OA
ENDBRANCH  25  28
ENDBRANCH  22  24
ENDBRANCH  17  19
ENDBRANCH   1  17
TORSDOF 7
