REMARK  Name = ZINC51673657
REMARK  8 active torsions:
REMARK  status: ('A' for Active; 'I' for Inactive)
REMARK    1  A    between atoms: C_1  and  C_2
REMARK    2  A    between atoms: C_4  and  N_22
REMARK    3  A    between atoms: C_7  and  N_8
REMARK    4  A    between atoms: N_11  and  C_12
REMARK    5  A    between atoms: C_14  and  C_20
REMARK    6  A    between atoms: C_14  and  C_21
REMARK    7  A    between atoms: C_16  and  C_18
REMARK    8  A    between atoms: C_16  and  C_19
REMARK                            x       y       z     vdW  Elec       q    Type
REMARK                         _______ _______ _______ _____ _____    ______ ____
ROOT
ATOM      1  N   UNL     1      -0.031  -0.057   2.448  0.00  0.00    -0.269 N 
ATOM      2  C   UNL     1       0.069  -0.610   3.673  0.00  0.00    +0.304 C 
ATOM      3  O   UNL     1       0.259  -1.806   3.786  0.00  0.00    -0.253 OA
ATOM      4  N   UNL     1      -0.043   0.162   4.772  0.00  0.00    -0.296 N 
ATOM      5  H   UNL     1      -0.127   0.904   2.356  0.00  0.00    +0.156 HD
ATOM      6  H   UNL     1      -0.195   1.116   4.681  0.00  0.00    +0.151 HD
ENDROOT
BRANCH   4   7
ATOM      7  C   UNL     1       0.065  -0.441   6.107  0.00  0.00    +0.072 C 
ATOM      8  C   UNL     1      -1.311  -0.946   6.543  0.00  0.00    +0.009 C 
ATOM      9  C   UNL     1      -1.218  -1.566   7.937  0.00  0.00    -0.072 C 
ATOM     10  N   UNL     1      -0.626  -0.653   8.904  0.00  0.00    +0.386 N 
ATOM     11  C   UNL     1       0.587   0.049   8.516  0.00  0.00    -0.072 C 
ATOM     12  C   UNL     1       0.524   0.623   7.104  0.00  0.00    +0.009 C 
ATOM     13  C   UNL     1       1.827  -0.837   8.665  0.00  0.00    -0.010 C 
ATOM     14  C   UNL     1       0.764   1.240   9.487  0.00  0.00    -0.010 C 
ATOM     15  C   UNL     1      -0.473  -2.899   7.873  0.00  0.00    -0.010 C 
ATOM     16  C   UNL     1      -2.661  -1.868   8.402  0.00  0.00    -0.010 C 
ATOM     17  H   UNL     1      -1.331   0.041   9.162  0.00  0.00    -0.084 HD
ATOM     18  H   UNL     1      -0.436  -1.175   9.763  0.00  0.00    -0.084 HD
ENDBRANCH   4   7
BRANCH   1  25
ATOM     19  C   UNL     1      -1.310   0.884   0.089  0.00  0.00    +0.046 C 
ATOM     20  C   UNL     1      -0.607  -0.448   0.134  0.00  0.00    -0.027 A 
ATOM     21  C   UNL     1      -0.567  -1.246  -0.992  0.00  0.00    +0.028 A 
ATOM     22  C   UNL     1       0.082  -2.474  -0.950  0.00  0.00    +0.030 A 
ATOM     23  C   UNL     1       0.690  -2.898   0.225  0.00  0.00    +0.025 A 
ATOM     24  C   UNL     1       0.649  -2.099   1.350  0.00  0.00    +0.025 A 
ATOM     25  C   UNL     1       0.005  -0.870   1.306  0.00  0.00    +0.038 A 
BRANCH  22  26
ATOM     26  N   UNL     1       0.122  -3.283  -2.091  0.00  0.00    -0.328 N 
ATOM     27  C   UNL     1       0.909  -4.517  -2.074  0.00  0.00    +0.116 C 
ATOM     28  C   UNL     1      -0.030  -5.723  -2.192  0.00  0.00    +0.088 C 
ATOM     29  S   UNL     1      -1.009  -5.550  -3.715  0.00  0.00    -0.158 S 
ATOM     30  C   UNL     1      -1.744  -3.896  -3.549  0.00  0.00    +0.088 C 
ATOM     31  C   UNL     1      -0.627  -2.888  -3.284  0.00  0.00    +0.116 C 
ENDBRANCH  22  26
ENDBRANCH   1  25
TORSDOF 3
