REMARK  Name = ZINC64471143
REMARK  5 active torsions:
REMARK  status: ('A' for Active; 'I' for Inactive)
REMARK    1  A    between atoms: C_1  and  C_2
REMARK    2  A    between atoms: N_5  and  C_8
REMARK    3  A    between atoms: C_11  and  C_14
REMARK    4  A    between atoms: C_17  and  C_21
REMARK    5  A    between atoms: C_29  and  C_31
REMARK                            x       y       z     vdW  Elec       q    Type
REMARK                         _______ _______ _______ _____ _____    ______ ____
ROOT
ATOM      1  C   UNL     1      -0.847  -8.144   1.742  0.00  0.00    +0.180 C 
ATOM      2  N   UNL     1      -2.083  -8.577   2.436  0.00  0.00    -0.262 NA
ATOM      3  C   UNL     1      -2.552  -9.787   1.731  0.00  0.00    +0.298 C 
ATOM      4  O   UNL     1      -1.611 -10.056   0.675  0.00  0.00    -0.270 OA
ATOM      5  N   UNL     1      -0.971  -8.752   0.390  0.00  0.00    -0.177 NA
ATOM      6  H   UNL     1      -1.901  -8.773   3.409  0.00  0.00    +0.127 HD
ATOM      7  H   UNL     1      -1.554  -8.187  -0.209  0.00  0.00    +0.156 HD
ENDROOT
BRANCH   3   8
ATOM      8  C   UNL     1      -2.603 -10.950   2.688  0.00  0.00    +0.262 C 
ATOM      9  O   UNL     1      -1.866 -11.900   2.526  0.00  0.00    -0.271 OA
ATOM     10  N   UNL     1      -3.466 -10.935   3.723  0.00  0.00    -0.295 N 
ATOM     11  C   UNL     1      -4.445  -9.849   3.864  0.00  0.00    +0.127 C 
ATOM     12  C   UNL     1      -5.848 -10.463   3.956  0.00  0.00    +0.127 C 
ATOM     13  N   UNL     1      -5.827 -11.533   4.964  0.00  0.00    -0.295 N 
ATOM     14  C   UNL     1      -4.847 -12.619   4.823  0.00  0.00    +0.127 C 
ATOM     15  C   UNL     1      -3.448 -12.008   4.727  0.00  0.00    +0.127 C 
ATOM     16  C   UNL     1      -6.690 -11.518   5.999  0.00  0.00    +0.246 C 
ATOM     17  O   UNL     1      -6.602 -12.354   6.876  0.00  0.00    -0.270 OA
BRANCH  16  18
ATOM     18  C   UNL     1      -7.744 -10.483   6.067  0.00  0.00    +0.035 C 
ATOM     19  C   UNL     1      -8.818 -10.595   5.253  0.00  0.00    +0.017 C 
ATOM     20  C   UNL     1      -9.846  -9.504   5.254  0.00  0.00    +0.159 C 
ATOM     21  C   UNL     1      -9.837  -8.866   6.630  0.00  0.00    -0.018 C 
ATOM     22  C   UNL     1     -11.125  -8.817   7.012  0.00  0.00    +0.025 C 
ATOM     23  C   UNL     1     -11.919  -9.512   6.073  0.00  0.00    +0.106 C 
ATOM     24  N   UNL     1     -11.218  -9.953   5.064  0.00  0.00    -0.279 NA
ATOM     25  C   UNL     1      -8.645  -8.575   7.323  0.00  0.00    +0.007 C 
ATOM     26  C   UNL     1      -7.585  -9.378   7.021  0.00  0.00    +0.013 C 
ENDBRANCH  16  18
ENDBRANCH   3   8
BRANCH   1  30
ATOM     27  C   UNL     1      -0.694  -3.884   1.466  0.00  0.00    +0.013 A 
ATOM     28  C   UNL     1      -0.133  -4.662   0.470  0.00  0.00    +0.022 A 
ATOM     29  C   UNL     1      -0.183  -6.040   0.559  0.00  0.00    +0.008 A 
ATOM     30  C   UNL     1      -0.792  -6.641   1.645  0.00  0.00    -0.014 A 
ATOM     31  C   UNL     1      -1.352  -5.863   2.641  0.00  0.00    +0.008 A 
ATOM     32  C   UNL     1      -1.298  -4.485   2.554  0.00  0.00    +0.022 A 
BRANCH  27  37
ATOM     33  C   UNL     1       0.072   1.526   0.095  0.00  0.00    +0.007 C 
ATOM     34  C   UNL     1       0.082  -0.004   0.077  0.00  0.00    -0.011 C 
ATOM     35  C   UNL     1      -1.357  -0.526   0.095  0.00  0.00    +0.020 C 
ATOM     36  C   UNL     1      -1.339  -2.055   0.158  0.00  0.00    +0.085 C 
ATOM     37  N   UNL     1      -0.643  -2.490   1.375  0.00  0.00    -0.393 NA
ATOM     38  C   UNL     1       0.757  -2.054   1.332  0.00  0.00    +0.085 C 
ATOM     39  C   UNL     1       0.820  -0.525   1.314  0.00  0.00    +0.020 C 
ATOM     40  H   UNL     1      -1.095  -2.086   2.182  0.00  0.00    +0.126 HD
ENDBRANCH  27  37
ENDBRANCH   1  30
TORSDOF 4
