REMARK  Name = ZINC43218826
REMARK  12 active torsions:
REMARK  status: ('A' for Active; 'I' for Inactive)
REMARK    1  A    between atoms: C_1  and  C_2
REMARK    2  A    between atoms: C_2  and  C_3
REMARK    3  A    between atoms: C_2  and  C_4
REMARK    4  A    between atoms: C_2  and  N_5
REMARK    5  A    between atoms: C_10  and  C_27
REMARK    6  A    between atoms: C_13  and  C_18
REMARK    7  A    between atoms: C_13  and  C_24
REMARK    8  A    between atoms: C_31  and  O_41
REMARK    9  A    between atoms: C_32  and  O_33
REMARK   10  A    between atoms: O_33  and  C_34
REMARK   11  A    between atoms: C_34  and  C_35
REMARK   12  A    between atoms: O_41  and  C_42
REMARK                            x       y       z     vdW  Elec       q    Type
REMARK                         _______ _______ _______ _____ _____    ______ ____
ROOT
ATOM      1  N   UNL     1       0.123  -1.495  -1.684  0.00  0.00    -0.236 N 
ATOM      2  C   UNL     1      -0.024  -2.229  -2.834  0.00  0.00    +0.225 C 
ATOM      3  O   UNL     1      -1.037  -2.740  -3.263  0.00  0.00    -0.275 OA
ATOM      4  C   UNL     1       1.296  -2.258  -3.420  0.00  0.00    +0.077 C 
ATOM      5  C   UNL     1       1.952  -2.521  -4.708  0.00  0.00    -0.023 C 
ATOM      6  N   UNL     1       3.304  -1.884  -4.572  0.00  0.00    +0.398 N 
ATOM      7  C   UNL     1       3.334  -1.168  -3.256  0.00  0.00    +0.074 C 
ATOM      8  C   UNL     1       1.845  -0.825  -3.041  0.00  0.00    +0.090 C 
ATOM      9  C   UNL     1       1.311  -0.823  -1.634  0.00  0.00    +0.226 C 
ATOM     10  O   UNL     1       1.831  -0.328  -0.657  0.00  0.00    -0.275 OA
ATOM     11  H   UNL     1       4.021  -2.594  -4.593  0.00  0.00    -0.083 HD
ATOM     12  H   UNL     1       3.449  -1.226  -5.323  0.00  0.00    -0.083 HD
ENDROOT
BRANCH   7  13
ATOM     13  C   UNL     1       3.862  -2.069  -2.170  0.00  0.00    -0.047 A 
ATOM     14  C   UNL     1       4.000  -3.425  -2.403  0.00  0.00    +0.003 A 
ATOM     15  C   UNL     1       4.484  -4.252  -1.407  0.00  0.00    +0.000 A 
ATOM     16  C   UNL     1       4.831  -3.723  -0.177  0.00  0.00    +0.000 A 
ATOM     17  C   UNL     1       4.694  -2.368   0.056  0.00  0.00    +0.000 A 
ATOM     18  C   UNL     1       4.214  -1.540  -0.942  0.00  0.00    +0.003 A 
ENDBRANCH   7  13
BRANCH   5  19
ATOM     19  C   UNL     1       1.178  -1.885  -5.834  0.00  0.00    -0.015 A 
ATOM     20  C   UNL     1       0.212  -0.934  -5.558  0.00  0.00    +0.006 A 
ATOM     21  C   UNL     1      -0.499  -0.349  -6.588  0.00  0.00    +0.004 A 
ATOM     22  C   UNL     1      -0.250  -0.712  -7.899  0.00  0.00    +0.049 A 
ATOM     23  C   UNL     1       0.716  -1.664  -8.182  0.00  0.00    +0.162 A 
ATOM     24  C   UNL     1       1.437  -2.248  -7.145  0.00  0.00    +0.164 A 
BRANCH  23  25
ATOM     25  O   UNL     1       0.963  -2.022  -9.471  0.00  0.00    -0.491 OA
ATOM     26  C   UNL     1       0.188  -1.376 -10.483  0.00  0.00    +0.277 C 
ENDBRANCH  23  25
BRANCH  24  27
ATOM     27  O   UNL     1       2.390  -3.179  -7.419  0.00  0.00    -0.484 OA
BRANCH  27  28
ATOM     28  C   UNL     1       1.951  -4.530  -7.578  0.00  0.00    +0.264 C 
BRANCH  28  29
ATOM     29  C   UNL     1       3.116  -5.391  -7.993  0.00  0.00    -0.010 A 
ATOM     30  C   UNL     1       3.405  -5.565  -9.334  0.00  0.00    +0.007 A 
ATOM     31  C   UNL     1       4.473  -6.355  -9.714  0.00  0.00    +0.000 A 
ATOM     32  C   UNL     1       5.254  -6.971  -8.754  0.00  0.00    +0.000 A 
ATOM     33  C   UNL     1       4.966  -6.796  -7.413  0.00  0.00    +0.000 A 
ATOM     34  C   UNL     1       3.900  -6.003  -7.032  0.00  0.00    +0.007 A 
ENDBRANCH  28  29
ENDBRANCH  27  28
ENDBRANCH  24  27
ENDBRANCH   5  19
BRANCH   1  36
ATOM     35  C   UNL     1      -1.348   0.014  -0.443  0.00  0.00    +0.031 C 
ATOM     36  C   UNL     1      -0.888  -1.434  -0.625  0.00  0.00    +0.036 C 
ATOM     37  C   UNL     1      -0.287  -1.947   0.685  0.00  0.00    +0.031 C 
ATOM     38  C   UNL     1      -2.085  -2.305  -1.013  0.00  0.00    +0.031 C 
ENDBRANCH   1  36
BRANCH   7  39
ATOM     39  C   UNL     1       4.155   0.092  -3.352  0.00  0.00    +0.350 C 
ATOM     40  O   UNL     1       4.705   0.383  -4.401  0.00  0.00    -0.248 OA
ATOM     41  O   UNL     1       4.271   0.820  -2.381  0.00  0.00    -0.248 OA
ENDBRANCH   7  39
TORSDOF 8
