REMARK  Name = ZINC32869782
REMARK  3 active torsions:
REMARK  status: ('A' for Active; 'I' for Inactive)
REMARK    1  A    between atoms: C_8  and  C_11
REMARK    2  A    between atoms: N_22  and  C_23
REMARK    3  A    between atoms: C_23  and  C_24
REMARK                            x       y       z     vdW  Elec       q    Type
REMARK                         _______ _______ _______ _____ _____    ______ ____
ROOT
ATOM      1  C   UNL     1      -0.006  -0.715  -1.276  0.00  0.00    +0.192 C 
ATOM      2  N   UNL     1      -0.688  -2.005  -1.140  0.00  0.00    -0.322 N 
ATOM      3  C   UNL     1      -0.409  -2.792  -0.029  0.00  0.00    +0.041 A 
ATOM      4  C   UNL     1      -0.482  -4.173  -0.072  0.00  0.00    +0.024 A 
ATOM      5  C   UNL     1      -0.189  -4.909   1.061  0.00  0.00    +0.002 A 
ATOM      6  C   UNL     1       0.177  -4.275   2.238  0.00  0.00    +0.001 A 
ATOM      7  C   UNL     1       0.253  -2.899   2.298  0.00  0.00    +0.015 A 
ATOM      8  C   UNL     1      -0.041  -2.145   1.164  0.00  0.00    +0.058 A 
ATOM      9  C   UNL     1       0.022  -0.672   1.174  0.00  0.00    +0.250 C 
ATOM     10  O   UNL     1       0.091  -0.067   2.226  0.00  0.00    -0.270 OA
ATOM     11  N   UNL     1       0.002  -0.004   0.002  0.00  0.00    -0.267 N 
ATOM     12  H   UNL     1      -1.404  -2.332  -1.909  0.00  0.00    +0.148 HD
ENDROOT
BRANCH   1  20
ATOM     13  C   UNL     1       6.154  -1.158  -1.008  0.00  0.00    +0.001 A 
ATOM     14  C   UNL     1       6.351  -1.331  -2.367  0.00  0.00    +0.004 A 
ATOM     15  C   UNL     1       5.282  -1.285  -3.243  0.00  0.00    +0.046 A 
ATOM     16  C   UNL     1       4.005  -1.070  -2.759  0.00  0.00    +0.128 A 
ATOM     17  C   UNL     1       3.800  -0.921  -1.379  0.00  0.00    +0.017 A 
ATOM     18  C   UNL     1       4.883  -0.949  -0.509  0.00  0.00    +0.011 A 
ATOM     19  C   UNL     1       2.421  -0.708  -0.892  0.00  0.00    +0.017 C 
ATOM     20  C   UNL     1       1.413  -0.952  -1.725  0.00  0.00    +0.006 C 
ATOM     21  C   UNL     1       1.685  -1.469  -3.113  0.00  0.00    +0.263 C 
ATOM     22  O   UNL     1       2.939  -0.978  -3.595  0.00  0.00    -0.487 OA
ENDBRANCH   1  20
BRANCH  11  23
ATOM     23  C   UNL     1      -0.018   1.461   0.010  0.00  0.00    +0.223 C 
BRANCH  23  24
ATOM     24  C   UNL     1       1.418   1.990  -0.001  0.00  0.00    +0.405 C 
ATOM     25  F   UNL     1       2.072   1.539  -1.152  0.00  0.00    -0.169 F 
ATOM     26  F   UNL     1       1.399   3.389   0.007  0.00  0.00    -0.169 F 
ATOM     27  F   UNL     1       2.094   1.527   1.133  0.00  0.00    -0.169 F 
ENDBRANCH  23  24
ENDBRANCH  11  23
TORSDOF 3
