REMARK  Name = ZINC67028437
REMARK  5 active torsions:
REMARK  status: ('A' for Active; 'I' for Inactive)
REMARK    1  A    between atoms: C_1  and  C_2
REMARK    2  A    between atoms: C_7  and  N_8
REMARK    3  A    between atoms: C_9  and  C_11
REMARK    4  A    between atoms: C_12  and  C_24
REMARK    5  A    between atoms: C_17  and  C_19
REMARK                            x       y       z     vdW  Elec       q    Type
REMARK                         _______ _______ _______ _____ _____    ______ ____
ROOT
ATOM      1  C   UNL     1      -0.145   0.007   4.804  0.00  0.00    +0.057 C 
ATOM      2  C   UNL     1      -0.139  -0.647   5.985  0.00  0.00    +0.017 C 
ATOM      3  N   UNL     1      -0.258   0.029   7.166  0.00  0.00    -0.300 N 
ATOM      4  C   UNL     1      -0.387   1.359   7.251  0.00  0.00    +0.135 C 
ATOM      5  S   UNL     1      -0.528   2.080   8.797  0.00  0.00    -0.019 S 
ATOM      6  N   UNL     1      -0.409   2.148   6.159  0.00  0.00    -0.314 N 
ATOM      7  C   UNL     1      -0.281   1.516   4.835  0.00  0.00    +0.160 C 
ATOM      8  C   UNL     1       0.001  -2.147   6.000  0.00  0.00    +0.061 C 
ATOM      9  H   UNL     1      -0.249  -0.484   7.989  0.00  0.00    +0.154 HD
ATOM     10  H   UNL     1      -0.503   3.110   6.243  0.00  0.00    +0.149 HD
ENDROOT
BRANCH   7  11
ATOM     11  C   UNL     1       0.923   2.106   4.147  0.00  0.00    +0.097 A 
ATOM     12  C   UNL     1       0.818   2.974   3.109  0.00  0.00    +0.094 A 
ATOM     13  S   UNL     1       2.429   3.290   2.754  0.00  0.00    +0.028 S 
ATOM     14  N   UNL     1       3.135   2.360   3.873  0.00  0.00    -0.110 NA
ATOM     15  N   UNL     1       2.155   1.821   4.513  0.00  0.00    -0.144 NA
ENDBRANCH   7  11
BRANCH   1  17
ATOM     16  N   UNL     1      -0.170  -0.037   2.411  0.00  0.00    -0.281 N 
ATOM     17  C   UNL     1      -0.021  -0.692   3.579  0.00  0.00    +0.248 C 
ATOM     18  O   UNL     1       0.220  -1.886   3.581  0.00  0.00    -0.270 OA
ATOM     19  H   UNL     1      -0.334   0.919   2.409  0.00  0.00    +0.155 HD
BRANCH  16  26
ATOM     20  C   UNL     1      -1.782   0.846   0.239  0.00  0.00    +0.045 C 
ATOM     21  C   UNL     1      -0.858  -0.339   0.116  0.00  0.00    -0.029 A 
ATOM     22  C   UNL     1      -0.772  -1.027  -1.078  0.00  0.00    +0.005 A 
ATOM     23  C   UNL     1       0.076  -2.114  -1.192  0.00  0.00    +0.000 A 
ATOM     24  C   UNL     1       0.840  -2.514  -0.110  0.00  0.00    +0.002 A 
ATOM     25  C   UNL     1       0.758  -1.831   1.086  0.00  0.00    +0.023 A 
ATOM     26  C   UNL     1      -0.089  -0.735   1.202  0.00  0.00    +0.037 A 
ENDBRANCH  16  26
ENDBRANCH   1  17
TORSDOF 3
