REMARK  Name = ZINC03370089
REMARK  4 active torsions:
REMARK  status: ('A' for Active; 'I' for Inactive)
REMARK    1  A    between atoms: C_1  and  C_2
REMARK    2  A    between atoms: C_2  and  C_17
REMARK    3  A    between atoms: N_5  and  C_9
REMARK    4  A    between atoms: C_9  and  C_10
REMARK                            x       y       z     vdW  Elec       q    Type
REMARK                         _______ _______ _______ _____ _____    ______ ____
ROOT
ATOM      1  C   UNL     1      -3.888   2.753   4.148  0.00  0.00    +0.047 C 
ATOM      2  C   UNL     1      -4.317   1.632   3.200  0.00  0.00    +0.136 C 
ATOM      3  C   UNL     1      -3.970   1.982   1.767  0.00  0.00    +0.251 C 
ATOM      4  O   UNL     1      -4.381   2.924   1.123  0.00  0.00    -0.272 OA
ATOM      5  N   UNL     1      -3.110   1.030   1.357  0.00  0.00    -0.219 N 
ATOM      6  C   UNL     1      -2.871   0.132   2.320  0.00  0.00    +0.310 C 
ATOM      7  O   UNL     1      -2.132  -0.823   2.186  0.00  0.00    -0.252 OA
ATOM      8  N   UNL     1      -3.539   0.407   3.455  0.00  0.00    -0.281 N 
ATOM      9  H   UNL     1      -3.516  -0.104   4.280  0.00  0.00    +0.152 HD
ENDROOT
BRANCH   2  10
ATOM     10  C   UNL     1      -5.793   1.360   3.337  0.00  0.00    +0.003 A 
ATOM     11  C   UNL     1      -6.231   0.124   3.773  0.00  0.00    +0.007 A 
ATOM     12  C   UNL     1      -7.585  -0.124   3.903  0.00  0.00    +0.000 A 
ATOM     13  C   UNL     1      -8.502   0.861   3.587  0.00  0.00    +0.001 A 
ATOM     14  C   UNL     1      -8.066   2.096   3.146  0.00  0.00    +0.020 A 
ATOM     15  C   UNL     1      -6.710   2.346   3.021  0.00  0.00    +0.047 A 
ATOM     16 CL   UNL     1      -6.161   3.897   2.467  0.00  0.00    -0.083 Cl
ENDBRANCH   2  10
BRANCH   5  17
ATOM     17  C   UNL     1      -2.514   0.979   0.020  0.00  0.00    +0.156 C 
BRANCH  17  18
ATOM     18  C   UNL     1      -1.219   1.750   0.017  0.00  0.00    +0.006 A 
ATOM     19  C   UNL     1      -0.013   1.076   0.008  0.00  0.00    +0.008 A 
ATOM     20  C   UNL     1       1.175   1.783   0.000  0.00  0.00    +0.000 A 
ATOM     21  C   UNL     1       1.158   3.165   0.007  0.00  0.00    +0.003 A 
ATOM     22  C   UNL     1      -0.047   3.842   0.022  0.00  0.00    +0.038 A 
ATOM     23  C   UNL     1      -1.237   3.135   0.030  0.00  0.00    +0.128 A 
ATOM     24  F   UNL     1      -2.416   3.795   0.044  0.00  0.00    -0.205 F 
ENDBRANCH  17  18
ENDBRANCH   5  17
TORSDOF 3
