REMARK  Name = ZINC20915891
REMARK  8 active torsions:
REMARK  status: ('A' for Active; 'I' for Inactive)
REMARK    1  A    between atoms: C_3  and  C_8
REMARK    2  A    between atoms: C_5  and  O_7
REMARK    3  A    between atoms: N_9  and  N_10
REMARK    4  A    between atoms: C_14  and  S_17
REMARK    5  A    between atoms: N_15  and  N_16
REMARK    6  A    between atoms: S_17  and  C_18
REMARK    7  A    between atoms: C_18  and  C_19
REMARK    8  A    between atoms: C_22  and  C_24
REMARK                            x       y       z     vdW  Elec       q    Type
REMARK                         _______ _______ _______ _____ _____    ______ ____
ROOT
ATOM      1  N   UNL     1      -1.234   7.354   0.050  0.00  0.00    -0.204 N 
ATOM      2  C   UNL     1      -2.447   8.028   0.065  0.00  0.00    +0.254 A 
ATOM      3  N   UNL     1      -3.636   7.475   0.074  0.00  0.00    -0.109 NA
ATOM      4  N   UNL     1      -4.590   8.501   0.089  0.00  0.00    -0.119 NA
ATOM      5  C   UNL     1      -3.953   9.647   0.088  0.00  0.00    +0.210 A 
ATOM      6  N   UNL     1      -2.612   9.385   0.078  0.00  0.00    -0.211 N 
ATOM      7  H   UNL     1      -0.291   7.920   0.044  0.00  0.00    +0.177 HD
ENDROOT
BRANCH   6   8
ATOM      8  N   UNL     1      -1.612  10.316   0.080  0.00  0.00    -0.294 N 
ATOM      9  H   UNL     1      -1.859  11.388   0.091  0.00  0.00    +0.163 HD
ATOM     10  H   UNL     1      -0.561   9.993   0.069  0.00  0.00    +0.163 HD
ENDBRANCH   6   8
BRANCH   1  12
ATOM     11  C   UNL     1      -0.076   5.323   0.029  0.00  0.00    +0.138 C 
ATOM     12  N   UNL     1      -1.211   5.953   0.043  0.00  0.00    -0.188 NA
BRANCH  11  15
ATOM     13  C   UNL     1      -1.221   1.748   0.017  0.00  0.00    +0.004 A 
ATOM     14  C   UNL     1      -1.248   3.127   0.030  0.00  0.00    +0.010 A 
ATOM     15  C   UNL     1      -0.051   3.849   0.022  0.00  0.00    -0.002 A 
ATOM     16  C   UNL     1       1.168   3.168   0.007  0.00  0.00    +0.054 A 
ATOM     17  C   UNL     1       1.182   1.784   0.000  0.00  0.00    +0.117 A 
ATOM     18  C   UNL     1      -0.013   1.076   0.008  0.00  0.00    +0.045 A 
BRANCH  17  19
ATOM     19  O   UNL     1       2.366   1.117  -0.015  0.00  0.00    -0.507 OA
ATOM     20  H   UNL     1       2.378   0.017  -0.020  0.00  0.00    +0.292 HD
ENDBRANCH  17  19
ENDBRANCH  11  15
ENDBRANCH   1  12
BRANCH   5  21
ATOM     21  S   UNL     1      -4.696  11.245   0.104  0.00  0.00    -0.075 S 
BRANCH  21  22
ATOM     22  C   UNL     1      -6.477  10.900   0.120  0.00  0.00    +0.175 C 
BRANCH  22  23
ATOM     23  C   UNL     1      -7.239  12.200   0.135  0.00  0.00    +0.228 A 
ATOM     24  N   UNL     1      -7.640  12.869  -0.909  0.00  0.00    -0.111 NA
ATOM     25  N   UNL     1      -8.260  13.930  -0.529  0.00  0.00    -0.107 NA
ATOM     26  C   UNL     1      -8.276  13.975   0.783  0.00  0.00    +0.248 A 
ATOM     27  O   UNL     1      -7.635  12.876   1.228  0.00  0.00    -0.419 OA
BRANCH  26  28
ATOM     28  C   UNL     1      -8.889  15.030   1.617  0.00  0.00    +0.039 A 
ATOM     29  C   UNL     1      -8.834  14.943   3.009  0.00  0.00    +0.014 A 
ATOM     30  C   UNL     1      -9.404  15.934   3.782  0.00  0.00    +0.021 A 
ATOM     31  C   UNL     1     -10.040  17.006   3.180  0.00  0.00    +0.041 A 
ATOM     32  C   UNL     1     -10.102  17.095   1.799  0.00  0.00    +0.021 A 
ATOM     33  C   UNL     1      -9.531  16.114   1.016  0.00  0.00    +0.014 A 
ATOM     34 CL   UNL     1     -10.761  18.245   4.159  0.00  0.00    -0.084 Cl
ENDBRANCH  26  28
ENDBRANCH  22  23
ENDBRANCH  21  22
ENDBRANCH   5  21
TORSDOF 8
