REMARK  Name = ZINC12780742
REMARK  9 active torsions:
REMARK  status: ('A' for Active; 'I' for Inactive)
REMARK    1  A    between atoms: C_1  and  C_2
REMARK    2  A    between atoms: C_2  and  C_4
REMARK    3  A    between atoms: C_2  and  S_16
REMARK    4  A    between atoms: N_6  and  C_7
REMARK    5  A    between atoms: N_10  and  C_13
REMARK    6  A    between atoms: C_13  and  C_14
REMARK    7  A    between atoms: C_13  and  C_15
REMARK    8  A    between atoms: S_16  and  C_17
REMARK    9  A    between atoms: C_17  and  C_18
REMARK                            x       y       z     vdW  Elec       q    Type
REMARK                         _______ _______ _______ _____ _____    ______ ____
ROOT
ATOM      1  S   UNL     1      -1.700  -0.632   0.015  0.00  0.00    -0.141 S 
ENDROOT
BRANCH   1   3
ATOM      2  C   UNL     1      -0.019   1.526   0.010  0.00  0.00    +0.029 C 
ATOM      3  C   UNL     1       0.002  -0.004   0.002  0.00  0.00    +0.129 C 
BRANCH   3   4
ATOM      4  C   UNL     1       0.731  -0.503   1.223  0.00  0.00    +0.226 C 
ATOM      5  O   UNL     1       0.105  -0.891   2.187  0.00  0.00    -0.275 OA
ATOM      6  N   UNL     1       2.079  -0.519   1.244  0.00  0.00    -0.312 N 
ATOM      7  H   UNL     1       2.579  -0.208   0.473  0.00  0.00    +0.149 HD
BRANCH   6   8
ATOM      8  C   UNL     1       2.787  -1.004   2.431  0.00  0.00    +0.069 C 
ATOM      9  C   UNL     1       2.940   0.139   3.439  0.00  0.00    +0.003 C 
ATOM     10  C   UNL     1       3.750  -0.353   4.640  0.00  0.00    -0.077 C 
ATOM     11  N   UNL     1       5.076  -0.795   4.194  0.00  0.00    +0.381 N 
ATOM     12  C   UNL     1       4.940  -1.937   3.282  0.00  0.00    -0.077 C 
ATOM     13  C   UNL     1       4.177  -1.506   2.028  0.00  0.00    +0.003 C 
ATOM     14  H   UNL     1       5.538  -0.036   3.714  0.00  0.00    -0.081 HD
BRANCH  11  15
ATOM     15  C   UNL     1       5.877  -1.193   5.359  0.00  0.00    -0.075 C 
ATOM     16  C   UNL     1       7.260  -1.653   4.895  0.00  0.00    -0.014 C 
ATOM     17  C   UNL     1       6.027  -0.000   6.306  0.00  0.00    -0.014 C 
ENDBRANCH  11  15
ENDBRANCH   6   8
ENDBRANCH   3   4
ENDBRANCH   1   3
BRANCH   1  18
ATOM     18  C   UNL     1      -2.384  -0.077  -1.571  0.00  0.00    +0.144 C 
BRANCH  18  19
ATOM     19  C   UNL     1      -3.814  -0.539  -1.690  0.00  0.00    +0.121 A 
ATOM     20  N   UNL     1      -4.521  -0.236  -2.809  0.00  0.00    -0.310 N 
ATOM     21  H   UNL     1      -4.096   0.273  -3.516  0.00  0.00    +0.170 HD
ATOM     22  C   UNL     1      -5.800  -0.629  -2.956  0.00  0.00    +0.260 A 
ATOM     23  O   UNL     1      -6.421  -0.350  -3.967  0.00  0.00    -0.267 OA
ATOM     24  C   UNL     1      -6.419  -1.382  -1.905  0.00  0.00    +0.075 A 
ATOM     25  C   UNL     1      -7.782  -1.907  -1.845  0.00  0.00    -0.023 A 
ATOM     26  C   UNL     1      -8.127  -2.591  -0.733  0.00  0.00    -0.004 A 
ATOM     27  S   UNL     1      -6.676  -2.573   0.284  0.00  0.00    -0.073 S 
ATOM     28  C   UNL     1      -5.609  -1.646  -0.789  0.00  0.00    +0.116 A 
ATOM     29  N   UNL     1      -4.349  -1.228  -0.717  0.00  0.00    -0.226 NA
ATOM     30  C   UNL     1      -9.451  -3.223  -0.430  0.00  0.00    +0.043 C 
ATOM     31  C   UNL     1     -10.490  -2.665  -1.413  0.00  0.00    +0.005 C 
ATOM     32  C   UNL     1      -9.911  -2.729  -2.829  0.00  0.00    +0.005 C 
ATOM     33  C   UNL     1      -8.786  -1.704  -2.977  0.00  0.00    +0.037 C 
ENDBRANCH  18  19
ENDBRANCH   1  18
TORSDOF 6
