REMARK  Name = ZINC12437871
REMARK  3 active torsions:
REMARK  status: ('A' for Active; 'I' for Inactive)
REMARK    1  A    between atoms: C_4  and  C_7
REMARK    2  A    between atoms: N_9  and  N_10
REMARK    3  A    between atoms: C_12  and  C_25
REMARK                            x       y       z     vdW  Elec       q    Type
REMARK                         _______ _______ _______ _____ _____    ______ ____
ROOT
ATOM      1  N   UNL     1      -1.137  -2.095   0.002  0.00  0.00    -0.141 NA
ATOM      2  C   UNL     1      -2.259  -2.763   0.009  0.00  0.00    +0.248 A 
ATOM      3  C   UNL     1      -2.272  -4.243  -0.005  0.00  0.00    +0.100 A 
ATOM      4  C   UNL     1      -3.385  -4.868   0.545  0.00  0.00    +0.030 A 
ATOM      5  C   UNL     1      -4.434  -4.056   1.035  0.00  0.00    +0.026 A 
ATOM      6  C   UNL     1      -5.521  -4.635   1.825  0.00  0.00    -0.007 A 
ATOM      7  C   UNL     1      -5.578  -6.005   2.099  0.00  0.00    +0.009 A 
ATOM      8  C   UNL     1      -6.609  -6.502   2.842  0.00  0.00    +0.001 A 
ATOM      9  C   UNL     1      -7.606  -5.662   3.331  0.00  0.00    +0.001 A 
ATOM     10  C   UNL     1      -7.579  -4.323   3.083  0.00  0.00    +0.008 A 
ATOM     11  C   UNL     1      -6.533  -3.778   2.321  0.00  0.00    -0.017 A 
ATOM     12  C   UNL     1      -6.473  -2.400   2.041  0.00  0.00    +0.012 A 
ATOM     13  C   UNL     1      -5.465  -1.879   1.295  0.00  0.00    +0.047 A 
ATOM     14  C   UNL     1      -4.445  -2.680   0.778  0.00  0.00    +0.138 A 
ATOM     15  O   UNL     1      -3.462  -2.124   0.024  0.00  0.00    -0.436 OA
ENDROOT
BRANCH   3  16
ATOM     16  C   UNL     1      -1.155  -5.015  -0.571  0.00  0.00    +0.247 C 
ATOM     17  O   UNL     1      -1.193  -6.231  -0.569  0.00  0.00    -0.270 OA
ATOM     18  N   UNL     1      -0.089  -4.375  -1.092  0.00  0.00    -0.325 N 
ATOM     19  H   UNL     1      -0.059  -3.406  -1.094  0.00  0.00    +0.145 HD
ATOM     20  H   UNL     1       0.648  -4.885  -1.465  0.00  0.00    +0.145 HD
ENDBRANCH   3  16
BRANCH   1  23
ATOM     21  C   UNL     1       0.002  -0.004   0.002  0.00  0.00    +0.263 C 
ATOM     22  O   UNL     1       1.064  -0.598  -0.011  0.00  0.00    -0.268 OA
ATOM     23  N   UNL     1      -1.156  -0.694   0.009  0.00  0.00    -0.200 N 
ATOM     24  H   UNL     1      -2.002  -0.220   0.020  0.00  0.00    +0.178 HD
BRANCH  21  28
ATOM     25  C   UNL     1      -0.056   4.243   0.025  0.00  0.00    +0.000 A 
ATOM     26  C   UNL     1       1.154   3.571   0.010  0.00  0.00    +0.001 A 
ATOM     27  C   UNL     1       1.179   2.191   0.003  0.00  0.00    +0.013 A 
ATOM     28  C   UNL     1      -0.018   1.474   0.010  0.00  0.00    +0.038 A 
ATOM     29  C   UNL     1      -1.234   2.158   0.020  0.00  0.00    +0.013 A 
ATOM     30  C   UNL     1      -1.246   3.538   0.034  0.00  0.00    +0.001 A 
ENDBRANCH  21  28
ENDBRANCH   1  23
TORSDOF 3
