REMARK  Name = ZINC67544901
REMARK  5 active torsions:
REMARK  status: ('A' for Active; 'I' for Inactive)
REMARK    1  A    between atoms: C_1  and  C_2
REMARK    2  A    between atoms: C_3  and  C_8
REMARK    3  A    between atoms: C_4  and  C_7
REMARK    4  A    between atoms: C_8  and  N_9
REMARK    5  A    between atoms: N_12  and  C_13
REMARK                            x       y       z     vdW  Elec       q    Type
REMARK                         _______ _______ _______ _____ _____    ______ ____
ROOT
ATOM      1  N   UNL     1       1.361  -0.016  -3.003  0.00  0.00    -0.295 N 
ATOM      2  C   UNL     1       1.611   0.411  -4.257  0.00  0.00    +0.304 C 
ATOM      3  O   UNL     1       0.698   0.799  -4.960  0.00  0.00    -0.252 OA
ATOM      4  N   UNL     1       2.872   0.407  -4.731  0.00  0.00    -0.269 N 
ATOM      5  H   UNL     1       2.089  -0.326  -2.442  0.00  0.00    +0.151 HD
ATOM      6  H   UNL     1       3.610   0.171  -4.147  0.00  0.00    +0.156 HD
ENDROOT
BRANCH   4   7
ATOM      7  C   UNL     1       3.119   0.744  -6.069  0.00  0.00    +0.037 A 
ATOM      8  C   UNL     1       4.295   1.397  -6.415  0.00  0.00    +0.027 A 
ATOM      9  C   UNL     1       4.543   1.730  -7.733  0.00  0.00    +0.049 A 
ATOM     10  C   UNL     1       3.618   1.414  -8.712  0.00  0.00    +0.142 A 
ATOM     11  C   UNL     1       2.436   0.759  -8.368  0.00  0.00    +0.077 A 
ATOM     12  C   UNL     1       2.190   0.420  -7.049  0.00  0.00    +0.050 A 
ATOM     13  N   UNL     1       1.508   0.447  -9.372  0.00  0.00    -0.280 N 
ATOM     14  C   UNL     1       1.900   0.493 -10.664  0.00  0.00    +0.255 C 
ATOM     15  O   UNL     1       1.107   0.255 -11.550  0.00  0.00    -0.272 OA
ATOM     16  C   UNL     1       3.328   0.840 -11.000  0.00  0.00    +0.325 C 
ATOM     17  O   UNL     1       3.849   1.735 -10.014  0.00  0.00    -0.481 OA
ATOM     18  H   UNL     1       0.598   0.201  -9.142  0.00  0.00    +0.155 HD
ENDBRANCH   4   7
BRANCH   1  19
ATOM     19  C   UNL     1      -0.010  -0.012  -2.487  0.00  0.00    +0.146 C 
BRANCH  19  22
ATOM     20  C   UNL     1       0.321   1.736   0.143  0.00  0.00    +0.069 C 
ATOM     21  C   UNL     1       0.130   0.242   0.092  0.00  0.00    +0.085 A 
ATOM     22  C   UNL     1      -0.017  -0.532  -1.073  0.00  0.00    +0.034 A 
ATOM     23  C   UNL     1      -0.164  -1.819  -0.705  0.00  0.00    +0.139 A 
ATOM     24  O   UNL     1      -0.115  -1.875   0.635  0.00  0.00    -0.359 OA
ATOM     25  N   UNL     1       0.077  -0.558   1.119  0.00  0.00    -0.083 NA
ATOM     26  C   UNL     1      -0.351  -2.990  -1.634  0.00  0.00    +0.089 C 
ENDBRANCH  19  22
ENDBRANCH   1  19
TORSDOF 3
