REMARK  Name = ZINC49587547
REMARK  8 active torsions:
REMARK  status: ('A' for Active; 'I' for Inactive)
REMARK    1  A    between atoms: C_1  and  C_2
REMARK    2  A    between atoms: C_2  and  C_4
REMARK    3  A    between atoms: C_2  and  N_14
REMARK    4  A    between atoms: C_7  and  C_10
REMARK    5  A    between atoms: C_11  and  C_12
REMARK    6  A    between atoms: C_12  and  N_13
REMARK    7  A    between atoms: N_14  and  S_15
REMARK    8  A    between atoms: S_15  and  N_18
REMARK                            x       y       z     vdW  Elec       q    Type
REMARK                         _______ _______ _______ _____ _____    ______ ____
ROOT
ATOM      1  C   UNL     1       0.707  -0.490  -1.238  0.00  0.00    -0.029 A 
ATOM      2  C   UNL     1       2.090  -0.510  -1.281  0.00  0.00    +0.006 A 
ATOM      3  C   UNL     1       2.742  -0.954  -2.413  0.00  0.00    +0.017 A 
ATOM      4  C   UNL     1       2.004  -1.384  -3.516  0.00  0.00    +0.025 A 
ATOM      5  C   UNL     1       0.609  -1.362  -3.466  0.00  0.00    +0.017 A 
ATOM      6  C   UNL     1      -0.030  -0.920  -2.326  0.00  0.00    +0.006 A 
ENDROOT
BRANCH   1   8
ATOM      7  C   UNL     1      -0.019   1.526   0.010  0.00  0.00    +0.031 C 
ATOM      8  C   UNL     1       0.002  -0.004   0.002  0.00  0.00    +0.104 C 
BRANCH   8   9
ATOM      9  N   UNL     1       0.711  -0.489   1.189  0.00  0.00    -0.173 NA
ATOM     10  H   UNL     1       1.677  -0.569   1.178  0.00  0.00    +0.150 HD
BRANCH   9  11
ATOM     11  S   UNL     1      -0.139  -0.902   2.549  0.00  0.00    +0.098 S 
ATOM     12  O   UNL     1       0.814  -1.354   3.502  0.00  0.00    -0.141 OA
ATOM     13  O   UNL     1      -1.030   0.173   2.814  0.00  0.00    -0.141 OA
BRANCH  11  14
ATOM     14  N   UNL     1      -1.077  -2.211   2.162  0.00  0.00    -0.167 NA
ATOM     15  C   UNL     1      -2.445  -2.155   1.626  0.00  0.00    +0.110 C 
ATOM     16  C   UNL     1      -2.926  -3.611   1.445  0.00  0.00    +0.018 C 
ATOM     17  C   UNL     1      -2.014  -4.401   2.420  0.00  0.00    +0.018 C 
ATOM     18  C   UNL     1      -0.677  -3.623   2.292  0.00  0.00    +0.110 C 
ENDBRANCH  11  14
ENDBRANCH   9  11
ENDBRANCH   8   9
ENDBRANCH   1   8
BRANCH   4  19
ATOM     19  C   UNL     1       2.674  -1.846  -4.694  0.00  0.00    -0.068 C 
ATOM     20  C   UNL     1       3.223  -2.224  -5.660  0.00  0.00    -0.117 C 
BRANCH  20  21
ATOM     21  C   UNL     1       3.912  -2.699  -6.871  0.00  0.00    +0.005 C 
BRANCH  21  22
ATOM     22  N   UNL     1       2.918  -3.091  -7.878  0.00  0.00    +0.385 N 
ATOM     23  H   UNL     1       2.339  -3.831  -7.509  0.00  0.00    -0.089 HD
ATOM     24  H   UNL     1       2.341  -2.296  -8.109  0.00  0.00    -0.089 HD
ATOM     25  H   UNL     1       3.390  -3.417  -8.708  0.00  0.00    -0.089 HD
ENDBRANCH  21  22
ENDBRANCH  20  21
ENDBRANCH   4  19
TORSDOF 7
