REMARK  Name = ZINC40824923
REMARK  6 active torsions:
REMARK  status: ('A' for Active; 'I' for Inactive)
REMARK    1  A    between atoms: C_1  and  C_2
REMARK    2  A    between atoms: C_6  and  C_7
REMARK    3  A    between atoms: N_9  and  N_10
REMARK    4  A    between atoms: C_11  and  C_13
REMARK    5  A    between atoms: C_17  and  C_18
REMARK    6  A    between atoms: N_23  and  N_24
REMARK                            x       y       z     vdW  Elec       q    Type
REMARK                         _______ _______ _______ _____ _____    ______ ____
ROOT
ATOM      1  C   UNL     1      -0.018   1.503   0.010  0.00  0.00    +0.048 C 
ATOM      2  C   UNL     1       0.002  -0.004   0.002  0.00  0.00    +0.009 A 
ATOM      3  C   UNL     1       0.008  -0.838  -1.123  0.00  0.00    +0.042 A 
ATOM      4  C   UNL     1       0.026  -2.137  -0.673  0.00  0.00    +0.115 A 
ATOM      5  O   UNL     1       0.034  -2.112   0.658  0.00  0.00    -0.454 OA
ATOM      6  C   UNL     1       0.024  -0.830   1.091  0.00  0.00    +0.194 A 
ATOM      7  C   UNL     1       0.032  -3.326  -1.600  0.00  0.00    +0.075 C 
ATOM      8  C   UNL     1      -0.492  -2.902  -2.974  0.00  0.00    +0.014 C 
ATOM      9  C   UNL     1       0.279  -1.685  -3.495  0.00  0.00    +0.058 C 
ATOM     10  C   UNL     1       0.001  -0.512  -2.566  0.00  0.00    +0.072 C 
ATOM     11  N   UNL     1      -0.226   0.686  -3.008  0.00  0.00    -0.175 NA
ENDROOT
BRANCH  11  12
ATOM     12  N   UNL     1      -0.221   0.938  -4.386  0.00  0.00    -0.248 N 
ATOM     13  C   UNL     1      -0.461   2.203  -4.852  0.00  0.00    +0.187 C 
ATOM     14  N   UNL     1      -0.456   2.442  -6.163  0.00  0.00    -0.370 N 
ATOM     15  N   UNL     1      -0.700   3.195  -3.994  0.00  0.00    -0.370 N 
ATOM     16  H   UNL     1      -0.048   0.216  -5.010  0.00  0.00    +0.192 HD
ATOM     17  H   UNL     1      -0.626   3.338  -6.493  0.00  0.00    +0.159 HD
ATOM     18  H   UNL     1      -0.704   3.020  -3.040  0.00  0.00    +0.159 HD
ATOM     19  H   UNL     1      -0.870   4.091  -4.324  0.00  0.00    +0.159 HD
ATOM     20  H   UNL     1      -0.283   1.720  -6.787  0.00  0.00    +0.159 HD
ENDBRANCH  11  12
BRANCH   6  21
ATOM     21  C   UNL     1       0.032  -0.400   2.494  0.00  0.00    +0.296 C 
ATOM     22  O   UNL     1       0.018   0.786   2.766  0.00  0.00    -0.265 OA
ATOM     23  N   UNL     1       0.054  -1.317   3.480  0.00  0.00    -0.228 N 
ATOM     24  H   UNL     1       0.065  -2.263   3.263  0.00  0.00    +0.173 HD
BRANCH  23  25
ATOM     25  N   UNL     1       0.061  -0.906   4.819  0.00  0.00    -0.230 N 
ATOM     26  C   UNL     1       0.084  -1.824   5.806  0.00  0.00    +0.263 C 
ATOM     27  O   UNL     1       0.097  -3.009   5.534  0.00  0.00    -0.269 OA
ATOM     28  H   UNL     1       0.050   0.039   5.037  0.00  0.00    +0.173 HD
BRANCH  26  29
ATOM     29  C   UNL     1       0.091  -1.391   7.215  0.00  0.00    +0.079 A 
ATOM     30  C   UNL     1       0.070  -0.011   7.721  0.00  0.00    +0.054 A 
ATOM     31  C   UNL     1       0.087  -0.108   9.059  0.00  0.00    +0.196 A 
ATOM     32  O   UNL     1       0.116  -1.405   9.405  0.00  0.00    -0.467 OA
ATOM     33  C   UNL     1       0.113  -2.188   8.322  0.00  0.00    +0.114 A 
ATOM     34  C   UNL     1       0.133  -3.695   8.324  0.00  0.00    +0.087 C 
ENDBRANCH  26  29
ENDBRANCH  23  25
ENDBRANCH   6  21
TORSDOF 4
