REMARK  Name = ZINC33400099
REMARK  10 active torsions:
REMARK  status: ('A' for Active; 'I' for Inactive)
REMARK    1  A    between atoms: C_1  and  C_2
REMARK    2  A    between atoms: C_2  and  C_22
REMARK    3  A    between atoms: N_3  and  N_4
REMARK    4  A    between atoms: C_5  and  S_7
REMARK    5  A    between atoms: S_7  and  C_8
REMARK    6  A    between atoms: N_13  and  C_16
REMARK    7  A    between atoms: C_23  and  C_24
REMARK    8  A    between atoms: C_27  and  N_30
REMARK    9  A    between atoms: N_30  and  C_31
REMARK   10  A    between atoms: N_30  and  C_32
REMARK                            x       y       z     vdW  Elec       q    Type
REMARK                         _______ _______ _______ _____ _____    ______ ____
ROOT
ATOM      1  N   UNL     1      -0.686  -2.224   0.898  0.00  0.00    -0.217 N 
ATOM      2  C   UNL     1      -0.544  -2.863   2.109  0.00  0.00    +0.146 C 
ATOM      3  N   UNL     1      -0.440  -2.165   3.206  0.00  0.00    -0.380 N 
ATOM      4  H   UNL     1      -0.763  -2.743   0.082  0.00  0.00    +0.176 HD
ATOM      5  H   UNL     1      -0.340  -2.615   4.060  0.00  0.00    +0.158 HD
ATOM      6  H   UNL     1      -0.462  -1.196   3.169  0.00  0.00    +0.158 HD
ENDROOT
BRANCH   1   9
ATOM      7  C   UNL     1      -1.098   1.277  -0.327  0.00  0.00    +0.067 C 
ATOM      8  C   UNL     1      -0.950  -0.222  -0.288  0.00  0.00    +0.056 C 
ATOM      9  N   UNL     1      -0.717  -0.825   0.843  0.00  0.00    -0.186 NA
BRANCH   8  10
ATOM     10  C   UNL     1      -1.063  -0.977  -1.483  0.00  0.00    +0.025 C 
ATOM     11  C   UNL     1      -1.194  -0.347  -2.669  0.00  0.00    +0.010 C 
BRANCH  11  12
ATOM     12  C   UNL     1      -1.427  -1.126  -3.894  0.00  0.00    -0.025 A 
ATOM     13  C   UNL     1      -1.519  -2.521  -3.832  0.00  0.00    +0.010 A 
ATOM     14  C   UNL     1      -1.738  -3.247  -4.981  0.00  0.00    +0.023 A 
ATOM     15  C   UNL     1      -1.867  -2.596  -6.203  0.00  0.00    +0.029 A 
ATOM     16  C   UNL     1      -1.777  -1.209  -6.270  0.00  0.00    +0.023 A 
ATOM     17  C   UNL     1      -1.563  -0.475  -5.125  0.00  0.00    +0.010 A 
BRANCH  15  18
ATOM     18  N   UNL     1      -2.088  -3.335  -7.365  0.00  0.00    -0.336 N 
ATOM     19  C   UNL     1      -2.307  -4.781  -7.283  0.00  0.00    +0.129 C 
ATOM     20  C   UNL     1      -2.102  -2.665  -8.668  0.00  0.00    +0.129 C 
ENDBRANCH  15  18
ENDBRANCH  11  12
ENDBRANCH   8  10
ENDBRANCH   1   9
BRANCH   2  21
ATOM     21  S   UNL     1      -0.505  -4.623   2.178  0.00  0.00    -0.078 S 
BRANCH  21  22
ATOM     22  C   UNL     1      -0.309  -4.989   3.944  0.00  0.00    +0.149 C 
ATOM     23  C   UNL     1      -0.328  -6.512   4.188  0.00  0.00    +0.120 C 
ATOM     24  C   UNL     1       1.036  -6.792   4.782  0.00  0.00    +0.228 C 
ATOM     25  O   UNL     1       1.442  -7.882   5.125  0.00  0.00    -0.275 OA
ATOM     26  N   UNL     1       1.722  -5.646   4.869  0.00  0.00    -0.209 N 
ATOM     27  C   UNL     1       1.061  -4.565   4.427  0.00  0.00    +0.240 C 
ATOM     28  O   UNL     1       1.490  -3.432   4.414  0.00  0.00    -0.274 OA
BRANCH  26  29
ATOM     29  C   UNL     1       3.025  -5.580   5.382  0.00  0.00    +0.044 A 
ATOM     30  C   UNL     1       3.311  -4.738   6.448  0.00  0.00    +0.024 A 
ATOM     31  C   UNL     1       4.595  -4.674   6.952  0.00  0.00    +0.002 A 
ATOM     32  C   UNL     1       5.597  -5.448   6.395  0.00  0.00    +0.000 A 
ATOM     33  C   UNL     1       5.315  -6.288   5.333  0.00  0.00    +0.002 A 
ATOM     34  C   UNL     1       4.031  -6.360   4.829  0.00  0.00    +0.024 A 
ENDBRANCH  26  29
ENDBRANCH  21  22
ENDBRANCH   2  21
TORSDOF 7
