REMARK  Name = ZINC40116929
REMARK  6 active torsions:
REMARK  status: ('A' for Active; 'I' for Inactive)
REMARK    1  A    between atoms: C_1  and  C_2
REMARK    2  A    between atoms: C_3  and  C_11
REMARK    3  A    between atoms: C_7  and  N_8
REMARK    4  A    between atoms: C_11  and  N_12
REMARK    5  A    between atoms: C_15  and  C_19
REMARK    6  A    between atoms: C_15  and  C_25
REMARK                            x       y       z     vdW  Elec       q    Type
REMARK                         _______ _______ _______ _____ _____    ______ ____
ROOT
ATOM      1  N   UNL     1      -0.008   0.447  -2.925  0.00  0.00    -0.219 N 
ATOM      2  C   UNL     1       0.450   1.708  -2.802  0.00  0.00    +0.256 C 
ATOM      3  O   UNL     1      -0.066   2.618  -2.190  0.00  0.00    -0.272 OA
ATOM      4  C   UNL     1       1.745   1.753  -3.589  0.00  0.00    +0.164 C 
ATOM      5  N   UNL     1       1.879   0.382  -4.112  0.00  0.00    -0.278 N 
ATOM      6  C   UNL     1       0.812  -0.306  -3.667  0.00  0.00    +0.310 C 
ATOM      7  O   UNL     1       0.614  -1.479  -3.915  0.00  0.00    -0.252 OA
ATOM      8  H   UNL     1       2.598   0.042  -4.667  0.00  0.00    +0.152 HD
ENDROOT
BRANCH   4   9
ATOM      9  C   UNL     1       2.903   2.091  -2.685  0.00  0.00    -0.011 A 
ATOM     10  C   UNL     1       4.047   1.316  -2.709  0.00  0.00    +0.006 A 
ATOM     11  C   UNL     1       5.109   1.626  -1.880  0.00  0.00    +0.000 A 
ATOM     12  C   UNL     1       5.027   2.712  -1.028  0.00  0.00    +0.000 A 
ATOM     13  C   UNL     1       3.883   3.487  -1.005  0.00  0.00    +0.000 A 
ATOM     14  C   UNL     1       2.822   3.180  -1.837  0.00  0.00    +0.006 A 
ENDBRANCH   4   9
BRANCH   4  15
ATOM     15  C   UNL     1       1.645   2.744  -4.719  0.00  0.00    -0.011 A 
ATOM     16  C   UNL     1       2.002   2.370  -6.001  0.00  0.00    +0.006 A 
ATOM     17  C   UNL     1       1.910   3.280  -7.038  0.00  0.00    +0.000 A 
ATOM     18  C   UNL     1       1.462   4.564  -6.793  0.00  0.00    +0.000 A 
ATOM     19  C   UNL     1       1.104   4.938  -5.511  0.00  0.00    +0.000 A 
ATOM     20  C   UNL     1       1.191   4.027  -4.475  0.00  0.00    +0.006 A 
ENDBRANCH   4  15
BRANCH   1  21
ATOM     21  C   UNL     1      -1.247  -0.042  -2.315  0.00  0.00    +0.153 C 
BRANCH  21  24
ATOM     22  C   UNL     1      -0.953   1.776  -0.088  0.00  0.00    +0.046 C 
ATOM     23  C   UNL     1      -0.811   0.291   0.128  0.00  0.00    -0.016 A 
ATOM     24  C   UNL     1      -0.951  -0.579  -0.938  0.00  0.00    -0.024 A 
ATOM     25  C   UNL     1      -0.821  -1.940  -0.740  0.00  0.00    +0.005 A 
ATOM     26  C   UNL     1      -0.550  -2.432   0.524  0.00  0.00    +0.003 A 
ATOM     27  C   UNL     1      -0.408  -1.562   1.588  0.00  0.00    +0.033 A 
ATOM     28  C   UNL     1      -0.534  -0.200   1.389  0.00  0.00    +0.129 A 
BRANCH  28  29
ATOM     29  N   UNL     1      -0.378   0.732   2.529  0.00  0.00    +0.057 N 
ATOM     30  O   UNL     1       0.164   1.800   2.366  0.00  0.00    -0.126 OA
ATOM     31  O   UNL     1      -0.792   0.425   3.622  0.00  0.00    -0.126 OA
ENDBRANCH  28  29
ENDBRANCH  21  24
ENDBRANCH   1  21
TORSDOF 5
