REMARK  Name = ZINC00639279
REMARK  10 active torsions:
REMARK  status: ('A' for Active; 'I' for Inactive)
REMARK    1  A    between atoms: C_1  and  O_2
REMARK    2  A    between atoms: O_2  and  C_3
REMARK    3  A    between atoms: C_3  and  C_5
REMARK    4  A    between atoms: C_6  and  N_33
REMARK    5  A    between atoms: C_10  and  O_32
REMARK    6  A    between atoms: C_14  and  C_16
REMARK    7  A    between atoms: C_19  and  O_22
REMARK    8  A    between atoms: O_22  and  C_23
REMARK    9  A    between atoms: C_23  and  C_24
REMARK   10  A    between atoms: C_29  and  C_30
REMARK                            x       y       z     vdW  Elec       q    Type
REMARK                         _______ _______ _______ _____ _____    ______ ____
ROOT
ATOM      1  C   UNL     1       7.404   8.531  -1.304  0.00  0.00    +0.105 C 
ATOM      2  C   UNL     1       8.698   8.174  -1.100  0.00  0.00    +0.195 C 
ATOM      3  O   UNL     1       9.151   7.812   0.111  0.00  0.00    -0.441 OA
ATOM      4  C   UNL     1       8.460   8.161   1.224  0.00  0.00    +0.138 A 
ATOM      5  C   UNL     1       9.104   8.151   2.455  0.00  0.00    +0.092 A 
ATOM      6  C   UNL     1       8.412   8.504   3.602  0.00  0.00    +0.120 A 
ATOM      7  C   UNL     1       7.076   8.868   3.519  0.00  0.00    +0.046 A 
ATOM      8  C   UNL     1       6.437   8.877   2.295  0.00  0.00    +0.012 A 
ATOM      9  C   UNL     1       7.125   8.524   1.147  0.00  0.00    +0.007 A 
ATOM     10  C   UNL     1       6.410   8.540  -0.178  0.00  0.00    +0.094 C 
ENDROOT
BRANCH  10  11
ATOM     11  C   UNL     1       5.526   7.324  -0.283  0.00  0.00    -0.035 A 
ATOM     12  C   UNL     1       4.160   7.475  -0.431  0.00  0.00    +0.008 A 
ATOM     13  C   UNL     1       3.347   6.361  -0.527  0.00  0.00    +0.046 A 
ATOM     14  C   UNL     1       3.903   5.091  -0.475  0.00  0.00    +0.121 A 
ATOM     15  C   UNL     1       5.274   4.943  -0.320  0.00  0.00    +0.046 A 
ATOM     16  C   UNL     1       6.083   6.059  -0.231  0.00  0.00    +0.008 A 
BRANCH  14  17
ATOM     17  O   UNL     1       3.106   3.995  -0.569  0.00  0.00    -0.487 OA
BRANCH  17  18
ATOM     18  C   UNL     1       3.748   2.719  -0.508  0.00  0.00    +0.265 C 
BRANCH  18  19
ATOM     19  C   UNL     1       2.713   1.630  -0.628  0.00  0.00    +0.007 A 
ATOM     20  C   UNL     1       1.380   1.956  -0.771  0.00  0.00    +0.008 A 
ATOM     21  C   UNL     1       0.429   0.958  -0.882  0.00  0.00    +0.000 A 
ATOM     22  C   UNL     1       0.807  -0.373  -0.855  0.00  0.00    +0.001 A 
ATOM     23  C   UNL     1       2.136  -0.713  -0.707  0.00  0.00    +0.019 A 
ATOM     24  C   UNL     1       3.101   0.290  -0.595  0.00  0.00    +0.058 A 
BRANCH  24  25
ATOM     25  C   UNL     1       4.483  -0.056  -0.447  0.00  0.00    +0.100 C 
ATOM     26  N   UNL     1       5.579  -0.330  -0.329  0.00  0.00    -0.191 NA
ENDBRANCH  24  25
ENDBRANCH  18  19
ENDBRANCH  17  18
ENDBRANCH  14  17
ENDBRANCH  10  11
BRANCH   2  27
ATOM     27  N   UNL     1       9.565   8.181  -2.159  0.00  0.00    -0.329 N 
ATOM     28  H   UNL     1       9.534   8.903  -2.806  0.00  0.00    +0.145 HD
ATOM     29  H   UNL     1      10.211   7.465  -2.263  0.00  0.00    +0.145 HD
ENDBRANCH   2  27
BRANCH   1  30
ATOM     30  C   UNL     1       6.988   8.899  -2.592  0.00  0.00    +0.341 C 
ATOM     31  O   UNL     1       7.750   8.783  -3.535  0.00  0.00    -0.245 OA
BRANCH  30  33
ATOM     32  C   UNL     1       5.385   9.737  -4.124  0.00  0.00    +0.280 C 
ATOM     33  O   UNL     1       5.742   9.383  -2.787  0.00  0.00    -0.465 OA
ENDBRANCH  30  33
ENDBRANCH   1  30
BRANCH   6  34
ATOM     34  O   UNL     1       9.042   8.495   4.806  0.00  0.00    -0.507 OA
ATOM     35  H   UNL     1       9.461   9.336   5.037  0.00  0.00    +0.292 HD
ENDBRANCH   6  34
TORSDOF 9
