REMARK  Name = ZINC00940740
REMARK  4 active torsions:
REMARK  status: ('A' for Active; 'I' for Inactive)
REMARK    1  A    between atoms: C_1  and  C_2
REMARK    2  A    between atoms: C_3  and  C_25
REMARK    3  A    between atoms: C_4  and  C_18
REMARK    4  A    between atoms: C_10  and  C_12
REMARK                            x       y       z     vdW  Elec       q    Type
REMARK                         _______ _______ _______ _____ _____    ______ ____
ROOT
ATOM      1  C   UNL     1       0.456   1.363  -0.001  0.00  0.00    +0.064 C 
ATOM      2  C   UNL     1       0.265  -0.131   0.025  0.00  0.00    +0.026 C 
ATOM      3  C   UNL     1      -1.005  -0.637   0.005  0.00  0.00    +0.059 C 
ATOM      4  C   UNL     1      -1.150  -2.148   0.032  0.00  0.00    +0.164 C 
ATOM      5  N   UNL     1       0.100  -2.916   0.077  0.00  0.00    -0.209 N 
ATOM      6  C   UNL     1       1.297  -2.238   0.092  0.00  0.00    +0.215 C 
ATOM      7  N   UNL     1       1.332  -0.915   0.061  0.00  0.00    -0.330 N 
ATOM      8  N   UNL     1       2.276  -3.155   0.133  0.00  0.00    -0.198 NA
ATOM      9  C   UNL     1       1.767  -4.370   0.146  0.00  0.00    +0.147 C 
ATOM     10  N   UNL     1       0.401  -4.280   0.111  0.00  0.00    -0.244 N 
ATOM     11  H   UNL     1       2.203  -0.488   0.070  0.00  0.00    +0.168 HD
ATOM     12  H   UNL     1      -0.231  -5.015   0.111  0.00  0.00    +0.172 HD
ENDROOT
BRANCH   4  13
ATOM     13  C   UNL     1      -1.968  -2.520   1.241  0.00  0.00    -0.021 A 
ATOM     14  C   UNL     1      -1.435  -2.372   2.508  0.00  0.00    +0.007 A 
ATOM     15  C   UNL     1      -2.186  -2.713   3.618  0.00  0.00    +0.020 A 
ATOM     16  C   UNL     1      -3.470  -3.203   3.461  0.00  0.00    +0.041 A 
ATOM     17  C   UNL     1      -4.003  -3.350   2.192  0.00  0.00    +0.020 A 
ATOM     18  C   UNL     1      -3.254  -3.004   1.084  0.00  0.00    +0.007 A 
ATOM     19 CL   UNL     1      -4.413  -3.631   4.854  0.00  0.00    -0.084 Cl
ENDBRANCH   4  13
BRANCH   9  20
ATOM     20  C   UNL     1       2.543  -5.625   0.189  0.00  0.00    +0.034 A 
ATOM     21  C   UNL     1       3.943  -5.596   0.227  0.00  0.00    +0.014 A 
ATOM     22  C   UNL     1       4.623  -6.801   0.267  0.00  0.00    +0.020 A 
ATOM     23  C   UNL     1       3.905  -7.984   0.267  0.00  0.00    +0.111 A 
ATOM     24  N   UNL     1       2.586  -7.981   0.230  0.00  0.00    -0.263 NA
ATOM     25  C   UNL     1       1.893  -6.862   0.198  0.00  0.00    +0.122 A 
ENDBRANCH   9  20
BRANCH   3  26
ATOM     26  C   UNL     1      -2.130   0.207  -0.038  0.00  0.00    +0.241 C 
ATOM     27  O   UNL     1      -1.990   1.414   0.057  0.00  0.00    -0.271 OA
ATOM     28  N   UNL     1      -3.362  -0.319  -0.184  0.00  0.00    -0.325 N 
ATOM     29  H   UNL     1      -3.480  -1.282  -0.190  0.00  0.00    +0.145 HD
ATOM     30  H   UNL     1      -4.130   0.265  -0.284  0.00  0.00    +0.145 HD
ENDBRANCH   3  26
TORSDOF 3
