REMARK  Name = ZINC34779519
REMARK  10 active torsions:
REMARK  status: ('A' for Active; 'I' for Inactive)
REMARK    1  A    between atoms: C_1  and  C_2
REMARK    2  A    between atoms: C_2  and  C_3
REMARK    3  A    between atoms: C_3  and  N_4
REMARK    4  A    between atoms: C_8  and  C_23
REMARK    5  A    between atoms: C_9  and  C_19
REMARK    6  A    between atoms: N_12  and  C_15
REMARK    7  A    between atoms: C_15  and  C_16
REMARK    8  A    between atoms: C_16  and  C_17
REMARK    9  A    between atoms: C_16  and  C_18
REMARK   10  A    between atoms: N_21  and  N_22
REMARK                            x       y       z     vdW  Elec       q    Type
REMARK                         _______ _______ _______ _____ _____    ______ ____
ROOT
ATOM      1  N   UNL     1       0.762  -1.976   1.234  0.00  0.00    -0.260 N 
ATOM      2  C   UNL     1      -0.244  -2.647   1.822  0.00  0.00    +0.265 A 
ATOM      3  O   UNL     1      -1.158  -2.044   2.354  0.00  0.00    -0.267 OA
ATOM      4  C   UNL     1      -0.226  -4.130   1.815  0.00  0.00    +0.074 A 
ATOM      5  C   UNL     1      -1.160  -5.018   2.362  0.00  0.00    -0.017 A 
ATOM      6  C   UNL     1      -0.909  -6.352   2.217  0.00  0.00    +0.081 A 
ATOM      7  S   UNL     1       0.629  -6.367   1.319  0.00  0.00    -0.065 S 
ATOM      8  C   UNL     1       0.873  -4.720   1.174  0.00  0.00    +0.097 A 
ATOM      9  N   UNL     1       1.851  -3.955   0.602  0.00  0.00    -0.287 N 
ATOM     10  C   UNL     1       1.781  -2.612   0.634  0.00  0.00    +0.333 A 
ATOM     11  O   UNL     1       2.664  -1.959   0.112  0.00  0.00    -0.246 OA
ATOM     12  C   UNL     1      -2.389  -4.523   3.079  0.00  0.00    +0.046 C 
ENDROOT
BRANCH   6  13
ATOM     13  C   UNL     1      -1.706  -7.489   2.685  0.00  0.00    +0.264 C 
ATOM     14  O   UNL     1      -2.744  -7.296   3.291  0.00  0.00    -0.268 OA
ATOM     15  N   UNL     1      -1.290  -8.748   2.444  0.00  0.00    -0.249 N 
ATOM     16  H   UNL     1      -0.463  -8.902   1.961  0.00  0.00    +0.169 HD
BRANCH  15  17
ATOM     17  N   UNL     1      -2.033  -9.808   2.880  0.00  0.00    -0.254 NA
ATOM     18  H   UNL     1      -1.599 -10.683   2.628  0.00  0.00    +0.140 HD
ATOM     19  H   UNL     1      -2.189  -9.755   3.876  0.00  0.00    +0.140 HD
ENDBRANCH  15  17
ENDBRANCH   6  13
BRANCH   1  20
ATOM     20  C   UNL     1       0.742  -0.511   1.242  0.00  0.00    +0.130 C 
BRANCH  20  22
ATOM     21  C   UNL     1      -0.019   1.526   0.010  0.00  0.00    +0.005 C 
ATOM     22  C   UNL     1       0.002  -0.004   0.002  0.00  0.00    +0.018 C 
ENDBRANCH  20  22
ENDBRANCH   1  20
BRANCH   9  23
ATOM     23  C   UNL     1       2.985  -4.606  -0.059  0.00  0.00    +0.130 C 
BRANCH  23  24
ATOM     24  C   UNL     1       2.652  -4.835  -1.535  0.00  0.00    +0.003 C 
ATOM     25  C   UNL     1       3.880  -5.400  -2.252  0.00  0.00    +0.009 C 
ATOM     26  C   UNL     1       1.493  -5.827  -1.649  0.00  0.00    +0.009 C 
ENDBRANCH  23  24
ENDBRANCH   9  23
TORSDOF 6
