REMARK  Name = ZINC08688002
REMARK  14 active torsions:
REMARK  status: ('A' for Active; 'I' for Inactive)
REMARK    1  A    between atoms: C_1  and  N_2
REMARK    2  A    between atoms: N_2  and  C_3
REMARK    3  A    between atoms: N_2  and  S_4
REMARK    4  A    between atoms: S_4  and  C_7
REMARK    5  A    between atoms: C_11  and  N_13
REMARK    6  A    between atoms: N_13  and  C_14
REMARK    7  A    between atoms: C_14  and  N_16
REMARK    8  A    between atoms: N_16  and  N_17
REMARK    9  A    between atoms: C_18  and  C_19
REMARK   10  A    between atoms: C_21  and  O_28
REMARK   11  A    between atoms: C_22  and  O_27
REMARK   12  A    between atoms: C_23  and  O_25
REMARK   13  A    between atoms: O_25  and  C_26
REMARK   14  A    between atoms: O_28  and  C_29
REMARK                            x       y       z     vdW  Elec       q    Type
REMARK                         _______ _______ _______ _____ _____    ______ ____
ROOT
ATOM      1  C   UNL     1       5.625  -3.753  -1.905  0.00  0.00    +0.154 C 
ATOM      2  S   UNL     1       6.422  -2.577  -2.861  0.00  0.00    -0.017 S 
ENDROOT
BRANCH   1   3
ATOM      3  N   UNL     1       4.373  -3.525  -1.463  0.00  0.00    -0.296 N 
ATOM      4  H   UNL     1       3.951  -4.154  -0.856  0.00  0.00    +0.154 HD
BRANCH   3   9
ATOM      5  C   UNL     1       3.065  -0.844  -3.612  0.00  0.00    +0.107 A 
ATOM      6  C   UNL     1       2.312  -0.124  -2.703  0.00  0.00    +0.028 A 
ATOM      7  C   UNL     1       2.242  -0.530  -1.383  0.00  0.00    +0.004 A 
ATOM      8  C   UNL     1       2.924  -1.658  -0.969  0.00  0.00    +0.023 A 
ATOM      9  C   UNL     1       3.680  -2.383  -1.879  0.00  0.00    +0.034 A 
ATOM     10  C   UNL     1       3.745  -1.976  -3.205  0.00  0.00    +0.051 A 
BRANCH   5  11
ATOM     11  S   UNL     1       3.151  -0.322  -5.293  0.00  0.00    +0.060 S 
ATOM     12  O   UNL     1       4.355  -0.859  -5.824  0.00  0.00    -0.153 OA
ATOM     13  O   UNL     1       2.870   1.071  -5.300  0.00  0.00    -0.153 OA
BRANCH  11  15
ATOM     14  C   UNL     1       0.601  -0.404  -6.189  0.00  0.00    +0.131 C 
ATOM     15  N   UNL     1       1.907  -1.060  -6.099  0.00  0.00    -0.183 NA
ATOM     16  C   UNL     1       2.114  -2.370  -6.722  0.00  0.00    +0.131 C 
ENDBRANCH  11  15
ENDBRANCH   5  11
ENDBRANCH   3   9
ENDBRANCH   1   3
BRANCH   1  17
ATOM     17  N   UNL     1       6.251  -4.905  -1.595  0.00  0.00    -0.218 N 
ATOM     18  H   UNL     1       7.152  -5.069  -1.913  0.00  0.00    +0.176 HD
BRANCH  17  19
ATOM     19  N   UNL     1       5.599  -5.867  -0.812  0.00  0.00    -0.188 NA
ATOM     20  C   UNL     1       6.201  -6.978  -0.513  0.00  0.00    +0.138 C 
BRANCH  20  21
ATOM     21  C   UNL     1       5.515  -7.990   0.310  0.00  0.00    +0.002 A 
ATOM     22  C   UNL     1       4.214  -7.758   0.764  0.00  0.00    +0.059 A 
ATOM     23  C   UNL     1       3.573  -8.710   1.536  0.00  0.00    +0.166 A 
ATOM     24  C   UNL     1       4.222  -9.898   1.860  0.00  0.00    +0.201 A 
ATOM     25  C   UNL     1       5.517 -10.131   1.410  0.00  0.00    +0.166 A 
ATOM     26  C   UNL     1       6.162  -9.185   0.632  0.00  0.00    +0.059 A 
BRANCH  25  27
ATOM     27  O   UNL     1       6.149 -11.293   1.729  0.00  0.00    -0.491 OA
ATOM     28  C   UNL     1       7.477 -11.466   1.233  0.00  0.00    +0.277 C 
ENDBRANCH  25  27
BRANCH  24  29
ATOM     29  O   UNL     1       3.588 -10.832   2.620  0.00  0.00    -0.501 OA
ATOM     30  H   UNL     1       3.083 -11.478   2.108  0.00  0.00    +0.292 HD
ENDBRANCH  24  29
BRANCH  23  31
ATOM     31  O   UNL     1       2.307  -8.485   1.979  0.00  0.00    -0.491 OA
ATOM     32  C   UNL     1       1.701  -7.245   1.610  0.00  0.00    +0.277 C 
ENDBRANCH  23  31
ENDBRANCH  20  21
ENDBRANCH  17  19
ENDBRANCH   1  17
TORSDOF 10
