REMARK  Name = ZINC36749444
REMARK  4 active torsions:
REMARK  status: ('A' for Active; 'I' for Inactive)
REMARK    1  A    between atoms: C_1  and  C_2
REMARK    2  A    between atoms: C_3  and  N_17
REMARK    3  A    between atoms: C_4  and  N_8
REMARK    4  A    between atoms: N_5  and  C_7
REMARK                            x       y       z     vdW  Elec       q    Type
REMARK                         _______ _______ _______ _____ _____    ______ ____
ROOT
ATOM      1  C   UNL     1      -0.345   1.478   0.031  0.00  0.00    +0.069 C 
ATOM      2  C   UNL     1      -0.144  -0.016   0.011  0.00  0.00    +0.083 A 
ATOM      3  C   UNL     1       0.100  -0.793  -1.128  0.00  0.00    +0.092 A 
ATOM      4  C   UNL     1       0.223  -2.091  -0.728  0.00  0.00    +0.176 A 
ATOM      5  N   UNL     1       0.060  -2.118   0.625  0.00  0.00    -0.248 N 
ATOM      6  N   UNL     1      -0.162  -0.804   1.056  0.00  0.00    -0.173 NA
ATOM      7  C   UNL     1       0.114  -3.309   1.477  0.00  0.00    +0.174 C 
ENDROOT
BRANCH   4   8
ATOM      8  N   UNL     1       0.472  -3.192  -1.553  0.00  0.00    -0.193 N 
ATOM      9  C   UNL     1      -0.180  -3.508  -2.724  0.00  0.00    +0.096 A 
ATOM     10  C   UNL     1      -1.212  -2.918  -3.446  0.00  0.00    +0.030 A 
ATOM     11  C   UNL     1      -1.645  -3.494  -4.607  0.00  0.00    +0.002 A 
ATOM     12  C   UNL     1      -1.063  -4.666  -5.074  0.00  0.00    +0.002 A 
ATOM     13  C   UNL     1      -0.049  -5.264  -4.385  0.00  0.00    +0.032 A 
ATOM     14  C   UNL     1       0.414  -4.694  -3.192  0.00  0.00    +0.113 A 
ATOM     15  N   UNL     1       1.375  -5.044  -2.315  0.00  0.00    -0.129 NA
ATOM     16  N   UNL     1       1.438  -4.190  -1.355  0.00  0.00    -0.058 NA
ENDBRANCH   4   8
BRANCH   3  17
ATOM     17  N   UNL     1       0.199  -0.319  -2.452  0.00  0.00    -0.354 N 
ATOM     18  H   UNL     1       0.095   0.627  -2.637  0.00  0.00    +0.142 HD
ATOM     19  H   UNL     1       0.370  -0.940  -3.178  0.00  0.00    +0.142 HD
ENDBRANCH   3  17
TORSDOF 2
