REMARK  Name = ZINC39440956
REMARK  6 active torsions:
REMARK  status: ('A' for Active; 'I' for Inactive)
REMARK    1  A    between atoms: C_2  and  C_3
REMARK    2  A    between atoms: C_3  and  S_4
REMARK    3  A    between atoms: S_4  and  C_5
REMARK    4  A    between atoms: C_11  and  C_21
REMARK    5  A    between atoms: C_13  and  C_19
REMARK    6  A    between atoms: C_14  and  N_18
REMARK                            x       y       z     vdW  Elec       q    Type
REMARK                         _______ _______ _______ _____ _____    ______ ____
ROOT
ATOM      1  C   UNL     1      -2.999  -2.535  -1.381  0.00  0.00    +0.184 C 
ATOM      2  N   UNL     1      -3.682  -2.346  -0.266  0.00  0.00    -0.154 NA
ATOM      3  C   UNL     1      -4.849  -2.948  -0.034  0.00  0.00    +0.251 C 
ATOM      4  O   UNL     1      -5.470  -2.757   0.994  0.00  0.00    -0.273 OA
ATOM      5  C   UNL     1      -5.369  -3.883  -1.112  0.00  0.00    +0.175 C 
ATOM      6  C   UNL     1      -6.711  -3.318  -1.587  0.00  0.00    +0.085 C 
ATOM      7  C   UNL     1      -7.137  -4.015  -2.850  0.00  0.00    +0.095 C 
ATOM      8  C   UNL     1      -6.269  -4.661  -3.659  0.00  0.00    +0.200 C 
ATOM      9  O   UNL     1      -4.947  -4.739  -3.376  0.00  0.00    -0.426 OA
ATOM     10  C   UNL     1      -4.499  -3.992  -2.354  0.00  0.00    +0.213 C 
ATOM     11  N   UNL     1      -3.393  -3.311  -2.399  0.00  0.00    -0.192 NA
ENDROOT
BRANCH   6  12
ATOM     12  C   UNL     1      -7.753  -3.535  -0.521  0.00  0.00    -0.038 A 
ATOM     13  C   UNL     1      -8.054  -4.817  -0.100  0.00  0.00    +0.004 A 
ATOM     14  C   UNL     1      -9.010  -5.016   0.879  0.00  0.00    +0.000 A 
ATOM     15  C   UNL     1      -9.664  -3.933   1.437  0.00  0.00    +0.000 A 
ATOM     16  C   UNL     1      -9.361  -2.651   1.017  0.00  0.00    +0.000 A 
ATOM     17  C   UNL     1      -8.402  -2.452   0.041  0.00  0.00    +0.004 A 
ENDBRANCH   6  12
BRANCH   8  18
ATOM     18  N   UNL     1      -6.742  -5.257  -4.802  0.00  0.00    -0.328 N 
ATOM     19  H   UNL     1      -7.686  -5.211  -5.019  0.00  0.00    +0.145 HD
ATOM     20  H   UNL     1      -6.131  -5.725  -5.393  0.00  0.00    +0.145 HD
ENDBRANCH   8  18
BRANCH   7  21
ATOM     21  C   UNL     1      -8.523  -3.994  -3.210  0.00  0.00    +0.100 C 
ATOM     22  N   UNL     1      -9.622  -3.977  -3.495  0.00  0.00    -0.191 NA
ENDBRANCH   7  21
BRANCH   1  23
ATOM     23  S   UNL     1      -1.457  -1.697  -1.543  0.00  0.00    -0.084 S 
BRANCH  23  24
ATOM     24  C   UNL     1      -1.293  -0.775   0.010  0.00  0.00    +0.103 C 
BRANCH  24  26
ATOM     25  C   UNL     1      -0.016   1.306   0.009  0.00  0.00    +0.005 C 
ATOM     26  C   UNL     1       0.002  -0.004   0.002  0.00  0.00    -0.023 C 
ENDBRANCH  24  26
ENDBRANCH  23  24
ENDBRANCH   1  23
TORSDOF 6
