REMARK  Name = ZINC46008906
REMARK  5 active torsions:
REMARK  status: ('A' for Active; 'I' for Inactive)
REMARK    1  A    between atoms: C_1  and  C_2
REMARK    2  A    between atoms: C_2  and  C_3
REMARK    3  A    between atoms: C_6  and  N_12
REMARK    4  A    between atoms: C_8  and  N_9
REMARK    5  A    between atoms: C_19  and  C_20
REMARK                            x       y       z     vdW  Elec       q    Type
REMARK                         _______ _______ _______ _____ _____    ______ ____
ROOT
ATOM      1  N   UNL     1       2.748  -1.884   4.602  0.00  0.00    -0.269 N 
ATOM      2  C   UNL     1       4.060  -2.180   4.528  0.00  0.00    +0.307 C 
ATOM      3  O   UNL     1       4.635  -2.132   3.458  0.00  0.00    -0.252 OA
ATOM      4  N   UNL     1       4.736  -2.529   5.641  0.00  0.00    -0.278 N 
ATOM      5  C   UNL     1       4.165  -2.634   6.996  0.00  0.00    +0.110 C 
ATOM      6  C   UNL     1       5.370  -2.441   7.950  0.00  0.00    +0.021 C 
ATOM      7  C   UNL     1       6.498  -3.176   7.179  0.00  0.00    +0.029 C 
ATOM      8  C   UNL     1       6.164  -2.876   5.703  0.00  0.00    +0.108 C 
ATOM      9  H   UNL     1       2.275  -1.982   5.444  0.00  0.00    +0.156 HD
ENDROOT
BRANCH   1  13
ATOM     10  C   UNL     1       0.719  -0.549   1.217  0.00  0.00    -0.017 A 
ATOM     11  C   UNL     1       1.725  -1.490   1.092  0.00  0.00    +0.007 A 
ATOM     12  C   UNL     1       2.399  -1.934   2.212  0.00  0.00    +0.024 A 
ATOM     13  C   UNL     1       2.066  -1.435   3.465  0.00  0.00    +0.037 A 
ATOM     14  C   UNL     1       1.056  -0.491   3.587  0.00  0.00    +0.056 A 
ATOM     15  C   UNL     1       0.388  -0.047   2.462  0.00  0.00    +0.131 A 
BRANCH  15  16
ATOM     16  N   UNL     1      -0.685   0.964   2.590  0.00  0.00    +0.057 N 
ATOM     17  O   UNL     1      -0.917   1.467   3.665  0.00  0.00    -0.126 OA
ATOM     18  O   UNL     1      -1.330   1.287   1.620  0.00  0.00    -0.126 OA
ENDBRANCH  15  16
BRANCH  10  20
ATOM     19  C   UNL     1       0.535   1.297  -0.428  0.00  0.00    +0.009 C 
ATOM     20  C   UNL     1      -0.015  -0.067  -0.008  0.00  0.00    +0.034 C 
ENDBRANCH  10  20
ENDBRANCH   1  13
BRANCH   8  21
ATOM     21  C   UNL     1       6.433  -4.092   4.856  0.00  0.00    -0.020 A 
ATOM     22  C   UNL     1       7.594  -4.186   4.111  0.00  0.00    +0.013 A 
ATOM     23  C   UNL     1       7.806  -5.293   3.359  0.00  0.00    +0.045 A 
ATOM     24  S   UNL     1       6.337  -6.252   3.693  0.00  0.00    -0.105 S 
ATOM     25  C   UNL     1       5.543  -5.114   4.816  0.00  0.00    +0.050 A 
ENDBRANCH   8  21
TORSDOF 4
