REMARK  Name = ZINC37077435
REMARK  8 active torsions:
REMARK  status: ('A' for Active; 'I' for Inactive)
REMARK    1  A    between atoms: C_1  and  C_2
REMARK    2  A    between atoms: C_5  and  O_12
REMARK    3  A    between atoms: C_8  and  C_10
REMARK    4  A    between atoms: C_8  and  C_11
REMARK    5  A    between atoms: O_12  and  C_13
REMARK    6  A    between atoms: C_16  and  N_21
REMARK    7  A    between atoms: C_17  and  O_19
REMARK    8  A    between atoms: O_19  and  C_20
REMARK                            x       y       z     vdW  Elec       q    Type
REMARK                         _______ _______ _______ _____ _____    ______ ____
ROOT
ATOM      1  C   UNL     1      -1.052  -3.105  -2.442  0.00  0.00    +0.218 A 
ATOM      2  C   UNL     1      -2.353  -3.585  -2.495  0.00  0.00    +0.069 A 
ATOM      3  C   UNL     1      -2.902  -3.920  -3.722  0.00  0.00    +0.033 A 
ATOM      4  C   UNL     1      -2.124  -3.760  -4.863  0.00  0.00    +0.087 A 
ATOM      5  C   UNL     1      -0.826  -3.273  -4.735  0.00  0.00    +0.239 A 
ATOM      6  N   UNL     1      -0.338  -2.959  -3.546  0.00  0.00    -0.176 NA
ENDROOT
BRANCH   4   7
ATOM      7  N   UNL     1      -2.639  -4.087  -6.126  0.00  0.00    -0.354 N 
ATOM      8  H   UNL     1      -3.544  -4.426  -6.208  0.00  0.00    +0.142 HD
ATOM      9  H   UNL     1      -2.090  -3.973  -6.918  0.00  0.00    +0.142 HD
ENDBRANCH   4   7
BRANCH   5  10
ATOM     10  O   UNL     1      -0.055  -3.112  -5.841  0.00  0.00    -0.478 OA
ATOM     11  C   UNL     1       1.267  -2.608  -5.644  0.00  0.00    +0.279 C 
ENDBRANCH   5  10
BRANCH   1  12
ATOM     12  O   UNL     1      -0.508  -2.776  -1.243  0.00  0.00    -0.473 OA
BRANCH  12  16
ATOM     13  C   UNL     1       0.032   1.381  -0.373  0.00  0.00    +0.007 C 
ATOM     14  C   UNL     1       0.051  -0.141  -0.226  0.00  0.00    -0.010 C 
ATOM     15  C   UNL     1       0.813  -0.758  -1.400  0.00  0.00    +0.048 C 
ATOM     16  C   UNL     1       0.833  -2.281  -1.253  0.00  0.00    +0.176 C 
ATOM     17  C   UNL     1       1.525  -2.657   0.059  0.00  0.00    +0.051 C 
ATOM     18  C   UNL     1       0.763  -2.041   1.233  0.00  0.00    -0.031 C 
ATOM     19  C   UNL     1       0.744  -0.518   1.085  0.00  0.00    +0.010 C 
ATOM     20  C   UNL     1      -0.673  -2.570   1.244  0.00  0.00    +0.011 C 
ATOM     21  C   UNL     1       1.455  -2.417   2.545  0.00  0.00    +0.011 C 
ENDBRANCH  12  16
ENDBRANCH   1  12
TORSDOF 4
