REMARK  Name = ZINC19863659
REMARK  5 active torsions:
REMARK  status: ('A' for Active; 'I' for Inactive)
REMARK    1  A    between atoms: C_1  and  C_2
REMARK    2  A    between atoms: C_7  and  S_10
REMARK    3  A    between atoms: S_10  and  C_11
REMARK    4  A    between atoms: C_11  and  C_12
REMARK    5  A    between atoms: C_15  and  C_19
REMARK                            x       y       z     vdW  Elec       q    Type
REMARK                         _______ _______ _______ _____ _____    ______ ____
ROOT
ATOM      1  C   UNL     1       2.875   2.339  -5.584  0.00  0.00    -0.002 A 
ATOM      2  C   UNL     1       3.103   1.306  -6.475  0.00  0.00    +0.008 A 
ATOM      3  C   UNL     1       3.943   1.493  -7.554  0.00  0.00    +0.012 A 
ATOM      4  C   UNL     1       4.564   2.728  -7.746  0.00  0.00    +0.015 A 
ATOM      5  C   UNL     1       4.332   3.767  -6.846  0.00  0.00    +0.050 A 
ATOM      6  C   UNL     1       3.484   3.569  -5.771  0.00  0.00    +0.128 A 
ATOM      7  F   UNL     1       3.253   4.576  -4.900  0.00  0.00    -0.205 F 
ENDROOT
BRANCH   4   8
ATOM      8  C   UNL     1       5.465   2.933  -8.901  0.00  0.00    +0.094 C 
ATOM      9  N   UNL     1       6.057   4.112  -9.082  0.00  0.00    -0.387 N 
ATOM     10  N   UNL     1       5.686   1.940  -9.759  0.00  0.00    -0.345 N 
ATOM     11  H   UNL     1       5.896   4.837  -8.457  0.00  0.00    +0.157 HD
ATOM     12  H   UNL     1       5.255   1.081  -9.628  0.00  0.00    +0.144 HD
ATOM     13  H   UNL     1       6.277   2.075 -10.517  0.00  0.00    +0.144 HD
ATOM     14  H   UNL     1       6.648   4.247  -9.839  0.00  0.00    +0.157 HD
ENDBRANCH   4   8
BRANCH   1  15
ATOM     15  C   UNL     1       1.957   2.127  -4.409  0.00  0.00    +0.115 C 
BRANCH  15  16
ATOM     16  S   UNL     1       0.259   2.556  -4.883  0.00  0.00    -0.083 S 
BRANCH  16  23
ATOM     17  C   UNL     1      -0.013   1.086   0.008  0.00  0.00    +0.066 C 
ATOM     18  C   UNL     1      -0.742   1.585  -1.213  0.00  0.00    +0.046 A 
ATOM     19  C   UNL     1      -2.090   1.794  -1.164  0.00  0.00    +0.093 A 
ATOM     20  C   UNL     1      -2.748   2.260  -2.315  0.00  0.00    +0.252 A 
ATOM     21  O   UNL     1      -3.952   2.457  -2.306  0.00  0.00    -0.268 OA
ATOM     22  N   UNL     1      -2.023   2.485  -3.431  0.00  0.00    -0.302 N 
ATOM     23  C   UNL     1      -0.680   2.259  -3.422  0.00  0.00    +0.169 A 
ATOM     24  N   UNL     1      -0.069   1.827  -2.335  0.00  0.00    -0.228 NA
ATOM     25  H   UNL     1      -2.457   2.806  -4.237  0.00  0.00    +0.171 HD
ENDBRANCH  16  23
ENDBRANCH  15  16
ENDBRANCH   1  15
TORSDOF 4
