REMARK  Name = ZINC16022206
REMARK  9 active torsions:
REMARK  status: ('A' for Active; 'I' for Inactive)
REMARK    1  A    between atoms: C_1  and  C_2
REMARK    2  A    between atoms: C_13  and  C_16
REMARK    3  A    between atoms: C_16  and  C_17
REMARK    4  A    between atoms: C_17  and  C_18
REMARK    5  A    between atoms: N_23  and  C_26
REMARK    6  A    between atoms: C_26  and  C_27
REMARK    7  A    between atoms: C_27  and  C_28
REMARK    8  A    between atoms: C_28  and  O_29
REMARK    9  A    between atoms: O_29  and  C_30
REMARK                            x       y       z     vdW  Elec       q    Type
REMARK                         _______ _______ _______ _____ _____    ______ ____
ROOT
ATOM      1  C   UNL     1      -0.018   1.503   0.010  0.00  0.00    +0.044 C 
ATOM      2  C   UNL     1       0.002  -0.004   0.002  0.00  0.00    -0.050 A 
ATOM      3  C   UNL     1       0.006  -0.691  -1.199  0.00  0.00    +0.005 A 
ATOM      4  C   UNL     1       0.025  -2.070  -1.212  0.00  0.00    +0.024 A 
ATOM      5  C   UNL     1       0.042  -2.782  -0.015  0.00  0.00    +0.039 A 
ATOM      6  C   UNL     1       0.035  -2.081   1.187  0.00  0.00    +0.004 A 
ATOM      7  C   UNL     1       0.023  -0.704   1.195  0.00  0.00    +0.011 A 
ATOM      8  C   UNL     1       0.049  -3.122   2.270  0.00  0.00    +0.136 C 
ATOM      9  C   UNL     1       1.267  -2.968   3.188  0.00  0.00    +0.122 C 
ATOM     10  C   UNL     1       0.745  -3.357   4.599  0.00  0.00    +0.107 C 
ATOM     11  C   UNL     1      -0.743  -3.709   4.388  0.00  0.00    +0.068 C 
ATOM     12  N   UNL     1      -1.134  -3.008   3.143  0.00  0.00    -0.295 NA
ATOM     13  C   UNL     1       1.525  -4.610   4.926  0.00  0.00    +0.227 C 
ATOM     14  O   UNL     1       1.424  -5.251   5.950  0.00  0.00    -0.275 OA
ATOM     15  N   UNL     1       2.342  -4.903   3.908  0.00  0.00    -0.241 N 
ATOM     16  C   UNL     1       2.286  -4.038   2.870  0.00  0.00    +0.228 C 
ATOM     17  O   UNL     1       2.938  -4.104   1.850  0.00  0.00    -0.275 OA
ATOM     18  C   UNL     1       0.069  -4.440   1.545  0.00  0.00    +0.243 C 
ATOM     19  O   UNL     1       0.087  -5.543   2.048  0.00  0.00    -0.273 OA
ATOM     20  N   UNL     1       0.064  -4.157   0.228  0.00  0.00    -0.283 N 
ATOM     21  H   UNL     1      -1.349  -2.042   3.337  0.00  0.00    +0.123 HD
ATOM     22  H   UNL     1       0.074  -4.830  -0.470  0.00  0.00    +0.155 HD
ENDROOT
BRANCH  11  23
ATOM     23  C   UNL     1      -1.579  -3.229   5.576  0.00  0.00    +0.028 C 
BRANCH  23  24
ATOM     24  C   UNL     1      -3.025  -3.697   5.405  0.00  0.00    +0.097 C 
BRANCH  24  25
ATOM     25  C   UNL     1      -3.848  -3.223   6.575  0.00  0.00    +0.211 C 
ATOM     26  O   UNL     1      -3.329  -2.576   7.459  0.00  0.00    -0.276 OA
ATOM     27  N   UNL     1      -5.161  -3.520   6.640  0.00  0.00    -0.329 N 
ATOM     28  H   UNL     1      -5.577  -4.038   5.933  0.00  0.00    +0.145 HD
ATOM     29  H   UNL     1      -5.691  -3.215   7.393  0.00  0.00    +0.145 HD
ENDBRANCH  24  25
ENDBRANCH  23  24
ENDBRANCH  11  23
BRANCH  15  30
ATOM     30  C   UNL     1       3.234  -6.066   3.917  0.00  0.00    +0.118 C 
BRANCH  30  31
ATOM     31  C   UNL     1       2.507  -7.271   3.317  0.00  0.00    +0.047 C 
BRANCH  31  32
ATOM     32  C   UNL     1       3.438  -8.485   3.327  0.00  0.00    +0.161 C 
BRANCH  32  33
ATOM     33  O   UNL     1       2.759  -9.610   2.767  0.00  0.00    -0.383 OA
ATOM     34  C   UNL     1       3.545 -10.803   2.728  0.00  0.00    +0.193 C 
ENDBRANCH  32  33
ENDBRANCH  31  32
ENDBRANCH  30  31
ENDBRANCH  15  30
TORSDOF 7
