REMARK  Name = ZINC03439789
REMARK  5 active torsions:
REMARK  status: ('A' for Active; 'I' for Inactive)
REMARK    1  A    between atoms: C_1  and  C_2
REMARK    2  A    between atoms: C_5  and  C_8
REMARK    3  A    between atoms: C_8  and  C_27
REMARK    4  A    between atoms: N_11  and  C_15
REMARK    5  A    between atoms: C_15  and  N_16
REMARK                            x       y       z     vdW  Elec       q    Type
REMARK                         _______ _______ _______ _____ _____    ______ ____
ROOT
ATOM      1  C   UNL     1       5.781  -3.727   3.425  0.00  0.00    +0.135 C 
ATOM      2  C   UNL     1       5.809  -2.777   2.243  0.00  0.00    +0.252 C 
ATOM      3  O   UNL     1       6.352  -1.695   2.186  0.00  0.00    -0.272 OA
ATOM      4  N   UNL     1       5.102  -3.386   1.270  0.00  0.00    -0.203 N 
ATOM      5  C   UNL     1       4.643  -4.578   1.666  0.00  0.00    +0.311 C 
ATOM      6  O   UNL     1       3.982  -5.316   0.961  0.00  0.00    -0.252 OA
ATOM      7  N   UNL     1       4.994  -4.870   2.931  0.00  0.00    -0.281 N 
ATOM      8  C   UNL     1       5.091  -3.078   4.626  0.00  0.00    +0.047 C 
ATOM      9  H   UNL     1       4.772  -5.676   3.423  0.00  0.00    +0.152 HD
ENDROOT
BRANCH   1  14
ATOM     10  C   UNL     1      11.136  -5.394   4.816  0.00  0.00    +0.044 C 
ATOM     11  C   UNL     1       9.739  -4.959   4.453  0.00  0.00    -0.050 A 
ATOM     12  C   UNL     1       8.682  -5.838   4.597  0.00  0.00    +0.004 A 
ATOM     13  C   UNL     1       7.401  -5.440   4.264  0.00  0.00    +0.006 A 
ATOM     14  C   UNL     1       7.177  -4.162   3.788  0.00  0.00    -0.015 A 
ATOM     15  C   UNL     1       8.235  -3.284   3.639  0.00  0.00    +0.006 A 
ATOM     16  C   UNL     1       9.515  -3.681   3.977  0.00  0.00    +0.004 A 
ENDBRANCH   1  14
BRANCH   4  17
ATOM     17  C   UNL     1       4.871  -2.814  -0.059  0.00  0.00    +0.268 C 
BRANCH  17  18
ATOM     18  N   UNL     1       3.637  -2.025  -0.043  0.00  0.00    -0.192 N 
ATOM     19  C   UNL     1       3.699  -0.673  -0.037  0.00  0.00    +0.279 A 
ATOM     20  O   UNL     1       4.767  -0.088  -0.043  0.00  0.00    -0.265 OA
ATOM     21  C   UNL     1       2.425   0.062  -0.021  0.00  0.00    +0.068 A 
ATOM     22  C   UNL     1       2.384   1.456  -0.012  0.00  0.00    +0.015 A 
ATOM     23  C   UNL     1       1.166   2.100   0.002  0.00  0.00    +0.001 A 
ATOM     24  C   UNL     1      -0.017   1.372   0.010  0.00  0.00    +0.002 A 
ATOM     25  C   UNL     1       0.002  -0.004   0.002  0.00  0.00    +0.030 A 
ATOM     26  C   UNL     1       1.225  -0.681  -0.013  0.00  0.00    +0.100 A 
ATOM     27  N   UNL     1       1.281  -2.036  -0.021  0.00  0.00    -0.131 NA
ATOM     28  N   UNL     1       2.397  -2.670  -0.035  0.00  0.00    -0.061 NA
ENDBRANCH  17  18
ENDBRANCH   4  17
TORSDOF 3
