REMARK  Name = ZINC09215747
REMARK  10 active torsions:
REMARK  status: ('A' for Active; 'I' for Inactive)
REMARK    1  A    between atoms: C_1  and  C_2
REMARK    2  A    between atoms: C_14  and  C_25
REMARK    3  A    between atoms: C_15  and  N_16
REMARK    4  A    between atoms: N_17  and  C_18
REMARK    5  A    between atoms: C_18  and  C_19
REMARK    6  A    between atoms: N_27  and  C_28
REMARK    7  A    between atoms: C_28  and  C_29
REMARK    8  A    between atoms: C_29  and  C_30
REMARK    9  A    between atoms: C_33  and  O_36
REMARK   10  A    between atoms: O_36  and  C_37
REMARK                            x       y       z     vdW  Elec       q    Type
REMARK                         _______ _______ _______ _____ _____    ______ ____
ROOT
ATOM      1  C   UNL     1       2.137   1.806   0.712  0.00  0.00    +0.047 C 
ATOM      2  C   UNL     1       1.631   0.417   0.417  0.00  0.00    -0.007 A 
ATOM      3  C   UNL     1       1.691  -0.078  -0.848  0.00  0.00    +0.008 A 
ATOM      4  C   UNL     1       1.216  -1.373  -1.110  0.00  0.00    +0.019 A 
ATOM      5  C   UNL     1       0.704  -2.121  -0.110  0.00  0.00    +0.096 A 
ATOM      6  N   UNL     1       0.638  -1.635   1.164  0.00  0.00    -0.267 N 
ATOM      7  C   UNL     1       1.098  -0.379   1.454  0.00  0.00    +0.145 A 
ATOM      8  N   UNL     1       1.056   0.126   2.682  0.00  0.00    -0.211 NA
ATOM      9  C   UNL     1       0.566  -0.562   3.719  0.00  0.00    +0.150 A 
ATOM     10  C   UNL     1       0.075  -1.877   3.499  0.00  0.00    +0.083 A 
ATOM     11  C   UNL     1       0.116  -2.417   2.139  0.00  0.00    +0.268 A 
ATOM     12  O   UNL     1      -0.291  -3.538   1.894  0.00  0.00    -0.267 OA
ATOM     13  C   UNL     1      -0.440  -2.611   4.564  0.00  0.00    +0.033 A 
ATOM     14  C   UNL     1      -0.451  -2.014   5.827  0.00  0.00    +0.075 A 
ATOM     15  C   UNL     1       0.053  -0.703   5.974  0.00  0.00    +0.110 A 
ATOM     16  N   UNL     1       0.534  -0.033   4.943  0.00  0.00    -0.311 N 
ENDROOT
BRANCH  14  17
ATOM     17  C   UNL     1      -0.984  -2.741   6.990  0.00  0.00    +0.247 C 
ATOM     18  O   UNL     1      -0.902  -2.254   8.101  0.00  0.00    -0.270 OA
ATOM     19  N   UNL     1      -1.562  -3.948   6.824  0.00  0.00    -0.311 N 
ATOM     20  H   UNL     1      -1.627  -4.336   5.937  0.00  0.00    +0.149 HD
BRANCH  19  21
ATOM     21  C   UNL     1      -2.091  -4.672   7.981  0.00  0.00    +0.109 C 
BRANCH  21  22
ATOM     22  C   UNL     1      -2.689  -6.003   7.521  0.00  0.00    +0.054 C 
BRANCH  22  23
ATOM     23  C   UNL     1      -3.234  -6.748   8.712  0.00  0.00    -0.046 A 
ATOM     24  C   UNL     1      -2.419  -7.616   9.415  0.00  0.00    +0.007 A 
ATOM     25  C   UNL     1      -2.916  -8.300  10.507  0.00  0.00    +0.046 A 
ATOM     26  C   UNL     1      -4.234  -8.116  10.898  0.00  0.00    +0.120 A 
ATOM     27  C   UNL     1      -5.050  -7.245  10.191  0.00  0.00    +0.046 A 
ATOM     28  C   UNL     1      -4.546  -6.559   9.103  0.00  0.00    +0.007 A 
BRANCH  26  29
ATOM     29  O   UNL     1      -4.726  -8.789  11.972  0.00  0.00    -0.495 OA
ATOM     30  C   UNL     1      -6.092  -8.550  12.317  0.00  0.00    +0.277 C 
ENDBRANCH  26  29
ENDBRANCH  22  23
ENDBRANCH  21  22
ENDBRANCH  19  21
ENDBRANCH  14  17
BRANCH  15  31
ATOM     31  N   UNL     1       0.043  -0.111   7.219  0.00  0.00    -0.344 N 
ATOM     32  H   UNL     1       0.120  -0.657   8.017  0.00  0.00    +0.144 HD
ATOM     33  H   UNL     1      -0.041   0.853   7.298  0.00  0.00    +0.144 HD
ENDBRANCH  15  31
BRANCH  16  34
ATOM     34  C   UNL     1       1.046   1.324   5.149  0.00  0.00    +0.156 C 
BRANCH  34  35
ATOM     35  C   UNL     1      -0.089   2.332   4.955  0.00  0.00    +0.138 C 
ATOM     36  C   UNL     1       0.409   3.768   5.257  0.00  0.00    +0.035 C 
ATOM     37  C   UNL     1      -0.591   4.609   4.418  0.00  0.00    +0.031 C 
ATOM     38  C   UNL     1      -0.844   3.697   3.198  0.00  0.00    +0.160 C 
ATOM     39  O   UNL     1      -0.504   2.358   3.580  0.00  0.00    -0.375 OA
ENDBRANCH  34  35
ENDBRANCH  16  34
TORSDOF 8
