REMARK  Name = ZINC13124720
REMARK  5 active torsions:
REMARK  status: ('A' for Active; 'I' for Inactive)
REMARK    1  A    between atoms: C_1  and  C_2
REMARK    2  A    between atoms: C_4  and  C_24
REMARK    3  A    between atoms: C_6  and  S_8
REMARK    4  A    between atoms: S_8  and  C_9
REMARK    5  A    between atoms: C_9  and  C_10
REMARK                            x       y       z     vdW  Elec       q    Type
REMARK                         _______ _______ _______ _____ _____    ______ ____
ROOT
ATOM      1  C   UNL     1       0.092  -2.148   5.300  0.00  0.00    +0.122 C 
ATOM      2  N   UNL     1       0.045  -1.356   6.358  0.00  0.00    -0.319 N 
ATOM      3  C   UNL     1       0.020  -1.867   7.582  0.00  0.00    +0.162 C 
ATOM      4  N   UNL     1       0.044  -3.219   7.746  0.00  0.00    -0.273 N 
ATOM      5  C   UNL     1       0.092  -4.019   6.639  0.00  0.00    +0.138 C 
ATOM      6  C   UNL     1       0.118  -5.479   6.782  0.00  0.00    +0.062 C 
ATOM      7  C   UNL     1       0.030  -6.301   5.652  0.00  0.00    +0.015 C 
ATOM      8  C   UNL     1       0.055  -7.668   5.793  0.00  0.00    +0.001 C 
ATOM      9  C   UNL     1       0.167  -8.248   7.050  0.00  0.00    +0.004 C 
ATOM     10  C   UNL     1       0.256  -7.464   8.177  0.00  0.00    +0.051 C 
ATOM     11  C   UNL     1       0.238  -6.069   8.062  0.00  0.00    +0.189 C 
ATOM     12  O   UNL     1       0.329  -5.303   9.149  0.00  0.00    -0.287 OA
ATOM     13  N   UNL     1       0.111  -3.463   5.431  0.00  0.00    -0.217 NA
ATOM     14  N   UNL     1      -0.027  -1.044   8.670  0.00  0.00    -0.332 N 
ATOM     15  H   UNL     1      -0.043  -0.082   8.550  0.00  0.00    +0.145 HD
ATOM     16  H   UNL     1       0.026  -3.607   8.634  0.00  0.00    +0.156 HD
ATOM     17  H   UNL     1      -0.045  -1.421   9.563  0.00  0.00    +0.145 HD
ATOM     18  H   UNL     1       0.029  -0.394   6.239  0.00  0.00    +0.169 HD
ENDROOT
BRANCH   1  19
ATOM     19  C   UNL     1       0.119  -1.541   3.920  0.00  0.00    +0.151 C 
BRANCH  19  20
ATOM     20  S   UNL     1       0.175  -2.862   2.679  0.00  0.00    -0.078 S 
BRANCH  20  26
ATOM     21  C   UNL     1       0.174   1.506   0.013  0.00  0.00    +0.066 C 
ATOM     22  C   UNL     1       0.199  -0.000   0.005  0.00  0.00    +0.043 A 
ATOM     23  C   UNL     1       0.243  -0.694  -1.195  0.00  0.00    +0.046 A 
ATOM     24  C   UNL     1       0.265  -2.080  -1.158  0.00  0.00    +0.043 A 
ATOM     25  N   UNL     1       0.244  -2.695   0.013  0.00  0.00    -0.227 NA
ATOM     26  C   UNL     1       0.202  -2.002   1.141  0.00  0.00    +0.189 A 
ATOM     27  N   UNL     1       0.185  -0.676   1.141  0.00  0.00    -0.227 NA
ATOM     28  C   UNL     1       0.313  -2.876  -2.437  0.00  0.00    +0.066 C 
ENDBRANCH  20  26
ENDBRANCH  19  20
ENDBRANCH   1  19
TORSDOF 3
