REMARK  Name = ZINC09468085
REMARK  5 active torsions:
REMARK  status: ('A' for Active; 'I' for Inactive)
REMARK    1  A    between atoms: C_6  and  C_7
REMARK    2  A    between atoms: C_12  and  C_13
REMARK    3  A    between atoms: C_12  and  N_53
REMARK    4  A    between atoms: N_15  and  C_16
REMARK    5  A    between atoms: C_21  and  N_22
REMARK                            x       y       z     vdW  Elec       q    Type
REMARK                         _______ _______ _______ _____ _____    ______ ____
ROOT
ATOM      1  C   UNL     1       3.300   3.622   2.270  0.00  0.00    +0.020 C 
ENDROOT
BRANCH   1   6
ATOM      2  C   UNL     1       2.483   3.973   0.003  0.00  0.00    -0.037 C 
ATOM      3  C   UNL     1       3.101   3.971  -1.411  0.00  0.00    -0.013 C 
ATOM      4  C   UNL     1       4.621   3.838  -1.184  0.00  0.00    -0.020 C 
ATOM      5  C   UNL     1       4.793   3.771   0.349  0.00  0.00    -0.077 C 
ATOM      6  N   UNL     1       3.494   3.295   0.821  0.00  0.00    +0.390 N 
ATOM      7  H   UNL     1       3.426   2.278   0.694  0.00  0.00    -0.080 HD
BRANCH   2  13
ATOM      8  C   UNL     1       1.179   1.837  -0.004  0.00  0.00    +0.006 A 
ATOM      9  C   UNL     1      -0.016   1.143  -0.002  0.00  0.00    +0.049 A 
ATOM     10  C   UNL     1      -1.220   1.831   0.008  0.00  0.00    +0.162 A 
ATOM     11  C   UNL     1      -1.221   3.221   0.028  0.00  0.00    +0.162 A 
ATOM     12  C   UNL     1      -0.019   3.912   0.023  0.00  0.00    +0.051 A 
ATOM     13  C   UNL     1       1.178   3.219   0.007  0.00  0.00    -0.057 A 
ATOM     14  O   UNL     1      -2.391   3.916   0.052  0.00  0.00    -0.485 OA
ATOM     15  C   UNL     1      -3.572   3.199  -0.337  0.00  0.00    +0.270 C 
ATOM     16  C   UNL     1      -3.567   1.847   0.390  0.00  0.00    +0.270 C 
ATOM     17  O   UNL     1      -2.389   1.133  -0.000  0.00  0.00    -0.485 OA
ENDBRANCH   2  13
ENDBRANCH   1   6
BRANCH   1  18
ATOM     18  C   UNL     1       4.161   2.724   3.120  0.00  0.00    +0.201 C 
ATOM     19  O   UNL     1       4.858   1.880   2.598  0.00  0.00    -0.278 OA
ATOM     20  N   UNL     1       4.155   2.857   4.462  0.00  0.00    -0.285 N 
ATOM     21  H   UNL     1       3.648   3.574   4.875  0.00  0.00    +0.155 HD
BRANCH  20  22
ATOM     22  C   UNL     1       4.880   1.962   5.257  0.00  0.00    +0.060 A 
ATOM     23  C   UNL     1       6.090   1.454   4.807  0.00  0.00    +0.045 A 
ATOM     24  C   UNL     1       6.806   0.574   5.597  0.00  0.00    +0.043 A 
ATOM     25  C   UNL     1       6.314   0.189   6.832  0.00  0.00    +0.022 A 
ATOM     26  C   UNL     1       5.107   0.687   7.285  0.00  0.00    +0.031 A 
ATOM     27  C   UNL     1       4.385   1.574   6.501  0.00  0.00    +0.088 A 
ATOM     28 CL   UNL     1       8.323  -0.056   5.035  0.00  0.00    -0.083 Cl
BRANCH  27  29
ATOM     29  N   UNL     1       3.159   2.080   6.959  0.00  0.00    -0.218 N 
ATOM     30  C   UNL     1       2.603   1.877   8.170  0.00  0.00    +0.225 A 
ATOM     31  N   UNL     1       1.462   2.518   8.204  0.00  0.00    -0.222 NA
ATOM     32  C   UNL     1       1.256   3.137   7.042  0.00  0.00    +0.245 A 
ATOM     33  N   UNL     1       2.269   2.903   6.250  0.00  0.00    -0.153 NA
ENDBRANCH  27  29
ENDBRANCH  20  22
ENDBRANCH   1  18
TORSDOF 5
