REMARK  Name = ZINC04282074
REMARK  7 active torsions:
REMARK  status: ('A' for Active; 'I' for Inactive)
REMARK    1  A    between atoms: C_1  and  C_2
REMARK    2  A    between atoms: C_5  and  C_8
REMARK    3  A    between atoms: N_10  and  N_11
REMARK    4  A    between atoms: C_12  and  C_13
REMARK    5  A    between atoms: C_22  and  O_23
REMARK    6  A    between atoms: O_23  and  C_24
REMARK    7  A    between atoms: C_24  and  C_26
REMARK                            x       y       z     vdW  Elec       q    Type
REMARK                         _______ _______ _______ _____ _____    ______ ____
ROOT
ATOM      1  C   UNL     1      -1.176   3.050  -0.299  0.00  0.00    +0.045 A 
ATOM      2  C   UNL     1       0.118   3.729  -0.336  0.00  0.00    -0.006 A 
ATOM      3  C   UNL     1       0.217   5.098  -0.612  0.00  0.00    +0.009 A 
ATOM      4  C   UNL     1       1.443   5.694  -0.638  0.00  0.00    +0.001 A 
ATOM      5  C   UNL     1       2.600   4.958  -0.393  0.00  0.00    +0.001 A 
ATOM      6  C   UNL     1       2.540   3.626  -0.121  0.00  0.00    +0.008 A 
ATOM      7  C   UNL     1       1.293   2.979  -0.087  0.00  0.00    -0.017 A 
ATOM      8  C   UNL     1       1.191   1.604   0.190  0.00  0.00    +0.012 A 
ATOM      9  C   UNL     1      -0.020   0.988   0.219  0.00  0.00    +0.047 A 
ATOM     10  C   UNL     1      -1.204   1.683  -0.025  0.00  0.00    +0.141 A 
ENDROOT
BRANCH   1  12
ATOM     11  N   UNL     1      -3.554   3.157  -0.607  0.00  0.00    -0.187 NA
ATOM     12  C   UNL     1      -2.420   3.790  -0.552  0.00  0.00    +0.142 C 
BRANCH  11  15
ATOM     13  C   UNL     1      -5.912   3.207  -0.933  0.00  0.00    +0.263 C 
ATOM     14  O   UNL     1      -5.958   2.015  -0.695  0.00  0.00    -0.268 OA
ATOM     15  N   UNL     1      -4.724   3.843  -0.958  0.00  0.00    -0.203 N 
ATOM     16  H   UNL     1      -4.679   4.776  -1.218  0.00  0.00    +0.178 HD
BRANCH  13  21
ATOM     17  C   UNL     1     -10.763   6.128  -1.955  0.00  0.00    +0.044 C 
ATOM     18  C   UNL     1      -9.492   5.363  -1.687  0.00  0.00    -0.050 A 
ATOM     19  C   UNL     1      -9.549   4.007  -1.417  0.00  0.00    +0.004 A 
ATOM     20  C   UNL     1      -8.389   3.300  -1.172  0.00  0.00    +0.013 A 
ATOM     21  C   UNL     1      -7.157   3.957  -1.196  0.00  0.00    +0.038 A 
ATOM     22  C   UNL     1      -7.108   5.326  -1.464  0.00  0.00    +0.013 A 
ATOM     23  C   UNL     1      -8.274   6.019  -1.714  0.00  0.00    +0.004 A 
ENDBRANCH  13  21
ENDBRANCH  11  15
ENDBRANCH   1  12
BRANCH  10  24
ATOM     24  O   UNL     1      -2.391   1.026   0.009  0.00  0.00    -0.422 OA
BRANCH  24  25
ATOM     25  C   UNL     1      -2.850   0.529  -1.156  0.00  0.00    +0.344 C 
ATOM     26  O   UNL     1      -2.260   0.767  -2.192  0.00  0.00    -0.245 OA
BRANCH  25  27
ATOM     27  C   UNL     1      -4.070  -0.304  -1.176  0.00  0.00    +0.059 A 
ATOM     28  C   UNL     1      -4.745  -0.586   0.013  0.00  0.00    +0.015 A 
ATOM     29  C   UNL     1      -5.887  -1.359  -0.013  0.00  0.00    +0.001 A 
ATOM     30  C   UNL     1      -6.356  -1.866  -1.212  0.00  0.00    +0.000 A 
ATOM     31  C   UNL     1      -5.688  -1.595  -2.393  0.00  0.00    +0.001 A 
ATOM     32  C   UNL     1      -4.549  -0.817  -2.382  0.00  0.00    +0.015 A 
ENDBRANCH  25  27
ENDBRANCH  24  25
ENDBRANCH  10  24
TORSDOF 6
