REMARK  Name = ZINC24056404
REMARK  3 active torsions:
REMARK  status: ('A' for Active; 'I' for Inactive)
REMARK    1  A    between atoms: C_1  and  N_2
REMARK    2  A    between atoms: N_2  and  C_3
REMARK    3  A    between atoms: C_3  and  C_4
REMARK                            x       y       z     vdW  Elec       q    Type
REMARK                         _______ _______ _______ _____ _____    ______ ____
ROOT
ATOM      1  C   UNL     1       3.330   3.614   0.174  0.00  0.00    +0.131 C 
ATOM      2  N   UNL     1       3.452   2.165   0.001  0.00  0.00    -0.314 N 
ATOM      3  C   UNL     1       2.316   1.371  -0.018  0.00  0.00    +0.128 A 
ATOM      4  C   UNL     1       2.424  -0.019  -0.077  0.00  0.00    +0.084 A 
ATOM      5  C   UNL     1       1.264  -0.770  -0.095  0.00  0.00    +0.136 A 
ATOM      6  N   UNL     1       0.091  -0.153  -0.055  0.00  0.00    -0.203 NA
ATOM      7  C   UNL     1       0.019   1.169   0.001  0.00  0.00    +0.216 A 
ATOM      8  N   UNL     1       1.107   1.924   0.020  0.00  0.00    -0.200 NA
ATOM      9  N   UNL     1      -1.224   1.776   0.035  0.00  0.00    -0.327 N 
ATOM     10 CL   UNL     1       1.341  -2.503  -0.168  0.00  0.00    -0.062 Cl
ATOM     11  H   UNL     1      -1.299   2.873   0.082  0.00  0.00    +0.145 HD
ATOM     12  H   UNL     1      -2.137   1.163   0.016  0.00  0.00    +0.145 HD
ENDROOT
BRANCH   2  13
ATOM     13  C   UNL     1       4.775   1.553  -0.151  0.00  0.00    +0.142 C 
BRANCH  13  14
ATOM     14  C   UNL     1       5.083   1.382  -1.616  0.00  0.00    -0.012 A 
ATOM     15  C   UNL     1       4.217   1.886  -2.568  0.00  0.00    +0.006 A 
ATOM     16  C   UNL     1       4.502   1.732  -3.912  0.00  0.00    +0.000 A 
ATOM     17  C   UNL     1       5.648   1.066  -4.305  0.00  0.00    +0.001 A 
ATOM     18  C   UNL     1       6.511   0.557  -3.354  0.00  0.00    +0.020 A 
ATOM     19  C   UNL     1       6.229   0.715  -2.008  0.00  0.00    +0.046 A 
ATOM     20 CL   UNL     1       7.314   0.075  -0.813  0.00  0.00    -0.083 Cl
ENDBRANCH  13  14
ENDBRANCH   2  13
TORSDOF 2
