REMARK  Name = ZINC60241938
REMARK  6 active torsions:
REMARK  status: ('A' for Active; 'I' for Inactive)
REMARK    1  A    between atoms: C_2  and  C_3
REMARK    2  A    between atoms: C_3  and  N_4
REMARK    3  A    between atoms: N_4  and  S_5
REMARK    4  A    between atoms: S_5  and  C_8
REMARK    5  A    between atoms: C_12  and  C_14
REMARK    6  A    between atoms: C_24  and  C_26
REMARK                            x       y       z     vdW  Elec       q    Type
REMARK                         _______ _______ _______ _____ _____    ______ ____
ROOT
ATOM      1  C   UNL     1      -6.436  -1.050  -3.925  0.00  0.00    +0.252 C 
ATOM      2  O   UNL     1      -5.809  -1.288  -4.939  0.00  0.00    -0.270 OA
ATOM      3  N   UNL     1      -7.695  -0.577  -4.007  0.00  0.00    -0.255 N 
ATOM      4  C   UNL     1      -8.399  -0.374  -5.198  0.00  0.00    +0.041 A 
ATOM      5  C   UNL     1      -7.992  -0.598  -6.515  0.00  0.00    +0.024 A 
ATOM      6  C   UNL     1      -8.848  -0.329  -7.561  0.00  0.00    +0.002 A 
ATOM      7  C   UNL     1     -10.116   0.165  -7.314  0.00  0.00    +0.000 A 
ATOM      8  C   UNL     1     -10.525   0.389  -6.013  0.00  0.00    +0.005 A 
ATOM      9  C   UNL     1      -9.671   0.121  -4.961  0.00  0.00    -0.024 A 
ATOM     10  C   UNL     1      -9.859   0.271  -3.468  0.00  0.00    +0.069 C 
ATOM     11  C   UNL     1      -8.529  -0.206  -2.861  0.00  0.00    +0.171 C 
ENDROOT
BRANCH   1  16
ATOM     12  C   UNL     1      -4.552  -2.675  -1.111  0.00  0.00    +0.106 A 
ATOM     13  C   UNL     1      -4.660  -1.711  -0.124  0.00  0.00    +0.028 A 
ATOM     14  C   UNL     1      -5.343  -0.534  -0.369  0.00  0.00    +0.003 A 
ATOM     15  C   UNL     1      -5.923  -0.313  -1.602  0.00  0.00    +0.013 A 
ATOM     16  C   UNL     1      -5.817  -1.280  -2.603  0.00  0.00    +0.039 A 
ATOM     17  C   UNL     1      -5.121  -2.464  -2.350  0.00  0.00    +0.041 A 
BRANCH  12  18
ATOM     18  S   UNL     1      -3.680  -4.171  -0.788  0.00  0.00    +0.059 S 
ATOM     19  O   UNL     1      -4.184  -5.140  -1.698  0.00  0.00    -0.153 OA
ATOM     20  O   UNL     1      -3.708  -4.361   0.620  0.00  0.00    -0.153 OA
BRANCH  18  21
ATOM     21  N   UNL     1      -2.097  -3.914  -1.200  0.00  0.00    -0.186 NA
ATOM     22  H   UNL     1      -1.700  -4.409  -1.933  0.00  0.00    +0.148 HD
BRANCH  21  23
ATOM     23  C   UNL     1      -1.296  -2.938  -0.456  0.00  0.00    +0.132 C 
BRANCH  23  25
ATOM     24  C   UNL     1       0.890  -2.154  -1.211  0.00  0.00    +0.005 C 
ATOM     25  C   UNL     1       0.165  -3.149  -0.763  0.00  0.00    -0.018 C 
ENDBRANCH  23  25
ENDBRANCH  21  23
ENDBRANCH  18  21
ENDBRANCH  12  18
ENDBRANCH   1  16
BRANCH  11  26
ATOM     26  C   UNL     1      -8.757  -1.402  -1.972  0.00  0.00    +0.232 C 
ATOM     27  O   UNL     1      -8.270  -2.474  -2.261  0.00  0.00    -0.274 OA
ATOM     28  N   UNL     1      -9.502  -1.279  -0.856  0.00  0.00    -0.328 N 
ATOM     29  H   UNL     1      -9.892  -0.421  -0.625  0.00  0.00    +0.145 HD
ATOM     30  H   UNL     1      -9.649  -2.048  -0.283  0.00  0.00    +0.145 HD
ENDBRANCH  11  26
TORSDOF 6
