REMARK  Name = ZINC39725196
REMARK  4 active torsions:
REMARK  status: ('A' for Active; 'I' for Inactive)
REMARK    1  A    between atoms: C_9  and  C_12
REMARK    2  A    between atoms: N_14  and  C_15
REMARK    3  A    between atoms: N_14  and  C_22
REMARK    4  A    between atoms: C_15  and  C_16
REMARK                            x       y       z     vdW  Elec       q    Type
REMARK                         _______ _______ _______ _____ _____    ______ ____
ROOT
ATOM      1  C   UNL     1       0.024  -3.168  -0.449  0.00  0.00    +0.246 C 
ATOM      2  O   UNL     1       0.937  -2.366  -0.453  0.00  0.00    -0.270 OA
ATOM      3  N   UNL     1       0.193  -4.379   0.120  0.00  0.00    -0.268 N 
ENDROOT
BRANCH   1  12
ATOM      4  C   UNL     1      -3.288  -1.788   1.847  0.00  0.00    +0.001 A 
ATOM      5  C   UNL     1      -4.496  -1.468   1.214  0.00  0.00    +0.002 A 
ATOM      6  C   UNL     1      -4.671  -1.575  -0.126  0.00  0.00    +0.024 A 
ATOM      7  C   UNL     1      -3.618  -2.025  -0.952  0.00  0.00    +0.041 A 
ATOM      8  N   UNL     1      -3.797  -2.128  -2.261  0.00  0.00    -0.285 N 
ATOM      9  C   UNL     1      -2.852  -2.543  -3.095  0.00  0.00    +0.222 C 
ATOM     10  O   UNL     1      -3.082  -2.614  -4.287  0.00  0.00    -0.275 OA
ATOM     11  C   UNL     1      -1.491  -2.928  -2.563  0.00  0.00    +0.137 C 
ATOM     12  C   UNL     1      -1.271  -2.816  -1.066  0.00  0.00    +0.032 C 
ATOM     13  C   UNL     1      -2.333  -2.370  -0.307  0.00  0.00    +0.005 A 
ATOM     14  C   UNL     1      -2.216  -2.229   1.144  0.00  0.00    +0.010 A 
ATOM     15  H   UNL     1      -4.662  -1.887  -2.627  0.00  0.00    +0.155 HD
ENDBRANCH   1  12
BRANCH   3  16
ATOM     16  C   UNL     1      -0.859  -5.392   0.010  0.00  0.00    +0.227 C 
ATOM     17  N   UNL     1      -2.168  -4.838   0.381  0.00  0.00    -0.316 N 
ATOM     18  C   UNL     1      -3.161  -4.819  -0.597  0.00  0.00    +0.043 A 
ATOM     19  C   UNL     1      -4.468  -4.330  -0.427  0.00  0.00    +0.024 A 
ATOM     20  C   UNL     1      -5.378  -4.355  -1.459  0.00  0.00    +0.002 A 
ATOM     21  C   UNL     1      -5.038  -4.862  -2.699  0.00  0.00    +0.001 A 
ATOM     22  C   UNL     1      -3.757  -5.351  -2.895  0.00  0.00    +0.016 A 
ATOM     23  C   UNL     1      -2.848  -5.325  -1.862  0.00  0.00    +0.032 A 
ATOM     24  S   UNL     1      -1.152  -5.854  -1.745  0.00  0.00    -0.081 S 
ATOM     25  H   UNL     1      -2.336  -4.499   1.274  0.00  0.00    +0.149 HD
ENDBRANCH   3  16
BRANCH   3  26
ATOM     26  C   UNL     1       1.428  -4.681   0.847  0.00  0.00    +0.142 C 
BRANCH  26  27
ATOM     27  C   UNL     1       1.294  -4.210   2.297  0.00  0.00    +0.136 C 
ATOM     28  C   UNL     1       2.592  -4.518   3.085  0.00  0.00    +0.035 C 
ATOM     29  C   UNL     1       2.513  -3.453   4.212  0.00  0.00    +0.031 C 
ATOM     30  C   UNL     1       1.843  -2.263   3.491  0.00  0.00    +0.160 C 
ATOM     31  O   UNL     1       1.152  -2.782   2.347  0.00  0.00    -0.375 OA
ENDBRANCH  26  27
ENDBRANCH   3  26
TORSDOF 4
