REMARK  Name = ZINC02972122
REMARK  3 active torsions:
REMARK  status: ('A' for Active; 'I' for Inactive)
REMARK    1  A    between atoms: N_9  and  C_14
REMARK    2  A    between atoms: C_14  and  C_15
REMARK    3  A    between atoms: C_18  and  C_21
REMARK                            x       y       z     vdW  Elec       q    Type
REMARK                         _______ _______ _______ _____ _____    ______ ____
ROOT
ATOM      1  C   UNL     1       2.695  -4.661  -1.497  0.00  0.00    +0.009 C 
ATOM      2  C   UNL     1       3.943  -4.152  -2.221  0.00  0.00    +0.006 C 
ATOM      3  C   UNL     1       3.943  -4.668  -3.662  0.00  0.00    +0.013 C 
ATOM      4  C   UNL     1       3.946  -6.198  -3.655  0.00  0.00    +0.075 C 
ATOM      5  C   UNL     1       2.698  -6.707  -2.930  0.00  0.00    +0.013 C 
ATOM      6  C   UNL     1       2.698  -6.191  -1.490  0.00  0.00    +0.006 C 
ENDROOT
BRANCH   4   7
ATOM      7  C   UNL     1       3.945  -6.707  -5.074  0.00  0.00    +0.219 C 
ATOM      8  O   UNL     1       3.348  -6.098  -5.936  0.00  0.00    -0.275 OA
ATOM      9  N   UNL     1       4.609  -7.838  -5.384  0.00  0.00    -0.298 N 
ATOM     10  C   UNL     1       5.228  -8.655  -4.331  0.00  0.00    +0.126 C 
ATOM     11  C   UNL     1       4.690 -10.087  -4.441  0.00  0.00    +0.125 C 
ATOM     12  N   UNL     1       4.807 -10.526  -5.838  0.00  0.00    -0.314 N 
ATOM     13  C   UNL     1       4.188  -9.710  -6.891  0.00  0.00    +0.125 C 
ATOM     14  C   UNL     1       4.721  -8.281  -6.781  0.00  0.00    +0.126 C 
ATOM     15  C   UNL     1       5.491 -11.693  -6.158  0.00  0.00    +0.099 A 
ATOM     16  C   UNL     1       5.965 -12.516  -5.141  0.00  0.00    +0.042 A 
ATOM     17  C   UNL     1       6.644 -13.674  -5.474  0.00  0.00    +0.005 A 
ATOM     18  C   UNL     1       6.828 -13.971  -6.818  0.00  0.00    +0.018 A 
ATOM     19  C   UNL     1       6.331 -13.110  -7.775  0.00  0.00    +0.084 A 
ATOM     20  N   UNL     1       5.682 -12.014  -7.429  0.00  0.00    -0.350 N 
ATOM     21  H   UNL     1       5.340 -11.428  -8.121  0.00  0.00    +0.166 HD
ENDBRANCH   4   7
BRANCH   1  22
ATOM     22  C   UNL     1       2.695  -4.144  -0.057  0.00  0.00    +0.131 C 
BRANCH  22  31
ATOM     23  C   UNL     1      -0.015   1.381  -0.007  0.00  0.00    +0.001 A 
ATOM     24  C   UNL     1       1.161   2.114  -0.046  0.00  0.00    +0.002 A 
ATOM     25  C   UNL     1       2.386   1.477  -0.079  0.00  0.00    +0.026 A 
ATOM     26  C   UNL     1       2.442   0.091  -0.073  0.00  0.00    +0.053 A 
ATOM     27  C   UNL     1       1.249  -0.652  -0.034  0.00  0.00    +0.063 A 
ATOM     28  C   UNL     1       0.020   0.003  -0.000  0.00  0.00    +0.015 A 
ATOM     29  C   UNL     1       1.345  -2.123  -0.028  0.00  0.00    +0.262 A 
ATOM     30  O   UNL     1       0.344  -2.813   0.005  0.00  0.00    -0.267 OA
ATOM     31  N   UNL     1       2.573  -2.685  -0.061  0.00  0.00    -0.288 N 
ATOM     32  C   UNL     1       3.683  -1.931  -0.098  0.00  0.00    +0.161 A 
ATOM     33  S   UNL     1       5.204  -2.715  -0.139  0.00  0.00    -0.013 S 
ATOM     34  N   UNL     1       3.651  -0.587  -0.105  0.00  0.00    -0.335 N 
ATOM     35  H   UNL     1       4.481  -0.087  -0.133  0.00  0.00    +0.168 HD
ENDBRANCH  22  31
ENDBRANCH   1  22
TORSDOF 3
