REMARK  Name = ZINC02129948
REMARK  7 active torsions:
REMARK  status: ('A' for Active; 'I' for Inactive)
REMARK    1  A    between atoms: C_1  and  C_2
REMARK    2  A    between atoms: N_8  and  C_9
REMARK    3  A    between atoms: C_10  and  C_20
REMARK    4  A    between atoms: C_12  and  C_16
REMARK    5  A    between atoms: C_13  and  N_15
REMARK    6  A    between atoms: C_16  and  O_18
REMARK    7  A    between atoms: O_18  and  C_19
REMARK                            x       y       z     vdW  Elec       q    Type
REMARK                         _______ _______ _______ _____ _____    ______ ____
ROOT
ATOM      1  C   UNL     1       5.487   2.713  -0.173  0.00  0.00    +0.064 C 
ATOM      2  C   UNL     1       4.021   2.374  -0.073  0.00  0.00    +0.022 A 
ATOM      3  C   UNL     1       3.166   2.832  -1.012  0.00  0.00    +0.068 A 
ATOM      4  C   UNL     1       1.794   2.518  -0.923  0.00  0.00    +0.141 A 
ATOM      5  C   UNL     1       1.354   1.744   0.129  0.00  0.00    +0.071 A 
ATOM      6  C   UNL     1       2.277   1.291   1.080  0.00  0.00    +0.259 A 
ATOM      7  O   UNL     1       1.901   0.605   2.017  0.00  0.00    -0.267 OA
ATOM      8  N   UNL     1       3.579   1.612   0.961  0.00  0.00    -0.315 N 
ATOM      9  C   UNL     1       4.534   1.132   1.963  0.00  0.00    +0.152 C 
ATOM     10  C   UNL     1      -0.101   1.385   0.263  0.00  0.00    +0.100 C 
ATOM     11  C   UNL     1      -0.815   1.624  -1.038  0.00  0.00    +0.105 C 
ATOM     12  C   UNL     1      -0.264   2.392  -2.012  0.00  0.00    +0.195 C 
ATOM     13  O   UNL     1       0.938   2.974  -1.862  0.00  0.00    -0.441 OA
ENDROOT
BRANCH  10  14
ATOM     14  C   UNL     1      -0.728   2.235   1.338  0.00  0.00    -0.035 A 
ATOM     15  C   UNL     1      -0.732   3.612   1.215  0.00  0.00    +0.004 A 
ATOM     16  C   UNL     1      -1.312   4.392   2.199  0.00  0.00    +0.000 A 
ATOM     17  C   UNL     1      -1.878   3.795   3.309  0.00  0.00    +0.000 A 
ATOM     18  C   UNL     1      -1.870   2.418   3.434  0.00  0.00    +0.000 A 
ATOM     19  C   UNL     1      -1.294   1.638   2.449  0.00  0.00    +0.004 A 
ENDBRANCH  10  14
BRANCH  12  20
ATOM     20  N   UNL     1      -0.953   2.581  -3.180  0.00  0.00    -0.329 N 
ATOM     21  H   UNL     1      -1.425   1.839  -3.590  0.00  0.00    +0.145 HD
ATOM     22  H   UNL     1      -0.969   3.456  -3.597  0.00  0.00    +0.145 HD
ENDBRANCH  12  20
BRANCH  11  23
ATOM     23  C   UNL     1      -2.073   1.041  -1.250  0.00  0.00    +0.341 C 
ATOM     24  O   UNL     1      -2.714   1.321  -2.248  0.00  0.00    -0.245 OA
BRANCH  23  25
ATOM     25  O   UNL     1      -2.575   0.170  -0.348  0.00  0.00    -0.465 OA
ATOM     26  C   UNL     1      -3.861  -0.386  -0.628  0.00  0.00    +0.280 C 
ENDBRANCH  23  25
ENDBRANCH  11  23
TORSDOF 4
