REMARK  Name = ZINC08863600
REMARK  6 active torsions:
REMARK  status: ('A' for Active; 'I' for Inactive)
REMARK    1  A    between atoms: C_1  and  N_2
REMARK    2  A    between atoms: N_2  and  C_3
REMARK    3  A    between atoms: N_2  and  C_4
REMARK    4  A    between atoms: C_7  and  C_10
REMARK    5  A    between atoms: C_15  and  C_17
REMARK    6  A    between atoms: C_28  and  C_32
REMARK                            x       y       z     vdW  Elec       q    Type
REMARK                         _______ _______ _______ _____ _____    ______ ____
ROOT
ATOM      1  C   UNL     1       2.340   2.872   5.841  0.00  0.00    +0.041 C 
ATOM      2  C   UNL     1       1.650   3.217   6.985  0.00  0.00    +0.129 C 
ATOM      3  C   UNL     1       2.190   3.303   8.353  0.00  0.00    +0.276 C 
ATOM      4  O   UNL     1       3.333   3.087   8.709  0.00  0.00    -0.268 OA
ATOM      5  N   UNL     1       1.148   3.676   9.129  0.00  0.00    -0.196 N 
ATOM      6  C   UNL     1       0.037   3.808   8.323  0.00  0.00    +0.142 C 
ATOM      7  N   UNL     1       0.329   3.541   7.079  0.00  0.00    -0.226 NA
ATOM      8  C   UNL     1       1.189   3.886  10.499  0.00  0.00    +0.174 A 
ATOM      9  N   UNL     1       0.248   4.347  11.292  0.00  0.00    -0.224 NA
ATOM     10  C   UNL     1       0.421   4.497  12.614  0.00  0.00    +0.080 A 
ATOM     11  C   UNL     1      -0.514   4.976  13.566  0.00  0.00    +0.030 A 
ATOM     12  C   UNL     1      -0.186   5.077  14.877  0.00  0.00    +0.017 A 
ATOM     13  C   UNL     1       1.085   4.713  15.345  0.00  0.00    +0.064 A 
ATOM     14  C   UNL     1       2.032   4.235  14.433  0.00  0.00    +0.032 A 
ATOM     15  C   UNL     1       1.697   4.135  13.110  0.00  0.00    +0.042 A 
ATOM     16  S   UNL     1       2.538   3.604  11.638  0.00  0.00    -0.051 S 
ENDROOT
BRANCH   1  20
ATOM     17  C   UNL     1       0.427   3.074   2.077  0.00  0.00    +0.029 A 
ATOM     18  C   UNL     1       1.786   2.777   2.150  0.00  0.00    +0.023 A 
ATOM     19  C   UNL     1       2.410   2.716   3.362  0.00  0.00    +0.010 A 
ATOM     20  C   UNL     1       1.678   2.942   4.538  0.00  0.00    -0.023 A 
ATOM     21  C   UNL     1       0.308   3.235   4.459  0.00  0.00    +0.010 A 
ATOM     22  C   UNL     1      -0.305   3.299   3.240  0.00  0.00    +0.023 A 
BRANCH  17  24
ATOM     23  C   UNL     1      -1.632   3.447   0.760  0.00  0.00    +0.129 C 
ATOM     24  N   UNL     1      -0.202   3.141   0.839  0.00  0.00    -0.336 N 
ATOM     25  C   UNL     1       0.566   2.905  -0.387  0.00  0.00    +0.129 C 
ENDBRANCH  17  24
ENDBRANCH   1  20
BRANCH   6  26
ATOM     26  C   UNL     1      -1.304   4.198   8.804  0.00  0.00    +0.016 A 
ATOM     27  C   UNL     1      -1.804   3.669   9.996  0.00  0.00    +0.011 A 
ATOM     28  C   UNL     1      -3.055   4.042  10.442  0.00  0.00    +0.001 A 
ATOM     29  C   UNL     1      -3.820   4.928   9.704  0.00  0.00    +0.000 A 
ATOM     30  C   UNL     1      -3.333   5.452   8.519  0.00  0.00    +0.001 A 
ATOM     31  C   UNL     1      -2.082   5.092   8.065  0.00  0.00    +0.011 A 
ENDBRANCH   6  26
BRANCH  13  32
ATOM     32  C   UNL     1       1.418   4.832  16.776  0.00  0.00    +0.387 C 
ATOM     33  O   UNL     1       2.522   4.514  17.171  0.00  0.00    -0.241 OA
ATOM     34  O   UNL     1       0.497   5.293  17.645  0.00  0.00    -0.241 OA
ENDBRANCH  13  32
TORSDOF 4
