REMARK  Name = ZINC13142122
REMARK  7 active torsions:
REMARK  status: ('A' for Active; 'I' for Inactive)
REMARK    1  A    between atoms: C_4  and  O_29
REMARK    2  A    between atoms: C_5  and  C_7
REMARK    3  A    between atoms: N_9  and  N_10
REMARK    4  A    between atoms: C_11  and  C_12
REMARK    5  A    between atoms: N_14  and  C_18
REMARK    6  A    between atoms: C_18  and  C_19
REMARK    7  A    between atoms: C_23  and  C_25
REMARK                            x       y       z     vdW  Elec       q    Type
REMARK                         _______ _______ _______ _____ _____    ______ ____
ROOT
ATOM      1  C   UNL     1      -0.966  -6.393  -0.026  0.00  0.00    +0.072 A 
ATOM      2  C   UNL     1      -2.003  -7.270  -0.027  0.00  0.00    +0.128 A 
ATOM      3  N   UNL     1      -1.685  -8.589  -0.037  0.00  0.00    -0.288 N 
ATOM      4  C   UNL     1      -0.388  -8.958  -0.045  0.00  0.00    +0.293 A 
ATOM      5  O   UNL     1       0.075 -10.084  -0.055  0.00  0.00    -0.259 OA
ATOM      6  S   UNL     1       0.438  -7.493  -0.047  0.00  0.00    -0.024 S 
ATOM      7 CL   UNL     1      -3.653  -6.731  -0.015  0.00  0.00    -0.063 Cl
ENDROOT
BRANCH   1   9
ATOM      8  N   UNL     1       0.121  -4.255  -0.024  0.00  0.00    -0.187 NA
ATOM      9  C   UNL     1      -0.993  -4.926  -0.017  0.00  0.00    +0.148 C 
BRANCH   8  12
ATOM     10  C   UNL     1       1.250  -2.159  -0.023  0.00  0.00    +0.267 C 
ATOM     11  O   UNL     1       2.315  -2.747  -0.037  0.00  0.00    -0.268 OA
ATOM     12  N   UNL     1       0.096  -2.854  -0.015  0.00  0.00    -0.203 N 
ATOM     13  H   UNL     1      -0.753  -2.385  -0.004  0.00  0.00    +0.178 HD
BRANCH  10  18
ATOM     14  C   UNL     1      -0.017   1.374   0.010  0.00  0.00    +0.001 A 
ATOM     15  C   UNL     1       1.170   2.089   0.002  0.00  0.00    +0.004 A 
ATOM     16  C   UNL     1       2.383   1.429  -0.013  0.00  0.00    +0.046 A 
ATOM     17  C   UNL     1       2.421   0.043  -0.021  0.00  0.00    +0.129 A 
ATOM     18  C   UNL     1       1.222  -0.684  -0.014  0.00  0.00    +0.080 A 
ATOM     19  C   UNL     1       0.002  -0.004   0.002  0.00  0.00    +0.017 A 
BRANCH  17  20
ATOM     20  O   UNL     1       3.612  -0.606  -0.037  0.00  0.00    -0.506 OA
ATOM     21  H   UNL     1       3.966  -0.799   0.842  0.00  0.00    +0.292 HD
ENDBRANCH  17  20
ENDBRANCH  10  18
ENDBRANCH   8  12
ENDBRANCH   1   9
BRANCH   3  22
ATOM     22  C   UNL     1      -2.742  -9.604  -0.037  0.00  0.00    +0.162 C 
BRANCH  22  23
ATOM     23  C   UNL     1      -3.111  -9.943  -1.458  0.00  0.00    -0.027 A 
ATOM     24  C   UNL     1      -4.108  -9.229  -2.102  0.00  0.00    +0.005 A 
ATOM     25  C   UNL     1      -4.454  -9.533  -3.406  0.00  0.00    +0.001 A 
ATOM     26  C   UNL     1      -3.808 -10.552  -4.075  0.00  0.00    +0.015 A 
ATOM     27  C   UNL     1      -2.801 -11.276  -3.433  0.00  0.00    +0.063 A 
ATOM     28  C   UNL     1      -2.453 -10.959  -2.117  0.00  0.00    +0.020 A 
BRANCH  27  29
ATOM     29  C   UNL     1      -2.105 -12.367  -4.141  0.00  0.00    +0.387 C 
ATOM     30  O   UNL     1      -2.409 -12.639  -5.294  0.00  0.00    -0.241 OA
ATOM     31  O   UNL     1      -1.224 -13.000  -3.576  0.00  0.00    -0.241 OA
ENDBRANCH  27  29
ENDBRANCH  22  23
ENDBRANCH   3  22
TORSDOF 7
