REMARK  Name = ZINC36877092
REMARK  7 active torsions:
REMARK  status: ('A' for Active; 'I' for Inactive)
REMARK    1  A    between atoms: C_1  and  C_2
REMARK    2  A    between atoms: C_2  and  C_3
REMARK    3  A    between atoms: C_2  and  C_4
REMARK    4  A    between atoms: C_4  and  C_6
REMARK    5  A    between atoms: C_4  and  N_22
REMARK    6  A    between atoms: C_9  and  C_12
REMARK    7  A    between atoms: C_16  and  N_18
REMARK                            x       y       z     vdW  Elec       q    Type
REMARK                         _______ _______ _______ _____ _____    ______ ____
ROOT
ATOM      1  C   UNL     1      -1.413  -2.041   0.005  0.00  0.00    +0.093 A 
ATOM      2  N   UNL     1      -2.029  -2.838   0.904  0.00  0.00    -0.343 N 
ATOM      3  H   UNL     1      -2.558  -2.549   1.664  0.00  0.00    +0.167 HD
ATOM      4  C   UNL     1      -1.764  -4.139   0.539  0.00  0.00    +0.066 A 
ATOM      5  C   UNL     1      -0.990  -4.077  -0.579  0.00  0.00    +0.139 A 
ATOM      6  N   UNL     1      -0.802  -2.786  -0.876  0.00  0.00    -0.242 NA
ENDROOT
BRANCH   4   7
ATOM      7  C   UNL     1      -2.229  -5.363   1.226  0.00  0.00    +0.002 A 
ATOM      8  C   UNL     1      -3.027  -5.266   2.367  0.00  0.00    +0.011 A 
ATOM      9  C   UNL     1      -3.457  -6.411   3.005  0.00  0.00    +0.023 A 
ATOM     10  C   UNL     1      -3.099  -7.656   2.514  0.00  0.00    +0.071 A 
ATOM     11  C   UNL     1      -2.307  -7.758   1.383  0.00  0.00    +0.145 A 
ATOM     12  C   UNL     1      -1.876  -6.620   0.734  0.00  0.00    +0.044 A 
ATOM     13 CL   UNL     1      -3.643  -9.093   3.322  0.00  0.00    -0.081 Cl
BRANCH  11  14
ATOM     14  N   UNL     1      -1.928  -9.092   0.866  0.00  0.00    +0.058 N 
ATOM     15  O   UNL     1      -1.236  -9.184  -0.122  0.00  0.00    -0.126 OA
ATOM     16  O   UNL     1      -2.309 -10.091   1.431  0.00  0.00    -0.126 OA
ENDBRANCH  11  14
ENDBRANCH   4   7
BRANCH   1  17
ATOM     17  C   UNL     1      -1.433  -0.534   0.013  0.00  0.00    -0.005 C 
BRANCH  17  18
ATOM     18  N   UNL     1      -2.121  -0.060   1.222  0.00  0.00    +0.385 N 
ATOM     19  H   UNL     1      -1.633  -0.394   2.039  0.00  0.00    -0.089 HD
ATOM     20  H   UNL     1      -2.135   0.949   1.227  0.00  0.00    -0.089 HD
ATOM     21  H   UNL     1      -3.067  -0.409   1.229  0.00  0.00    -0.089 HD
ENDBRANCH  17  18
BRANCH  17  23
ATOM     22  C   UNL     1      -0.019   1.526   0.010  0.00  0.00    +0.006 C 
ATOM     23  C   UNL     1       0.002  -0.004   0.002  0.00  0.00    -0.025 C 
ATOM     24  C   UNL     1       0.742  -0.511   1.242  0.00  0.00    +0.006 C 
ENDBRANCH  17  23
ENDBRANCH   1  17
TORSDOF 5
