REMARK  Name = ZINC16010065
REMARK  7 active torsions:
REMARK  status: ('A' for Active; 'I' for Inactive)
REMARK    1  A    between atoms: C_1  and  C_2
REMARK    2  A    between atoms: C_4  and  N_34
REMARK    3  A    between atoms: C_7  and  N_8
REMARK    4  A    between atoms: C_13  and  C_30
REMARK    5  A    between atoms: C_30  and  C_31
REMARK    6  A    between atoms: C_31  and  S_32
REMARK    7  A    between atoms: S_32  and  C_33
REMARK                            x       y       z     vdW  Elec       q    Type
REMARK                         _______ _______ _______ _____ _____    ______ ____
ROOT
ATOM      1  N   UNL     1      -0.689   4.159  -2.791  0.00  0.00    -0.210 N 
ATOM      2  C   UNL     1      -1.340   4.771  -1.743  0.00  0.00    +0.232 C 
ATOM      3  O   UNL     1      -2.313   5.493  -1.788  0.00  0.00    -0.274 OA
ATOM      4  C   UNL     1      -0.592   4.373  -0.567  0.00  0.00    +0.107 C 
ATOM      5  C   UNL     1      -0.468   4.603   0.873  0.00  0.00    +0.068 C 
ATOM      6  N   UNL     1       0.945   4.225   1.221  0.00  0.00    -0.295 NA
ATOM      7  C   UNL     1       1.499   3.549   0.011  0.00  0.00    +0.136 C 
ATOM      8  C   UNL     1       0.880   4.330  -1.128  0.00  0.00    +0.123 C 
ATOM      9  C   UNL     1       0.550   3.697  -2.443  0.00  0.00    +0.233 C 
ATOM     10  O   UNL     1       1.243   2.928  -3.074  0.00  0.00    -0.274 OA
ATOM     11  C   UNL     1       1.163   2.090   0.002  0.00  0.00    +0.003 A 
ATOM     12  C   UNL     1      -0.017   1.379   0.010  0.00  0.00    +0.008 A 
ATOM     13  C   UNL     1       0.002  -0.004   0.002  0.00  0.00    +0.000 A 
ATOM     14  C   UNL     1       1.211  -0.676  -0.015  0.00  0.00    +0.002 A 
ATOM     15  C   UNL     1       2.396   0.029  -0.022  0.00  0.00    +0.023 A 
ATOM     16  C   UNL     1       2.386   1.421  -0.012  0.00  0.00    +0.039 A 
ATOM     17  N   UNL     1       3.439   2.340  -0.011  0.00  0.00    -0.283 N 
ATOM     18  C   UNL     1       3.001   3.614   0.010  0.00  0.00    +0.243 C 
ATOM     19  O   UNL     1       3.684   4.616   0.024  0.00  0.00    -0.273 OA
ATOM     20  H   UNL     1       1.516   5.132   1.467  0.00  0.00    +0.123 HD
ATOM     21  H   UNL     1       4.479   1.983  -0.026  0.00  0.00    +0.155 HD
ENDROOT
BRANCH   1  28
ATOM     22  C   UNL     1      -0.208   6.231  -4.683  0.00  0.00    +0.046 C 
ATOM     23  C   UNL     1      -1.027   5.013  -5.027  0.00  0.00    -0.026 A 
ATOM     24  C   UNL     1      -1.568   4.878  -6.290  0.00  0.00    +0.038 A 
ATOM     25  C   UNL     1      -2.318   3.760  -6.607  0.00  0.00    +0.127 A 
ATOM     26  C   UNL     1      -2.529   2.774  -5.660  0.00  0.00    +0.034 A 
ATOM     27  C   UNL     1      -1.986   2.901  -4.397  0.00  0.00    +0.026 A 
ATOM     28  C   UNL     1      -1.237   4.025  -4.074  0.00  0.00    +0.047 A 
BRANCH  25  29
ATOM     29  N   UNL     1      -2.897   3.619  -7.962  0.00  0.00    +0.056 N 
ATOM     30  O   UNL     1      -2.712   4.486  -8.797  0.00  0.00    -0.126 OA
ATOM     31  O   UNL     1      -3.558   2.635  -8.242  0.00  0.00    -0.126 OA
ENDBRANCH  25  29
ENDBRANCH   1  28
BRANCH   5  32
ATOM     32  C   UNL     1      -1.456   3.719   1.637  0.00  0.00    +0.030 C 
BRANCH  32  33
ATOM     33  C   UNL     1      -1.400   4.061   3.127  0.00  0.00    +0.070 C 
BRANCH  33  34
ATOM     34  S   UNL     1      -2.571   3.013   4.032  0.00  0.00    -0.164 S 
ATOM     35  C   UNL     1      -2.385   3.537   5.759  0.00  0.00    +0.084 C 
ENDBRANCH  33  34
ENDBRANCH  32  33
ENDBRANCH   5  32
TORSDOF 5
