REMARK  Name = ZINC13858377
REMARK  4 active torsions:
REMARK  status: ('A' for Active; 'I' for Inactive)
REMARK    1  A    between atoms: C_3  and  C_9
REMARK    2  A    between atoms: C_9  and  O_10
REMARK    3  A    between atoms: O_10  and  N_11
REMARK    4  A    between atoms: N_13  and  C_14
REMARK                            x       y       z     vdW  Elec       q    Type
REMARK                         _______ _______ _______ _____ _____    ______ ____
ROOT
ATOM      1  N   UNL     1       4.545   4.406  -0.020  0.00  0.00    -0.254 N 
ATOM      2  C   UNL     1       4.418   5.763  -0.012  0.00  0.00    +0.220 C 
ATOM      3  N   UNL     1       5.483   6.519  -0.019  0.00  0.00    -0.216 NA
ATOM      4  H   UNL     1       5.427   4.001  -0.031  0.00  0.00    +0.195 HD
ENDROOT
BRANCH   3   5
ATOM      5  C   UNL     1       5.356   7.876  -0.011  0.00  0.00    +0.166 A 
ATOM      6  C   UNL     1       6.513   8.711  -0.025  0.00  0.00    +0.052 A 
ATOM      7  C   UNL     1       7.918   8.350  -0.048  0.00  0.00    +0.021 A 
ATOM      8  C   UNL     1       8.844   9.322  -0.057  0.00  0.00    +0.048 A 
ATOM      9  S   UNL     1       7.877  10.819  -0.036  0.00  0.00    -0.077 S 
ATOM     10  C   UNL     1       6.256  10.100  -0.014  0.00  0.00    +0.113 A 
ATOM     11  N   UNL     1       5.025  10.571   0.008  0.00  0.00    -0.228 NA
ATOM     12  C   UNL     1       3.993   9.749   0.020  0.00  0.00    +0.224 A 
ATOM     13  N   UNL     1       4.153   8.439   0.004  0.00  0.00    -0.216 NA
ENDBRANCH   3   5
BRANCH   1  14
ATOM     14  O   UNL     1       3.390   3.586  -0.013  0.00  0.00    -0.268 OA
BRANCH  14  15
ATOM     15  C   UNL     1       3.671   2.185  -0.023  0.00  0.00    +0.229 C 
BRANCH  15  18
ATOM     16  C   UNL     1      -0.017   1.379   0.010  0.00  0.00    +0.020 A 
ATOM     17  C   UNL     1       1.171   2.087   0.002  0.00  0.00    +0.009 A 
ATOM     18  C   UNL     1       2.377   1.413  -0.013  0.00  0.00    -0.001 A 
ATOM     19  C   UNL     1       2.397   0.029  -0.021  0.00  0.00    +0.048 A 
ATOM     20  C   UNL     1       1.210  -0.679  -0.013  0.00  0.00    +0.040 A 
ATOM     21  C   UNL     1       0.002  -0.004   0.002  0.00  0.00    +0.042 A 
ATOM     22 CL   UNL     1      -1.489  -0.893   0.012  0.00  0.00    -0.083 Cl
ATOM     23 CL   UNL     1       3.913  -0.817  -0.041  0.00  0.00    -0.083 Cl
ENDBRANCH  15  18
ENDBRANCH  14  15
ENDBRANCH   1  14
TORSDOF 4
