REMARK  Name = ZINC33916507
REMARK  6 active torsions:
REMARK  status: ('A' for Active; 'I' for Inactive)
REMARK    1  A    between atoms: C_4  and  O_31
REMARK    2  A    between atoms: C_5  and  C_7
REMARK    3  A    between atoms: N_15  and  C_18
REMARK    4  A    between atoms: C_24  and  C_26
REMARK    5  A    between atoms: C_24  and  C_28
REMARK    6  A    between atoms: C_26  and  O_27
REMARK                            x       y       z     vdW  Elec       q    Type
REMARK                         _______ _______ _______ _____ _____    ______ ____
ROOT
ATOM      1  C   UNL     1       1.227  -2.187  -0.022  0.00  0.00    -0.023 C 
ATOM      2  C   UNL     1       1.314  -2.703  -1.448  0.00  0.00    +0.077 C 
ATOM      3  C   UNL     1      -0.224  -2.699  -1.792  0.00  0.00    +0.088 C 
ATOM      4  C   UNL     1      -0.203  -2.797  -3.230  0.00  0.00    +0.225 C 
ATOM      5  O   UNL     1      -1.001  -3.369  -3.942  0.00  0.00    -0.275 OA
ATOM      6  N   UNL     1       0.916  -2.103  -3.619  0.00  0.00    -0.239 N 
ATOM      7  C   UNL     1       1.765  -1.822  -2.572  0.00  0.00    +0.225 C 
ATOM      8  O   UNL     1       2.680  -1.028  -2.555  0.00  0.00    -0.275 OA
ATOM      9  C   UNL     1      -0.801  -3.381  -0.622  0.00  0.00    +0.071 C 
ATOM     10  N   UNL     1      -0.057  -2.723   0.523  0.00  0.00    +0.397 N 
ATOM     11  H   UNL     1       0.135  -3.408   1.239  0.00  0.00    -0.083 HD
ATOM     12  H   UNL     1      -0.606  -1.970   0.908  0.00  0.00    -0.083 HD
ENDROOT
BRANCH   1  17
ATOM     13  C   UNL     1      -0.014   1.379  -0.087  0.00  0.00    +0.000 A 
ATOM     14  C   UNL     1       1.170   2.088   0.002  0.00  0.00    +0.004 A 
ATOM     15  C   UNL     1       2.374   1.417   0.084  0.00  0.00    +0.045 A 
ATOM     16  C   UNL     1       2.396   0.029   0.076  0.00  0.00    +0.118 A 
ATOM     17  C   UNL     1       1.207  -0.680  -0.013  0.00  0.00    -0.019 A 
ATOM     18  C   UNL     1       0.005  -0.004  -0.095  0.00  0.00    +0.005 A 
BRANCH  16  19
ATOM     19  O   UNL     1       3.580  -0.633   0.156  0.00  0.00    -0.507 OA
ATOM     20  H   UNL     1       3.860  -0.831   1.060  0.00  0.00    +0.292 HD
ENDBRANCH  16  19
ENDBRANCH   1  17
BRANCH   6  21
ATOM     21  C   UNL     1       1.188  -1.712  -5.005  0.00  0.00    +0.084 C 
ATOM     22  C   UNL     1       2.503  -2.344  -5.465  0.00  0.00    +0.023 C 
ATOM     23  C   UNL     1       2.787  -1.935  -6.911  0.00  0.00    +0.002 C 
ATOM     24  C   UNL     1       2.895  -0.411  -6.999  0.00  0.00    +0.000 C 
ATOM     25  C   UNL     1       1.579   0.221  -6.539  0.00  0.00    +0.002 C 
ATOM     26  C   UNL     1       1.296  -0.188  -5.092  0.00  0.00    +0.023 C 
ENDBRANCH   6  21
BRANCH   9  27
ATOM     27  C   UNL     1      -0.530  -4.863  -0.678  0.00  0.00    +0.348 C 
ATOM     28  O   UNL     1       0.104  -5.401   0.213  0.00  0.00    -0.248 OA
ATOM     29  O   UNL     1      -0.944  -5.523  -1.616  0.00  0.00    -0.248 OA
ENDBRANCH   9  27
BRANCH   9  30
ATOM     30  C   UNL     1      -2.302  -3.105  -0.515  0.00  0.00    +0.155 C 
BRANCH  30  31
ATOM     31  O   UNL     1      -2.808  -3.683   0.690  0.00  0.00    -0.396 OA
ATOM     32  H   UNL     1      -3.756  -3.546   0.824  0.00  0.00    +0.209 HD
ENDBRANCH  30  31
ENDBRANCH   9  30
TORSDOF 6
