REMARK  Name = ZINC12225106
REMARK  8 active torsions:
REMARK  status: ('A' for Active; 'I' for Inactive)
REMARK    1  A    between atoms: C_1  and  C_2
REMARK    2  A    between atoms: C_5  and  C_8
REMARK    3  A    between atoms: C_8  and  S_9
REMARK    4  A    between atoms: S_9  and  C_10
REMARK    5  A    between atoms: C_15  and  N_19
REMARK    6  A    between atoms: C_16  and  N_18
REMARK    7  A    between atoms: C_20  and  C_22
REMARK    8  A    between atoms: C_25  and  C_28
REMARK                            x       y       z     vdW  Elec       q    Type
REMARK                         _______ _______ _______ _____ _____    ______ ____
ROOT
ATOM      1  C   UNL     1      -1.726  -0.349   0.026  0.00  0.00    +0.171 A 
ATOM      2  N   UNL     1      -2.163  -1.639   0.008  0.00  0.00    -0.300 N 
ATOM      3  H   UNL     1      -1.522  -2.367  -0.010  0.00  0.00    +0.171 HD
ATOM      4  C   UNL     1      -3.486  -1.907   0.021  0.00  0.00    +0.275 A 
ATOM      5  O   UNL     1      -3.886  -3.061   0.009  0.00  0.00    -0.266 OA
ATOM      6  C   UNL     1      -4.392  -0.837   0.042  0.00  0.00    +0.139 A 
ATOM      7  C   UNL     1      -3.892   0.461   0.054  0.00  0.00    +0.146 A 
ATOM      8  N   UNL     1      -2.569   0.662   0.046  0.00  0.00    -0.207 NA
ENDROOT
BRANCH   6   9
ATOM      9  N   UNL     1      -5.781  -1.072   0.051  0.00  0.00    -0.274 N 
ATOM     10  C   UNL     1      -6.355  -1.756  -0.959  0.00  0.00    +0.248 C 
ATOM     11  O   UNL     1      -5.664  -2.244  -1.833  0.00  0.00    -0.270 OA
ATOM     12  H   UNL     1      -6.324  -0.741   0.783  0.00  0.00    +0.155 HD
BRANCH  10  13
ATOM     13  C   UNL     1      -7.824  -1.913  -1.003  0.00  0.00    +0.037 A 
ATOM     14  C   UNL     1      -8.619  -1.359   0.001  0.00  0.00    +0.013 A 
ATOM     15  C   UNL     1      -9.990  -1.504  -0.049  0.00  0.00    +0.013 A 
ATOM     16  C   UNL     1     -10.576  -2.207  -1.087  0.00  0.00    +0.055 A 
ATOM     17  C   UNL     1      -9.794  -2.763  -2.083  0.00  0.00    +0.013 A 
ATOM     18  C   UNL     1      -8.422  -2.621  -2.047  0.00  0.00    +0.013 A 
BRANCH  16  19
ATOM     19  C   UNL     1     -12.074  -2.367  -1.133  0.00  0.00    +0.417 C 
ATOM     20  F   UNL     1     -12.440  -3.531  -0.448  0.00  0.00    -0.166 F 
ATOM     21  F   UNL     1     -12.680  -1.260  -0.528  0.00  0.00    -0.166 F 
ATOM     22  F   UNL     1     -12.493  -2.458  -2.464  0.00  0.00    -0.166 F 
ENDBRANCH  16  19
ENDBRANCH  10  13
ENDBRANCH   6   9
BRANCH   7  23
ATOM     23  N   UNL     1      -4.758   1.539   0.074  0.00  0.00    -0.341 N 
ATOM     24  H   UNL     1      -4.407   2.443   0.083  0.00  0.00    +0.144 HD
ATOM     25  H   UNL     1      -5.716   1.391   0.080  0.00  0.00    +0.144 HD
ENDBRANCH   7  23
BRANCH   1  26
ATOM     26  S   UNL     1       0.006  -0.026   0.015  0.00  0.00    -0.083 S 
BRANCH  26  27
ATOM     27  C   UNL     1      -0.011   1.784   0.038  0.00  0.00    +0.112 C 
BRANCH  27  32
ATOM     28  C   UNL     1       5.417   3.764   0.016  0.00  0.00    +0.044 C 
ATOM     29  C   UNL     1       4.002   3.248   0.022  0.00  0.00    -0.050 A 
ATOM     30  C   UNL     1       3.342   3.025  -1.173  0.00  0.00    +0.003 A 
ATOM     31  C   UNL     1       2.044   2.551  -1.167  0.00  0.00    +0.005 A 
ATOM     32  C   UNL     1       1.405   2.300   0.032  0.00  0.00    -0.037 A 
ATOM     33  C   UNL     1       2.062   2.527   1.227  0.00  0.00    +0.005 A 
ATOM     34  C   UNL     1       3.362   2.996   1.222  0.00  0.00    +0.003 A 
ENDBRANCH  27  32
ENDBRANCH  26  27
ENDBRANCH   1  26
TORSDOF 7
