REMARK  Name = ZINC05734752
REMARK  5 active torsions:
REMARK  status: ('A' for Active; 'I' for Inactive)
REMARK    1  A    between atoms: C_4  and  C_7
REMARK    2  A    between atoms: C_7  and  C_25
REMARK    3  A    between atoms: N_12  and  O_13
REMARK    4  A    between atoms: O_13  and  C_14
REMARK    5  A    between atoms: N_16  and  C_17
REMARK                            x       y       z     vdW  Elec       q    Type
REMARK                         _______ _______ _______ _____ _____    ______ ____
ROOT
ATOM      1  C   UNL     1       2.462   1.053  -0.031  0.00  0.00    +0.066 C 
ATOM      2  C   UNL     1       3.316   1.175  -1.135  0.00  0.00    -0.007 C 
ATOM      3  C   UNL     1       2.920   1.974  -2.233  0.00  0.00    +0.011 C 
ATOM      4  C   UNL     1       3.724   2.113  -3.308  0.00  0.00    +0.031 C 
ATOM      5  C   UNL     1       5.016   1.416  -3.334  0.00  0.00    +0.103 C 
ATOM      6  N   UNL     1       5.819   1.530  -4.371  0.00  0.00    -0.073 NA
ATOM      7  C   UNL     1       5.398   0.590  -2.181  0.00  0.00    +0.031 C 
ATOM      8  C   UNL     1       4.555   0.491  -1.132  0.00  0.00    +0.011 C 
ENDROOT
BRANCH   1  12
ATOM      9  C   UNL     1      -1.264   3.084   0.003  0.00  0.00    +0.000 A 
ATOM     10  C   UNL     1      -1.235   1.700  -0.011  0.00  0.00    +0.001 A 
ATOM     11  C   UNL     1      -0.028   1.033  -0.016  0.00  0.00    +0.009 A 
ATOM     12  C   UNL     1       1.168   1.759  -0.019  0.00  0.00    -0.007 A 
ATOM     13  C   UNL     1       1.129   3.157  -0.011  0.00  0.00    +0.009 A 
ATOM     14  C   UNL     1      -0.085   3.809   0.000  0.00  0.00    +0.001 A 
ENDBRANCH   1  12
BRANCH   1  15
ATOM     15  C   UNL     1       2.847   0.243   1.086  0.00  0.00    +0.100 C 
ATOM     16  N   UNL     1       3.152  -0.399   1.972  0.00  0.00    -0.191 NA
ENDBRANCH   1  15
BRANCH   6  17
ATOM     17  O   UNL     1       5.491   2.219  -5.321  0.00  0.00    -0.298 OA
BRANCH  17  18
ATOM     18  C   UNL     1       6.357   2.293  -6.349  0.00  0.00    +0.430 C 
ATOM     19  O   UNL     1       7.410   1.688  -6.302  0.00  0.00    -0.224 OA
ATOM     20  N   UNL     1       6.056   3.038  -7.432  0.00  0.00    -0.249 N 
ATOM     21  H   UNL     1       5.189   3.466  -7.500  0.00  0.00    +0.158 HD
BRANCH  20  22
ATOM     22  C   UNL     1       6.995   3.193  -8.457  0.00  0.00    +0.037 A 
ATOM     23  C   UNL     1       7.076   4.393  -9.151  0.00  0.00    +0.023 A 
ATOM     24  C   UNL     1       8.007   4.545 -10.160  0.00  0.00    +0.002 A 
ATOM     25  C   UNL     1       8.852   3.500 -10.486  0.00  0.00    +0.000 A 
ATOM     26  C   UNL     1       8.771   2.301  -9.801  0.00  0.00    +0.002 A 
ATOM     27  C   UNL     1       7.845   2.145  -8.787  0.00  0.00    +0.023 A 
ENDBRANCH  20  22
ENDBRANCH  17  18
ENDBRANCH   6  17
TORSDOF 5
