REMARK  Name = ZINC43221869
REMARK  13 active torsions:
REMARK  status: ('A' for Active; 'I' for Inactive)
REMARK    1  A    between atoms: C_1  and  C_2
REMARK    2  A    between atoms: C_2  and  C_3
REMARK    3  A    between atoms: C_7  and  C_38
REMARK    4  A    between atoms: C_8  and  N_9
REMARK    5  A    between atoms: C_14  and  C_29
REMARK    6  A    between atoms: C_17  and  C_22
REMARK    7  A    between atoms: C_17  and  C_26
REMARK    8  A    between atoms: C_22  and  C_24
REMARK    9  A    between atoms: C_22  and  O_25
REMARK   10  A    between atoms: C_33  and  O_36
REMARK   11  A    between atoms: C_34  and  O_35
REMARK   12  A    between atoms: O_36  and  C_37
REMARK   13  A    between atoms: C_38  and  C_39
REMARK                            x       y       z     vdW  Elec       q    Type
REMARK                         _______ _______ _______ _____ _____    ______ ____
ROOT
ATOM      1  N   UNL     1      -1.535  -0.101   2.594  0.00  0.00    -0.209 N 
ATOM      2  C   UNL     1      -2.128   1.093   2.921  0.00  0.00    +0.229 C 
ATOM      3  O   UNL     1      -1.604   2.184   2.998  0.00  0.00    -0.275 OA
ATOM      4  C   UNL     1      -3.514   0.761   3.153  0.00  0.00    +0.077 C 
ATOM      5  C   UNL     1      -4.832   1.408   3.229  0.00  0.00    -0.023 C 
ATOM      6  N   UNL     1      -5.808   0.284   3.049  0.00  0.00    +0.397 N 
ATOM      7  C   UNL     1      -5.019  -0.956   2.752  0.00  0.00    +0.074 C 
ATOM      8  C   UNL     1      -3.752  -0.379   2.084  0.00  0.00    +0.089 C 
ATOM      9  C   UNL     1      -2.443  -1.082   2.314  0.00  0.00    +0.229 C 
ATOM     10  O   UNL     1      -2.238  -2.276   2.264  0.00  0.00    -0.275 OA
ATOM     11  H   UNL     1      -6.342   0.155   3.896  0.00  0.00    -0.083 HD
ATOM     12  H   UNL     1      -6.428   0.488   2.280  0.00  0.00    -0.083 HD
ENDROOT
BRANCH   1  18
ATOM     13  C   UNL     1       0.547  -0.061   1.367  0.00  0.00    -0.026 A 
ATOM     14  C   UNL     1       1.915  -0.245   1.325  0.00  0.00    +0.005 A 
ATOM     15  C   UNL     1       2.593  -0.663   2.456  0.00  0.00    +0.001 A 
ATOM     16  C   UNL     1       1.904  -0.898   3.631  0.00  0.00    +0.005 A 
ATOM     17  C   UNL     1       0.535  -0.716   3.679  0.00  0.00    -0.026 A 
ATOM     18  C   UNL     1      -0.147  -0.292   2.547  0.00  0.00    +0.050 A 
BRANCH  13  20
ATOM     19  C   UNL     1      -0.348   1.916   0.168  0.00  0.00    +0.009 C 
ATOM     20  C   UNL     1      -0.191   0.395   0.135  0.00  0.00    +0.033 C 
ENDBRANCH  13  20
BRANCH  17  21
ATOM     21  C   UNL     1      -0.215  -0.973   4.960  0.00  0.00    +0.033 C 
ATOM     22  C   UNL     1      -0.773  -2.398   4.948  0.00  0.00    +0.009 C 
ENDBRANCH  17  21
ENDBRANCH   1  18
BRANCH   5  23
ATOM     23  C   UNL     1      -4.984   2.424   2.126  0.00  0.00    -0.015 A 
ATOM     24  C   UNL     1      -5.545   2.052   0.917  0.00  0.00    +0.006 A 
ATOM     25  C   UNL     1      -5.686   2.981  -0.097  0.00  0.00    +0.004 A 
ATOM     26  C   UNL     1      -5.268   4.285   0.092  0.00  0.00    +0.049 A 
ATOM     27  C   UNL     1      -4.705   4.663   1.300  0.00  0.00    +0.161 A 
ATOM     28  C   UNL     1      -4.568   3.730   2.324  0.00  0.00    +0.160 A 
BRANCH  28  29
ATOM     29  O   UNL     1      -4.022   4.098   3.514  0.00  0.00    -0.503 OA
ATOM     30  H   UNL     1      -3.061   3.995   3.554  0.00  0.00    +0.292 HD
ENDBRANCH  28  29
BRANCH  27  31
ATOM     31  O   UNL     1      -4.292   5.946   1.488  0.00  0.00    -0.491 OA
ATOM     32  C   UNL     1      -4.469   6.851   0.396  0.00  0.00    +0.277 C 
ENDBRANCH  27  31
ENDBRANCH   5  23
BRANCH   7  33
ATOM     33  C   UNL     1      -5.763  -1.845   1.789  0.00  0.00    +0.349 C 
ATOM     34  O   UNL     1      -6.868  -1.519   1.388  0.00  0.00    -0.248 OA
ATOM     35  O   UNL     1      -5.261  -2.889   1.410  0.00  0.00    -0.248 OA
ENDBRANCH   7  33
BRANCH   7  36
ATOM     36  C   UNL     1      -4.686  -1.709   4.041  0.00  0.00    +0.112 C 
ATOM     37  C   UNL     1      -5.980  -2.034   4.790  0.00  0.00    +0.037 C 
BRANCH  36  38
ATOM     38  O   UNL     1      -4.004  -2.923   3.721  0.00  0.00    -0.393 OA
ATOM     39  H   UNL     1      -4.513  -3.525   3.162  0.00  0.00    +0.210 HD
ENDBRANCH  36  38
ENDBRANCH   7  36
TORSDOF 9
