REMARK  Name = ZINC67318482
REMARK  6 active torsions:
REMARK  status: ('A' for Active; 'I' for Inactive)
REMARK    1  A    between atoms: C_1  and  C_2
REMARK    2  A    between atoms: C_2  and  C_4
REMARK    3  A    between atoms: C_4  and  O_5
REMARK    4  A    between atoms: O_5  and  C_6
REMARK    5  A    between atoms: C_10  and  N_12
REMARK    6  A    between atoms: N_15  and  C_16
REMARK                            x       y       z     vdW  Elec       q    Type
REMARK                         _______ _______ _______ _____ _____    ______ ____
ROOT
ATOM      1  N   UNL     1      -2.773  -6.633   0.004  0.00  0.00    -0.269 N 
ATOM      2  C   UNL     1      -3.828  -7.465   0.111  0.00  0.00    +0.304 C 
ATOM      3  O   UNL     1      -4.958  -7.016   0.119  0.00  0.00    -0.252 OA
ATOM      4  N   UNL     1      -3.631  -8.794   0.209  0.00  0.00    -0.292 N 
ATOM      5  H   UNL     1      -1.876  -6.995  -0.070  0.00  0.00    +0.156 HD
ATOM      6  H   UNL     1      -2.729  -9.153   0.203  0.00  0.00    +0.151 HD
ENDROOT
BRANCH   4   7
ATOM      7  C   UNL     1      -4.778  -9.698   0.325  0.00  0.00    +0.106 C 
ATOM      8  C   UNL     1      -4.388 -11.076  -0.206  0.00  0.00    +0.027 C 
ATOM      9  C   UNL     1      -5.518 -12.057   0.133  0.00  0.00    +0.008 C 
ATOM     10  C   UNL     1      -5.532 -12.265   1.645  0.00  0.00    +0.054 C 
ATOM     11  C   UNL     1      -5.545 -10.941   2.366  0.00  0.00    +0.024 A 
ATOM     12  C   UNL     1      -5.198  -9.784   1.769  0.00  0.00    -0.008 A 
ATOM     13  C   UNL     1      -5.222  -8.584   2.509  0.00  0.00    +0.012 A 
ATOM     14  C   UNL     1      -5.598  -8.600   3.816  0.00  0.00    +0.070 A 
ATOM     15  C   UNL     1      -5.960  -9.823   4.406  0.00  0.00    +0.249 A 
ATOM     16  O   UNL     1      -6.304  -9.861   5.577  0.00  0.00    -0.268 OA
ATOM     17  N   UNL     1      -5.928 -10.948   3.677  0.00  0.00    -0.326 N 
ATOM     18  H   UNL     1      -6.182 -11.788   4.091  0.00  0.00    +0.169 HD
ENDBRANCH   4   7
BRANCH   1  23
ATOM     19  C   UNL     1      -2.239  -3.039   0.591  0.00  0.00    +0.123 A 
ATOM     20  C   UNL     1      -3.370  -2.507  -0.013  0.00  0.00    +0.046 A 
ATOM     21  C   UNL     1      -4.297  -3.342  -0.607  0.00  0.00    +0.005 A 
ATOM     22  C   UNL     1      -4.101  -4.709  -0.603  0.00  0.00    +0.023 A 
ATOM     23  C   UNL     1      -2.971  -5.248  -0.001  0.00  0.00    +0.038 A 
ATOM     24  C   UNL     1      -2.037  -4.410   0.592  0.00  0.00    +0.069 A 
BRANCH  19  25
ATOM     25  O   UNL     1      -1.329  -2.217   1.174  0.00  0.00    -0.488 OA
BRANCH  25  26
ATOM     26  C   UNL     1      -1.602  -0.815   1.135  0.00  0.00    +0.259 C 
BRANCH  26  28
ATOM     27  C   UNL     1      -0.541   1.436   1.923  0.00  0.00    +0.042 C 
ATOM     28  C   UNL     1      -0.491  -0.067   1.827  0.00  0.00    -0.043 C 
ATOM     29  C   UNL     1       0.517  -0.723   2.344  0.00  0.00    +0.011 C 
ENDBRANCH  26  28
ENDBRANCH  25  26
ENDBRANCH  19  25
ENDBRANCH   1  23
TORSDOF 5
