REMARK  Name = ZINC39777711
REMARK  2 active torsions:
REMARK  status: ('A' for Active; 'I' for Inactive)
REMARK    1  A    between atoms: C_4  and  C_7
REMARK    2  A    between atoms: C_11  and  C_13
REMARK                            x       y       z     vdW  Elec       q    Type
REMARK                         _______ _______ _______ _____ _____    ______ ____
ROOT
ATOM      1  C   UNL     1       3.324  -2.807   1.194  0.00  0.00    +0.008 C 
ATOM      2  C   UNL     1       2.361  -3.728   1.091  0.00  0.00    +0.070 C 
ATOM      3  C   UNL     1       1.724  -4.280  -0.131  0.00  0.00    +0.259 C 
ATOM      4  O   UNL     1       2.061  -3.896  -1.234  0.00  0.00    -0.269 OA
ATOM      5  N   UNL     1       0.775  -5.206   0.008  0.00  0.00    -0.237 N 
ATOM      6  C   UNL     1       0.174  -6.295  -0.664  0.00  0.00    +0.060 A 
ATOM      7  C   UNL     1      -0.034  -6.540  -2.011  0.00  0.00    +0.025 A 
ATOM      8  C   UNL     1      -0.603  -7.735  -2.414  0.00  0.00    +0.002 A 
ATOM      9  C   UNL     1      -0.965  -8.683  -1.475  0.00  0.00    +0.002 A 
ATOM     10  C   UNL     1      -0.786  -8.433  -0.127  0.00  0.00    +0.025 A 
ATOM     11  C   UNL     1      -0.238  -7.228   0.288  0.00  0.00    +0.051 A 
ATOM     12  N   UNL     1      -0.072  -6.683   1.574  0.00  0.00    -0.315 N 
ATOM     13  C   UNL     1       0.129  -5.247   1.351  0.00  0.00    +0.232 C 
ATOM     14  S   UNL     1       1.510  -4.620   2.391  0.00  0.00    -0.078 S 
ATOM     15  H   UNL     1      -0.088  -7.154   2.422  0.00  0.00    +0.149 HD
ENDROOT
BRANCH   1  20
ATOM     16  C   UNL     1       3.691  -0.680  -0.038  0.00  0.00    +0.083 C 
ATOM     17  N   UNL     1       4.884  -0.152  -0.042  0.00  0.00    -0.153 NA
ATOM     18  N   UNL     1       5.886  -1.118  -0.059  0.00  0.00    -0.161 NA
ATOM     19  C   UNL     1       5.413  -2.321  -0.067  0.00  0.00    +0.121 C 
ATOM     20  C   UNL     1       3.904  -2.181  -0.048  0.00  0.00    +0.107 C 
BRANCH  16  24
ATOM     21  C   UNL     1      -0.017   1.380   0.010  0.00  0.00    +0.000 A 
ATOM     22  C   UNL     1       1.168   2.095   0.002  0.00  0.00    +0.001 A 
ATOM     23  C   UNL     1       2.377   1.433  -0.013  0.00  0.00    +0.010 A 
ATOM     24  C   UNL     1       2.405   0.035  -0.021  0.00  0.00    -0.001 A 
ATOM     25  C   UNL     1       1.203  -0.681  -0.013  0.00  0.00    +0.010 A 
ATOM     26  C   UNL     1       0.002  -0.004   0.002  0.00  0.00    +0.001 A 
ENDBRANCH  16  24
ENDBRANCH   1  20
TORSDOF 2
