REMARK  Name = ZINC55303200
REMARK  3 active torsions:
REMARK  status: ('A' for Active; 'I' for Inactive)
REMARK    1  A    between atoms: C_6  and  C_7
REMARK    2  A    between atoms: C_7  and  C_9
REMARK    3  A    between atoms: C_7  and  O_16
REMARK                            x       y       z     vdW  Elec       q    Type
REMARK                         _______ _______ _______ _____ _____    ______ ____
ROOT
ATOM      1  C   UNL     1      -0.017   1.380   0.010  0.00  0.00    +0.008 A 
ATOM      2  C   UNL     1       1.167   2.093   0.002  0.00  0.00    +0.028 A 
ATOM      3  C   UNL     1       2.378   1.419  -0.013  0.00  0.00    +0.067 A 
ATOM      4  C   UNL     1       2.397   0.022  -0.021  0.00  0.00    +0.067 A 
ATOM      5  C   UNL     1       1.204  -0.684  -0.014  0.00  0.00    +0.034 A 
ATOM      6  C   UNL     1       0.002  -0.004   0.002  0.00  0.00    -0.015 A 
ATOM      7  N   UNL     1       3.736  -0.362  -0.035  0.00  0.00    -0.306 N 
ATOM      8  H   UNL     1       4.064  -1.275  -0.043  0.00  0.00    +0.170 HD
ATOM      9  C   UNL     1       4.496   0.749  -0.035  0.00  0.00    +0.325 A 
ATOM     10  O   UNL     1       5.713   0.766  -0.047  0.00  0.00    -0.247 OA
ATOM     11  N   UNL     1       3.706   1.839  -0.023  0.00  0.00    -0.306 N 
ATOM     12  H   UNL     1       4.010   2.760  -0.020  0.00  0.00    +0.170 HD
ENDROOT
BRANCH   6  13
ATOM     13  C   UNL     1      -1.294  -0.772   0.011  0.00  0.00    +0.175 C 
BRANCH  13  14
ATOM     14  C   UNL     1      -1.812  -0.916  -1.422  0.00  0.00    +0.177 C 
ATOM     15  C   UNL     1      -3.190  -1.583  -1.404  0.00  0.00    +0.194 C 
ATOM     16  O   UNL     1      -3.715  -1.613  -2.735  0.00  0.00    -0.375 OA
ATOM     17  C   UNL     1      -3.827  -0.319  -3.335  0.00  0.00    +0.188 C 
ATOM     18  C   UNL     1      -2.448   0.348  -3.353  0.00  0.00    +0.188 C 
ATOM     19  O   UNL     1      -1.922   0.378  -2.023  0.00  0.00    -0.369 OA
ENDBRANCH  13  14
BRANCH  13  20
ATOM     20  O   UNL     1      -2.259  -0.069   0.797  0.00  0.00    -0.385 OA
ATOM     21  H   UNL     1      -2.457   0.820   0.474  0.00  0.00    +0.210 HD
ENDBRANCH  13  20
ENDBRANCH   6  13
TORSDOF 3
