REMARK  Name = ZINC40923968
REMARK  7 active torsions:
REMARK  status: ('A' for Active; 'I' for Inactive)
REMARK    1  A    between atoms: C_1  and  C_2
REMARK    2  A    between atoms: C_5  and  C_8
REMARK    3  A    between atoms: C_8  and  O_9
REMARK    4  A    between atoms: O_9  and  C_10
REMARK    5  A    between atoms: C_15  and  C_16
REMARK    6  A    between atoms: C_18  and  C_27
REMARK    7  A    between atoms: C_19  and  C_26
REMARK                            x       y       z     vdW  Elec       q    Type
REMARK                         _______ _______ _______ _____ _____    ______ ____
ROOT
ATOM      1  C   UNL     1       1.608  -6.300  -0.289  0.00  0.00    +0.127 A 
ATOM      2  C   UNL     1       0.580  -7.213  -0.474  0.00  0.00    +0.047 A 
ATOM      3  C   UNL     1       0.869  -8.555  -0.631  0.00  0.00    +0.019 A 
ATOM      4  C   UNL     1       2.183  -8.988  -0.603  0.00  0.00    +0.018 A 
ATOM      5  C   UNL     1       3.209  -8.080  -0.417  0.00  0.00    +0.025 A 
ATOM      6  C   UNL     1       2.925  -6.736  -0.266  0.00  0.00    +0.024 A 
ATOM      7 BR   UNL     1       2.575 -10.826  -0.817  0.00  0.00    -0.050 Br
ENDROOT
BRANCH   6   8
ATOM      8  C   UNL     1       4.044  -5.746  -0.071  0.00  0.00    +0.182 C 
ATOM      9  C   UNL     1       4.818  -6.101   1.171  0.00  0.00    +0.060 C 
ATOM     10  C   UNL     1       6.053  -6.622   1.140  0.00  0.00    +0.018 C 
ATOM     11  N   UNL     1       6.719  -6.864  -0.037  0.00  0.00    -0.286 N 
ATOM     12  C   UNL     1       6.184  -6.317  -1.195  0.00  0.00    +0.240 A 
ATOM     13  N   UNL     1       4.934  -5.785  -1.225  0.00  0.00    -0.201 N 
ATOM     14  N   UNL     1       4.751  -5.334  -2.531  0.00  0.00    -0.042 NA
ATOM     15  N   UNL     1       5.840  -5.612  -3.172  0.00  0.00    -0.021 NA
ATOM     16  N   UNL     1       6.686  -6.192  -2.390  0.00  0.00    -0.092 NA
ATOM     17  C   UNL     1       6.735  -6.953   2.443  0.00  0.00    +0.061 C 
ATOM     18  H   UNL     1       7.530  -7.395  -0.058  0.00  0.00    +0.155 HD
BRANCH   9  19
ATOM     19  C   UNL     1       4.213  -5.874   2.430  0.00  0.00    +0.241 C 
ATOM     20  O   UNL     1       4.115  -4.740   2.862  0.00  0.00    -0.271 OA
ATOM     21  N   UNL     1       3.746  -6.913   3.151  0.00  0.00    -0.325 N 
ATOM     22  H   UNL     1       3.825  -7.816   2.806  0.00  0.00    +0.145 HD
ATOM     23  H   UNL     1       3.332  -6.757   4.014  0.00  0.00    +0.145 HD
ENDBRANCH   9  19
ENDBRANCH   6   8
BRANCH   1  24
ATOM     24  O   UNL     1       1.326  -4.980  -0.134  0.00  0.00    -0.487 OA
BRANCH  24  25
ATOM     25  C   UNL     1      -0.052  -4.602  -0.168  0.00  0.00    +0.264 C 
BRANCH  25  30
ATOM     26  C   UNL     1      -0.505   1.114   0.546  0.00  0.00    +0.044 C 
ATOM     27  C   UNL     1      -0.387  -0.377   0.360  0.00  0.00    -0.050 A 
ATOM     28  C   UNL     1      -0.261  -0.907  -0.911  0.00  0.00    +0.004 A 
ATOM     29  C   UNL     1      -0.152  -2.274  -1.081  0.00  0.00    +0.007 A 
ATOM     30  C   UNL     1      -0.169  -3.111   0.018  0.00  0.00    -0.010 A 
ATOM     31  C   UNL     1      -0.295  -2.581   1.289  0.00  0.00    +0.007 A 
ATOM     32  C   UNL     1      -0.399  -1.214   1.460  0.00  0.00    +0.004 A 
ENDBRANCH  25  30
ENDBRANCH  24  25
ENDBRANCH   1  24
TORSDOF 5
