REMARK  Name = ZINC04599766
REMARK  4 active torsions:
REMARK  status: ('A' for Active; 'I' for Inactive)
REMARK    1  A    between atoms: C_1  and  C_2
REMARK    2  A    between atoms: C_5  and  N_8
REMARK    3  A    between atoms: N_8  and  C_9
REMARK    4  A    between atoms: C_14  and  C_17
REMARK                            x       y       z     vdW  Elec       q    Type
REMARK                         _______ _______ _______ _____ _____    ______ ____
ROOT
ATOM      1  C   UNL     1      -2.111   0.940  -1.208  0.00  0.00    +0.012 C 
ATOM      2  C   UNL     1      -2.673   0.578  -0.035  0.00  0.00    +0.065 C 
ATOM      3  C   UNL     1      -1.948   0.588   1.161  0.00  0.00    +0.158 C 
ATOM      4  O   UNL     1      -2.491   0.256   2.197  0.00  0.00    -0.293 OA
ATOM      5  C   UNL     1      -0.498   1.005   1.178  0.00  0.00    +0.090 C 
ATOM      6  C   UNL     1       0.130   0.677  -0.181  0.00  0.00    +0.068 C 
ATOM      7  C   UNL     1      -0.672   1.377  -1.281  0.00  0.00    +0.062 C 
ENDROOT
BRANCH   6   8
ATOM      8  C   UNL     1       1.556   1.163  -0.209  0.00  0.00    +0.109 A 
ATOM      9  C   UNL     1       2.645   0.396  -0.397  0.00  0.00    +0.045 A 
ATOM     10  C   UNL     1       3.765   1.257  -0.351  0.00  0.00    +0.041 A 
ATOM     11  C   UNL     1       3.295   2.498  -0.130  0.00  0.00    +0.195 A 
ATOM     12  O   UNL     1       1.956   2.434  -0.044  0.00  0.00    -0.468 OA
ENDBRANCH   6   8
BRANCH   1  13
ATOM     13  N   UNL     1      -2.860   0.908  -2.348  0.00  0.00    -0.318 N 
ATOM     14  H   UNL     1      -2.497   1.256  -3.177  0.00  0.00    +0.152 HD
BRANCH  13  19
ATOM     15  C   UNL     1      -8.097  -1.266  -2.241  0.00  0.00    +0.044 C 
ATOM     16  C   UNL     1      -6.706  -0.688  -2.269  0.00  0.00    -0.050 A 
ATOM     17  C   UNL     1      -6.468   0.508  -2.921  0.00  0.00    +0.005 A 
ATOM     18  C   UNL     1      -5.194   1.040  -2.949  0.00  0.00    +0.023 A 
ATOM     19  C   UNL     1      -4.151   0.372  -2.321  0.00  0.00    +0.031 A 
ATOM     20  C   UNL     1      -4.392  -0.831  -1.671  0.00  0.00    +0.023 A 
ATOM     21  C   UNL     1      -5.669  -1.355  -1.642  0.00  0.00    +0.005 A 
ENDBRANCH  13  19
ENDBRANCH   1  13
TORSDOF 3
