REMARK  Name = ZINC20008300
REMARK  6 active torsions:
REMARK  status: ('A' for Active; 'I' for Inactive)
REMARK    1  A    between atoms: C_1  and  C_2
REMARK    2  A    between atoms: C_4  and  S_10
REMARK    3  A    between atoms: C_6  and  N_9
REMARK    4  A    between atoms: C_7  and  C_8
REMARK    5  A    between atoms: S_10  and  N_13
REMARK    6  A    between atoms: C_17  and  C_19
REMARK                            x       y       z     vdW  Elec       q    Type
REMARK                         _______ _______ _______ _____ _____    ______ ____
ROOT
ATOM      1  S   UNL     1      -3.776   0.246   0.068  0.00  0.00    +0.062 S 
ATOM      2  O   UNL     1      -4.371   1.050  -0.941  0.00  0.00    -0.153 OA
ATOM      3  O   UNL     1      -3.416  -1.111  -0.153  0.00  0.00    -0.153 OA
ENDROOT
BRANCH   1   7
ATOM      4  C   UNL     1      -0.818   4.543   0.373  0.00  0.00    +0.044 C 
ATOM      5  C   UNL     1      -0.993   3.080   0.687  0.00  0.00    -0.044 A 
ATOM      6  C   UNL     1      -2.143   2.422   0.290  0.00  0.00    +0.032 A 
ATOM      7  C   UNL     1      -2.309   1.079   0.576  0.00  0.00    +0.108 A 
ATOM      8  C   UNL     1      -1.325   0.391   1.259  0.00  0.00    +0.051 A 
ATOM      9  C   UNL     1      -0.169   1.048   1.659  0.00  0.00    +0.030 A 
ATOM     10  C   UNL     1      -0.009   2.399   1.375  0.00  0.00    -0.027 A 
ATOM     11  C   UNL     1       1.241   3.119   1.812  0.00  0.00    +0.046 C 
BRANCH   9  12
ATOM     12  N   UNL     1       0.827   0.355   2.350  0.00  0.00    -0.358 N 
ATOM     13  H   UNL     1       1.742   0.878   2.666  0.00  0.00    +0.142 HD
ATOM     14  H   UNL     1       0.697  -0.713   2.578  0.00  0.00    +0.142 HD
ENDBRANCH   9  12
ENDBRANCH   1   7
BRANCH   1  15
ATOM     15  N   UNL     1      -4.816   0.256   1.357  0.00  0.00    -0.165 NA
ATOM     16  C   UNL     1      -5.733   1.354   1.712  0.00  0.00    +0.110 C 
ATOM     17  C   UNL     1      -6.862   0.675   2.530  0.00  0.00    +0.019 C 
ATOM     18  C   UNL     1      -6.066  -0.386   3.335  0.00  0.00    +0.031 C 
ATOM     19  C   UNL     1      -4.973  -0.826   2.339  0.00  0.00    +0.165 C 
BRANCH  19  20
ATOM     20  C   UNL     1      -5.391  -2.095   1.642  0.00  0.00    +0.229 C 
ATOM     21  O   UNL     1      -5.977  -2.039   0.582  0.00  0.00    -0.274 OA
ATOM     22  N   UNL     1      -5.115  -3.292   2.197  0.00  0.00    -0.328 N 
ATOM     23  H   UNL     1      -5.420  -4.218   1.688  0.00  0.00    +0.145 HD
ATOM     24  H   UNL     1      -4.583  -3.342   3.159  0.00  0.00    +0.145 HD
ENDBRANCH  19  20
ENDBRANCH   1  15
TORSDOF 4
