REMARK  Name = ZINC19959669
REMARK  3 active torsions:
REMARK  status: ('A' for Active; 'I' for Inactive)
REMARK    1  A    between atoms: C_1  and  C_2
REMARK    2  A    between atoms: C_7  and  C_15
REMARK    3  A    between atoms: C_17  and  N_22
REMARK                            x       y       z     vdW  Elec       q    Type
REMARK                         _______ _______ _______ _____ _____    ______ ____
ROOT
ATOM      1  C   UNL     1      -2.223  -2.523   4.737  0.00  0.00    +0.008 C 
ATOM      2  C   UNL     1      -1.543  -2.063   3.446  0.00  0.00    -0.001 C 
ATOM      3  C   UNL     1      -2.599  -1.569   2.455  0.00  0.00    +0.055 C 
ATOM      4  C   UNL     1      -1.923  -1.076   1.197  0.00  0.00    +0.020 C 
ATOM      5  C   UNL     1      -0.693  -0.522   1.242  0.00  0.00    +0.041 C 
ATOM      6  C   UNL     1       0.002  -0.004   0.002  0.00  0.00    +0.177 C 
ATOM      7  N   UNL     1      -0.678  -0.490  -1.191  0.00  0.00    -0.221 N 
ATOM      8  C   UNL     1      -1.910  -1.057  -1.169  0.00  0.00    +0.218 A 
ATOM      9  N   UNL     1      -2.231  -1.372  -2.394  0.00  0.00    -0.201 NA
ATOM     10  C   UNL     1      -1.236  -1.030  -3.219  0.00  0.00    +0.247 A 
ATOM     11  N   UNL     1      -0.267  -0.489  -2.523  0.00  0.00    -0.156 NA
ATOM     12  N   UNL     1      -2.610  -1.221   0.015  0.00  0.00    -0.287 N 
ATOM     13  C   UNL     1       0.001  -0.405   2.460  0.00  0.00    +0.163 C 
ATOM     14  O   UNL     1       1.102   0.110   2.469  0.00  0.00    -0.292 OA
ATOM     15  C   UNL     1      -0.588  -0.904   3.750  0.00  0.00    +0.083 C 
ATOM     16  H   UNL     1      -3.683  -1.461   0.028  0.00  0.00    +0.155 HD
ENDROOT
BRANCH   6  17
ATOM     17  C   UNL     1      -0.018   1.503   0.010  0.00  0.00    +0.002 A 
ATOM     18  C   UNL     1      -1.225   2.178   0.020  0.00  0.00    +0.040 A 
ATOM     19  C   UNL     1      -1.244   3.560   0.032  0.00  0.00    +0.127 A 
ATOM     20  C   UNL     1      -0.056   4.268   0.025  0.00  0.00    +0.034 A 
ATOM     21  C   UNL     1       1.150   3.594   0.010  0.00  0.00    +0.022 A 
ATOM     22  C   UNL     1       1.170   2.211   0.003  0.00  0.00    +0.047 A 
ATOM     23 CL   UNL     1       2.685   1.364  -0.016  0.00  0.00    -0.083 Cl
BRANCH  19  24
ATOM     24  N   UNL     1      -2.535   4.282   0.048  0.00  0.00    +0.056 N 
ATOM     25  O   UNL     1      -2.552   5.500   0.054  0.00  0.00    -0.126 OA
ATOM     26  O   UNL     1      -3.582   3.658   0.054  0.00  0.00    -0.126 OA
ENDBRANCH  19  24
ENDBRANCH   6  17
TORSDOF 2
