REMARK  Name = ZINC02924854
REMARK  14 active torsions:
REMARK  status: ('A' for Active; 'I' for Inactive)
REMARK    1  A    between atoms: C_1  and  C_2
REMARK    2  A    between atoms: C_2  and  N_57
REMARK    3  A    between atoms: C_3  and  C_4
REMARK    4  A    between atoms: C_3  and  N_57
REMARK    5  A    between atoms: C_5  and  C_6
REMARK    6  A    between atoms: C_5  and  N_57
REMARK    7  A    between atoms: C_6  and  C_7
REMARK    8  A    between atoms: C_7  and  N_8
REMARK    9  A    between atoms: C_9  and  C_11
REMARK   10  A    between atoms: C_11  and  N_12
REMARK   11  A    between atoms: C_13  and  C_15
REMARK   12  A    between atoms: C_15  and  N_16
REMARK   13  A    between atoms: C_23  and  C_27
REMARK   14  A    between atoms: C_24  and  C_26
REMARK                            x       y       z     vdW  Elec       q    Type
REMARK                         _______ _______ _______ _____ _____    ______ ____
ROOT
ATOM      1  N   UNL     1      -2.703  -1.745   2.361  0.00  0.00    -0.305 N 
ATOM      2  C   UNL     1      -1.448  -1.276   2.222  0.00  0.00    +0.233 C 
ATOM      3  O   UNL     1      -0.866  -0.808   3.178  0.00  0.00    -0.274 OA
ATOM      4  H   UNL     1      -3.169  -2.119   1.597  0.00  0.00    +0.149 HD
ENDROOT
BRANCH   1   5
ATOM      5  C   UNL     1      -3.365  -1.691   3.667  0.00  0.00    +0.200 C 
BRANCH   5   7
ATOM      6  N   UNL     1      -5.549  -2.329   4.637  0.00  0.00    -0.314 N 
ATOM      7  C   UNL     1      -4.750  -2.274   3.553  0.00  0.00    +0.230 C 
ATOM      8  O   UNL     1      -5.145  -2.694   2.486  0.00  0.00    -0.274 OA
ATOM      9  H   UNL     1      -5.233  -1.994   5.490  0.00  0.00    +0.149 HD
BRANCH   6  10
ATOM     10  C   UNL     1      -6.895  -2.897   4.526  0.00  0.00    +0.102 C 
BRANCH  10  11
ATOM     11  C   UNL     1      -7.587  -2.840   5.890  0.00  0.00    +0.000 C 
BRANCH  11  12
ATOM     12  C   UNL     1      -8.993  -3.432   5.774  0.00  0.00    -0.077 C 
BRANCH  12  13
ATOM     13  N   UNL     1      -9.639  -3.389   7.103  0.00  0.00    +0.379 N 
ATOM     14  H   UNL     1      -9.011  -3.819   7.793  0.00  0.00    -0.082 HD
BRANCH  13  16
ATOM     15  C   UNL     1     -10.809  -1.304   6.476  0.00  0.00    -0.017 C 
ATOM     16  C   UNL     1      -9.895  -1.988   7.495  0.00  0.00    -0.082 C 
ENDBRANCH  13  16
BRANCH  13  17
ATOM     17  C   UNL     1     -10.908  -4.146   7.072  0.00  0.00    -0.082 C 
ATOM     18  C   UNL     1     -11.366  -4.398   8.510  0.00  0.00    -0.017 C 
ENDBRANCH  13  17
ENDBRANCH  12  13
ENDBRANCH  11  12
ENDBRANCH  10  11
ENDBRANCH   6  10
ENDBRANCH   5   7
ENDBRANCH   1   5
BRANCH   2  19
ATOM     19  C   UNL     1      -0.767  -1.332   0.879  0.00  0.00    +0.221 C 
BRANCH  19  20
ATOM     20  N   UNL     1       0.580  -0.765   0.990  0.00  0.00    -0.290 N 
ATOM     21  C   UNL     1       0.760   0.565   0.782  0.00  0.00    +0.203 A 
ATOM     22  N   UNL     1       1.945   1.107   0.867  0.00  0.00    -0.230 NA
ATOM     23  C   UNL     1       3.014   0.374   1.164  0.00  0.00    +0.116 A 
ATOM     24  C   UNL     1       2.926  -1.009   1.400  0.00  0.00    +0.075 A 
ATOM     25  C   UNL     1       1.611  -1.571   1.300  0.00  0.00    +0.263 A 
ATOM     26  O   UNL     1       1.431  -2.762   1.487  0.00  0.00    -0.267 OA
ATOM     27  C   UNL     1       4.184  -1.661   1.712  0.00  0.00    -0.026 A 
ATOM     28  C   UNL     1       5.309  -0.928   1.752  0.00  0.00    -0.008 A 
ATOM     29  S   UNL     1       4.743   0.718   1.367  0.00  0.00    -0.073 S 
ATOM     30  C   UNL     1       6.713  -1.388   2.050  0.00  0.00    +0.052 C 
ATOM     31  C   UNL     1       4.229  -3.142   1.987  0.00  0.00    +0.045 C 
ENDBRANCH  19  20
ENDBRANCH   2  19
TORSDOF 10
