REMARK  Name = ZINC07001669
REMARK  8 active torsions:
REMARK  status: ('A' for Active; 'I' for Inactive)
REMARK    1  A    between atoms: C_1  and  C_2
REMARK    2  A    between atoms: C_7  and  C_8
REMARK    3  A    between atoms: N_10  and  C_11
REMARK    4  A    between atoms: C_19  and  C_20
REMARK    5  A    between atoms: N_22  and  C_23
REMARK    6  A    between atoms: C_23  and  C_24
REMARK    7  A    between atoms: C_23  and  C_25
REMARK    8  A    between atoms: C_23  and  C_26
REMARK                            x       y       z     vdW  Elec       q    Type
REMARK                         _______ _______ _______ _____ _____    ______ ____
ROOT
ATOM      1  C   UNL     1       0.027   1.347   0.151  0.00  0.00    +0.092 A 
ATOM      2  C   UNL     1       1.152   2.236   0.466  0.00  0.00    +0.042 A 
ATOM      3  C   UNL     1       2.490   2.027   0.799  0.00  0.00    +0.013 A 
ATOM      4  C   UNL     1       3.304   3.099   1.041  0.00  0.00    +0.001 A 
ATOM      5  C   UNL     1       2.807   4.392   0.955  0.00  0.00    +0.004 A 
ATOM      6  C   UNL     1       1.488   4.618   0.627  0.00  0.00    +0.047 A 
ATOM      7  C   UNL     1       0.642   3.543   0.378  0.00  0.00    +0.138 A 
ATOM      8  O   UNL     1      -0.661   3.456   0.043  0.00  0.00    -0.448 OA
ATOM      9  C   UNL     1      -1.040   2.166  -0.099  0.00  0.00    +0.212 A 
ENDROOT
BRANCH   1  12
ATOM     10  C   UNL     1       1.141  -0.690  -0.329  0.00  0.00    +0.249 C 
ATOM     11  O   UNL     1       2.149  -0.066  -0.596  0.00  0.00    -0.270 OA
ATOM     12  N   UNL     1       0.044  -0.042   0.111  0.00  0.00    -0.278 N 
ATOM     13  H   UNL     1      -0.734  -0.545   0.399  0.00  0.00    +0.155 HD
BRANCH  10  20
ATOM     14  C   UNL     1       3.559  -2.086  -1.088  0.00  0.00    +0.044 C 
ATOM     15  C   UNL     1       2.277  -2.843  -0.853  0.00  0.00    -0.038 A 
ATOM     16  C   UNL     1       2.248  -4.215  -0.999  0.00  0.00    +0.004 A 
ATOM     17  C   UNL     1       1.073  -4.912  -0.783  0.00  0.00    +0.000 A 
ATOM     18  C   UNL     1      -0.081  -4.240  -0.420  0.00  0.00    +0.001 A 
ATOM     19  C   UNL     1      -0.065  -2.869  -0.267  0.00  0.00    +0.013 A 
ATOM     20  C   UNL     1       1.117  -2.159  -0.488  0.00  0.00    +0.040 A 
ENDBRANCH  10  20
ENDBRANCH   1  12
BRANCH   9  21
ATOM     21  C   UNL     1      -2.382   1.716  -0.462  0.00  0.00    +0.282 C 
ATOM     22  O   UNL     1      -2.643   0.527  -0.472  0.00  0.00    -0.267 OA
ATOM     23  N   UNL     1      -3.330   2.617  -0.785  0.00  0.00    -0.304 N 
ATOM     24  H   UNL     1      -3.122   3.564  -0.777  0.00  0.00    +0.150 HD
BRANCH  23  25
ATOM     25  C   UNL     1      -4.676   2.166  -1.149  0.00  0.00    +0.027 C 
ATOM     26  C   UNL     1      -5.287   1.389   0.019  0.00  0.00    +0.031 C 
ATOM     27  C   UNL     1      -5.552   3.379  -1.468  0.00  0.00    +0.031 C 
ATOM     28  C   UNL     1      -4.595   1.258  -2.378  0.00  0.00    +0.031 C 
ENDBRANCH  23  25
ENDBRANCH   9  21
TORSDOF 4
