REMARK  Name = ZINC36670402
REMARK  4 active torsions:
REMARK  status: ('A' for Active; 'I' for Inactive)
REMARK    1  A    between atoms: C_4  and  O_10
REMARK    2  A    between atoms: C_5  and  C_7
REMARK    3  A    between atoms: O_10  and  C_11
REMARK    4  A    between atoms: C_16  and  C_17
REMARK                            x       y       z     vdW  Elec       q    Type
REMARK                         _______ _______ _______ _____ _____    ______ ____
ROOT
ATOM      1  C   UNL     1       0.002   1.384   0.269  0.00  0.00    +0.001 A 
ATOM      2  C   UNL     1       1.172   2.090   0.044  0.00  0.00    +0.004 A 
ATOM      3  C   UNL     1       2.379   1.428  -0.059  0.00  0.00    +0.047 A 
ATOM      4  C   UNL     1       2.426   0.047   0.064  0.00  0.00    +0.141 A 
ATOM      5  C   UNL     1       1.244  -0.671   0.292  0.00  0.00    +0.079 A 
ATOM      6  C   UNL     1       0.030   0.012   0.394  0.00  0.00    +0.017 A 
ENDROOT
BRANCH   5   7
ATOM      7  C   UNL     1       1.282  -2.140   0.423  0.00  0.00    +0.245 C 
ATOM      8  O   UNL     1       2.341  -2.732   0.334  0.00  0.00    -0.270 OA
ATOM      9  N   UNL     1       0.143  -2.827   0.643  0.00  0.00    -0.325 N 
ATOM     10  H   UNL     1      -0.701  -2.355   0.714  0.00  0.00    +0.145 HD
ATOM     11  H   UNL     1       0.168  -3.792   0.729  0.00  0.00    +0.145 HD
ENDBRANCH   5   7
BRANCH   4  12
ATOM     12  O   UNL     1       3.611  -0.606  -0.037  0.00  0.00    -0.455 OA
BRANCH  12  13
ATOM     13  C   UNL     1       4.740   0.137  -0.149  0.00  0.00    +0.140 A 
ATOM     14  C   UNL     1       5.258   0.434  -1.400  0.00  0.00    +0.062 A 
ATOM     15  C   UNL     1       6.408   1.191  -1.512  0.00  0.00    +0.021 A 
ATOM     16  C   UNL     1       7.054   1.660  -0.377  0.00  0.00    +0.016 A 
ATOM     17  C   UNL     1       6.556   1.376   0.874  0.00  0.00    +0.016 A 
ATOM     18  C   UNL     1       5.387   0.615   1.003  0.00  0.00    +0.056 A 
ATOM     19 BR   UNL     1       7.107   1.590  -3.223  0.00  0.00    -0.050 Br
BRANCH  18  20
ATOM     20  C   UNL     1       4.846   0.313   2.333  0.00  0.00    +0.262 C 
ATOM     21  O   UNL     1       5.409   0.727   3.325  0.00  0.00    -0.296 OA
ENDBRANCH  18  20
ENDBRANCH  12  13
ENDBRANCH   4  12
TORSDOF 4
