REMARK  Name = ZINC02100978
REMARK  5 active torsions:
REMARK  status: ('A' for Active; 'I' for Inactive)
REMARK    1  A    between atoms: C_1  and  O_2
REMARK    2  A    between atoms: O_2  and  C_3
REMARK    3  A    between atoms: C_6  and  C_19
REMARK    4  A    between atoms: C_8  and  C_9
REMARK    5  A    between atoms: C_9  and  N_10
REMARK                            x       y       z     vdW  Elec       q    Type
REMARK                         _______ _______ _______ _____ _____    ______ ____
ROOT
ATOM      1  C   UNL     1       6.890   4.701   2.738  0.00  0.00    +0.125 A 
ATOM      2  C   UNL     1       5.604   4.928   3.206  0.00  0.00    +0.046 A 
ATOM      3  C   UNL     1       4.548   4.989   2.318  0.00  0.00    +0.006 A 
ATOM      4  C   UNL     1       4.772   4.825   0.963  0.00  0.00    -0.055 A 
ATOM      5  C   UNL     1       6.052   4.593   0.495  0.00  0.00    +0.011 A 
ATOM      6  C   UNL     1       7.112   4.537   1.379  0.00  0.00    +0.016 A 
ENDROOT
BRANCH   4   7
ATOM      7  C   UNL     1       3.618   4.893  -0.004  0.00  0.00    +0.007 C 
ATOM      8  C   UNL     1       2.879   3.575  -0.007  0.00  0.00    +0.010 A 
ATOM      9  C   UNL     1       1.533   3.489   0.005  0.00  0.00    -0.022 A 
ATOM     10  C   UNL     1       1.185   2.074   0.002  0.00  0.00    +0.003 A 
ATOM     11  C   UNL     1      -0.016   1.362   0.009  0.00  0.00    +0.010 A 
ATOM     12  C   UNL     1       0.002  -0.004   0.002  0.00  0.00    +0.001 A 
ATOM     13  C   UNL     1       1.207  -0.693  -0.013  0.00  0.00    +0.002 A 
ATOM     14  C   UNL     1       2.405  -0.012  -0.021  0.00  0.00    +0.026 A 
ATOM     15  C   UNL     1       2.410   1.378  -0.013  0.00  0.00    +0.047 A 
ATOM     16  N   UNL     1       3.417   2.321  -0.018  0.00  0.00    -0.359 N 
ATOM     17  H   UNL     1       4.366   2.122  -0.028  0.00  0.00    +0.166 HD
ATOM     18  C   UNL     1       0.617   4.686   0.016  0.00  0.00    +0.018 C 
ATOM     19  C   UNL     1       1.445   5.917  -0.379  0.00  0.00    -0.076 C 
ATOM     20  N   UNL     1       2.685   5.959   0.424  0.00  0.00    +0.387 N 
ATOM     21  H   UNL     1       3.136   6.872   0.300  0.00  0.00    -0.084 HD
ATOM     22  H   UNL     1       2.450   5.824   1.414  0.00  0.00    -0.084 HD
ENDBRANCH   4   7
BRANCH   1  24
ATOM     23  C   UNL     1       7.628   4.816   4.996  0.00  0.00    +0.277 C 
ATOM     24  O   UNL     1       7.931   4.639   3.610  0.00  0.00    -0.495 OA
ENDBRANCH   1  24
BRANCH   6  25
ATOM     25  C   UNL     1       8.508   4.291   0.867  0.00  0.00    +0.184 C 
BRANCH  25  26
ATOM     26  N   UNL     1       9.233   5.562   0.795  0.00  0.00    -0.239 N 
ATOM     27  C   UNL     1       9.291   6.415  -0.281  0.00  0.00    +0.089 A 
ATOM     28  C   UNL     1       8.734   6.403  -1.556  0.00  0.00    +0.029 A 
ATOM     29  C   UNL     1       8.983   7.436  -2.416  0.00  0.00    +0.002 A 
ATOM     30  C   UNL     1       9.782   8.503  -2.026  0.00  0.00    +0.002 A 
ATOM     31  C   UNL     1      10.335   8.542  -0.779  0.00  0.00    +0.032 A 
ATOM     32  C   UNL     1      10.096   7.495   0.121  0.00  0.00    +0.113 A 
ATOM     33  N   UNL     1      10.494   7.260   1.387  0.00  0.00    -0.129 NA
ATOM     34  N   UNL     1      10.009   6.144   1.808  0.00  0.00    -0.064 NA
ENDBRANCH  25  26
ENDBRANCH   6  25
TORSDOF 4
