REMARK  Name = ZINC39015689
REMARK  8 active torsions:
REMARK  status: ('A' for Active; 'I' for Inactive)
REMARK    1  A    between atoms: C_1  and  C_2
REMARK    2  A    between atoms: C_3  and  N_9
REMARK    3  A    between atoms: C_10  and  C_12
REMARK    4  A    between atoms: C_12  and  S_13
REMARK    5  A    between atoms: S_13  and  C_14
REMARK    6  A    between atoms: C_18  and  C_22
REMARK    7  A    between atoms: N_20  and  N_21
REMARK    8  A    between atoms: C_25  and  C_28
REMARK                            x       y       z     vdW  Elec       q    Type
REMARK                         _______ _______ _______ _____ _____    ______ ____
ROOT
ATOM      1  C   UNL     1      -0.420  -0.334  -7.949  0.00  0.00    +0.214 C 
ATOM      2  N   UNL     1       0.529   0.794  -8.091  0.00  0.00    -0.228 NA
ATOM      3  N   UNL     1      -0.235   1.830  -8.803  0.00  0.00    -0.234 NA
ATOM      4  C   UNL     1      -1.596   1.704  -8.220  0.00  0.00    +0.185 C 
ATOM      5  N   UNL     1      -1.777   0.245  -8.031  0.00  0.00    -0.197 NA
ATOM      6  H   UNL     1       0.834   1.126  -7.188  0.00  0.00    +0.143 HD
ATOM      7  H   UNL     1      -0.249   1.651  -9.796  0.00  0.00    +0.143 HD
ENDROOT
BRANCH   4   8
ATOM      8  C   UNL     1      -2.646   2.255  -9.187  0.00  0.00    +0.187 C 
ATOM      9  C   UNL     1      -2.369   3.714  -9.505  0.00  0.00    +0.034 C 
ATOM     10  C   UNL     1      -3.463   4.356  -9.052  0.00  0.00    +0.091 C 
ATOM     11  N   UNL     1      -4.343   3.472  -8.513  0.00  0.00    -0.154 NA
ATOM     12  N   UNL     1      -3.972   2.293  -8.548  0.00  0.00    -0.176 NA
BRANCH  10  13
ATOM     13  C   UNL     1      -3.677   5.822  -9.131  0.00  0.00    +0.002 A 
ATOM     14  C   UNL     1      -2.710   6.640  -9.711  0.00  0.00    +0.010 A 
ATOM     15  C   UNL     1      -2.914   8.003  -9.782  0.00  0.00    +0.001 A 
ATOM     16  C   UNL     1      -4.078   8.557  -9.279  0.00  0.00    +0.000 A 
ATOM     17  C   UNL     1      -5.042   7.750  -8.702  0.00  0.00    +0.001 A 
ATOM     18  C   UNL     1      -4.850   6.385  -8.631  0.00  0.00    +0.010 A 
ENDBRANCH  10  13
ENDBRANCH   4   8
BRANCH   5  19
ATOM     19  N   UNL     1      -2.536  -0.034  -6.822  0.00  0.00    -0.264 NA
ATOM     20  H   UNL     1      -2.608  -1.027  -6.662  0.00  0.00    +0.137 HD
ATOM     21  H   UNL     1      -2.130   0.433  -6.025  0.00  0.00    +0.137 HD
ENDBRANCH   5  19
BRANCH   1  22
ATOM     22  S   UNL     1      -0.185  -1.146  -6.344  0.00  0.00    -0.115 S 
BRANCH  22  23
ATOM     23  C   UNL     1       1.291  -2.173  -6.584  0.00  0.00    +0.168 C 
BRANCH  23  25
ATOM     24  N   UNL     1       2.578  -3.849  -5.299  0.00  0.00    -0.285 N 
ATOM     25  C   UNL     1       1.530  -3.004  -5.350  0.00  0.00    +0.227 C 
ATOM     26  O   UNL     1       0.778  -2.913  -4.402  0.00  0.00    -0.275 OA
ATOM     27  H   UNL     1       3.224  -3.865  -6.023  0.00  0.00    +0.155 HD
BRANCH  24  30
ATOM     28  C   UNL     1       5.152  -4.968  -4.827  0.00  0.00    +0.047 C 
ATOM     29  C   UNL     1       3.975  -5.272  -3.936  0.00  0.00    -0.011 A 
ATOM     30  C   UNL     1       2.736  -4.704  -4.203  0.00  0.00    +0.038 A 
ATOM     31  C   UNL     1       1.654  -4.986  -3.379  0.00  0.00    +0.023 A 
ATOM     32  C   UNL     1       1.812  -5.830  -2.297  0.00  0.00    +0.003 A 
ATOM     33  C   UNL     1       3.046  -6.394  -2.033  0.00  0.00    +0.020 A 
ATOM     34  C   UNL     1       4.125  -6.120  -2.855  0.00  0.00    +0.046 A 
ATOM     35 CL   UNL     1       5.672  -6.837  -2.524  0.00  0.00    -0.083 Cl
ENDBRANCH  24  30
ENDBRANCH  23  25
ENDBRANCH  22  23
ENDBRANCH   1  22
TORSDOF 7
