REMARK  Name = ZINC15900684
REMARK  3 active torsions:
REMARK  status: ('A' for Active; 'I' for Inactive)
REMARK    1  A    between atoms: C_8  and  C_10
REMARK    2  A    between atoms: N_12  and  N_13
REMARK    3  A    between atoms: C_14  and  C_16
REMARK                            x       y       z     vdW  Elec       q    Type
REMARK                         _______ _______ _______ _____ _____    ______ ____
ROOT
ATOM      1  N   UNL     1       6.748   4.004  -0.041  0.00  0.00    -0.234 N 
ATOM      2  C   UNL     1       7.336   5.217  -0.040  0.00  0.00    +0.235 C 
ATOM      3  O   UNL     1       6.655   6.221  -0.029  0.00  0.00    -0.274 OA
ATOM      4  H   UNL     1       7.293   3.201  -0.050  0.00  0.00    +0.173 HD
ENDROOT
BRANCH   2   5
ATOM      5  C   UNL     1       8.839   5.327  -0.053  0.00  0.00    +0.049 C 
ATOM      6  C   UNL     1       9.411   4.638   1.187  0.00  0.00    +0.019 C 
ATOM      7  C   UNL     1      10.937   4.749   1.173  0.00  0.00    -0.009 C 
ATOM      8  C   UNL     1      11.341   6.225   1.177  0.00  0.00    +0.007 C 
ATOM      9  C   UNL     1      10.768   6.913  -0.063  0.00  0.00    -0.009 C 
ATOM     10  C   UNL     1       9.243   6.802  -0.050  0.00  0.00    +0.019 C 
ATOM     11  C   UNL     1      11.318   6.237  -1.321  0.00  0.00    +0.007 C 
ATOM     12  C   UNL     1      10.914   4.762  -1.325  0.00  0.00    -0.009 C 
ATOM     13  C   UNL     1      11.487   4.073  -0.084  0.00  0.00    +0.007 C 
ATOM     14  C   UNL     1       9.388   4.651  -1.311  0.00  0.00    +0.019 C 
ENDBRANCH   2   5
BRANCH   1  17
ATOM     15  C   UNL     1       4.764   2.689  -0.029  0.00  0.00    +0.295 C 
ATOM     16  O   UNL     1       5.447   1.683  -0.040  0.00  0.00    -0.265 OA
ATOM     17  N   UNL     1       5.351   3.902  -0.028  0.00  0.00    -0.228 N 
ATOM     18  H   UNL     1       4.806   4.705  -0.019  0.00  0.00    +0.173 HD
BRANCH  15  26
ATOM     19  C   UNL     1      -1.203   1.746   0.017  0.00  0.00    +0.001 A 
ATOM     20  C   UNL     1      -1.229   3.134   0.031  0.00  0.00    +0.004 A 
ATOM     21  C   UNL     1      -0.058   3.860   0.023  0.00  0.00    +0.047 A 
ATOM     22  C   UNL     1       1.165   3.201   0.008  0.00  0.00    +0.136 A 
ATOM     23  C   UNL     1       1.186   1.794   0.000  0.00  0.00    +0.021 A 
ATOM     24  C   UNL     1      -0.013   1.076   0.008  0.00  0.00    +0.011 A 
ATOM     25  C   UNL     1       2.599   1.418  -0.015  0.00  0.00    +0.063 A 
ATOM     26  C   UNL     1       3.298   2.583  -0.015  0.00  0.00    +0.192 A 
ATOM     27  O   UNL     1       2.443   3.627  -0.002  0.00  0.00    -0.450 OA
ENDBRANCH  15  26
ENDBRANCH   1  17
TORSDOF 3
