REMARK  Name = ZINC64245302
REMARK  9 active torsions:
REMARK  status: ('A' for Active; 'I' for Inactive)
REMARK    1  A    between atoms: C_1  and  C_2
REMARK    2  A    between atoms: C_2  and  C_3
REMARK    3  A    between atoms: C_2  and  C_4
REMARK    4  A    between atoms: C_4  and  C_5
REMARK    5  A    between atoms: C_5  and  C_6
REMARK    6  A    between atoms: C_6  and  N_7
REMARK    7  A    between atoms: N_7  and  S_8
REMARK    8  A    between atoms: S_8  and  C_11
REMARK    9  A    between atoms: C_14  and  N_16
REMARK                            x       y       z     vdW  Elec       q    Type
REMARK                         _______ _______ _______ _____ _____    ______ ____
ROOT
ATOM      1  S   UNL     1       0.298  -0.980   6.388  0.00  0.00    +0.065 S 
ATOM      2  O   UNL     1      -0.570  -0.398   7.351  0.00  0.00    -0.153 OA
ATOM      3  O   UNL     1       0.337  -2.380   6.147  0.00  0.00    -0.153 OA
ENDROOT
BRANCH   1   4
ATOM      4  C   UNL     1       1.935  -0.499   6.828  0.00  0.00    +0.145 A 
ATOM      5  C   UNL     1       2.344   0.569   7.555  0.00  0.00    +0.038 A 
ATOM      6  C   UNL     1       3.696   0.750   7.778  0.00  0.00    +0.042 A 
ATOM      7  C   UNL     1       4.573  -0.145   7.262  0.00  0.00    +0.165 A 
ATOM      8  S   UNL     1       3.484  -1.296   6.439  0.00  0.00    -0.045 S 
BRANCH   7   9
ATOM      9  N   UNL     1       6.050  -0.168   7.361  0.00  0.00    +0.063 N 
ATOM     10  O   UNL     1       6.628   0.702   7.971  0.00  0.00    -0.126 OA
ATOM     11  O   UNL     1       6.678  -1.055   6.832  0.00  0.00    -0.126 OA
ENDBRANCH   7   9
ENDBRANCH   1   4
BRANCH   1  12
ATOM     12  N   UNL     1      -0.052  -0.260   4.939  0.00  0.00    -0.189 NA
ATOM     13  H   UNL     1      -0.754   0.408   4.886  0.00  0.00    +0.148 HD
BRANCH  12  14
ATOM     14  C   UNL     1       0.698  -0.630   3.737  0.00  0.00    +0.106 C 
BRANCH  14  15
ATOM     15  C   UNL     1      -0.042  -0.124   2.497  0.00  0.00    +0.017 C 
BRANCH  15  16
ATOM     16  C   UNL     1       0.742  -0.511   1.242  0.00  0.00    +0.004 C 
BRANCH  16  18
ATOM     17  C   UNL     1      -0.019   1.526   0.010  0.00  0.00    +0.007 C 
ATOM     18  C   UNL     1       0.002  -0.004   0.002  0.00  0.00    -0.017 C 
ATOM     19  C   UNL     1       0.718  -0.497  -1.257  0.00  0.00    +0.007 C 
ENDBRANCH  16  18
ENDBRANCH  15  16
ENDBRANCH  14  15
ENDBRANCH  12  14
ENDBRANCH   1  12
TORSDOF 7
