REMARK  Name = ZINC66605070
REMARK  7 active torsions:
REMARK  status: ('A' for Active; 'I' for Inactive)
REMARK    1  A    between atoms: C_1  and  N_2
REMARK    2  A    between atoms: N_5  and  C_6
REMARK    3  A    between atoms: C_10  and  N_12
REMARK    4  A    between atoms: C_13  and  C_15
REMARK    5  A    between atoms: C_15  and  O_16
REMARK    6  A    between atoms: O_16  and  C_17
REMARK    7  A    between atoms: C_22  and  C_23
REMARK                            x       y       z     vdW  Elec       q    Type
REMARK                         _______ _______ _______ _____ _____    ______ ____
ROOT
ATOM      1  N   UNL     1       2.005  -6.055  -3.326  0.00  0.00    -0.283 N 
ATOM      2  C   UNL     1       2.743  -6.676  -4.268  0.00  0.00    +0.255 C 
ATOM      3  O   UNL     1       3.327  -6.024  -5.108  0.00  0.00    -0.272 OA
ATOM      4  H   UNL     1       1.484  -6.577  -2.696  0.00  0.00    +0.155 HD
ENDROOT
BRANCH   1   9
ATOM      5  C   UNL     1       1.888  -2.637  -1.964  0.00  0.00    +0.037 A 
ATOM      6  C   UNL     1       1.957  -1.889  -3.133  0.00  0.00    +0.023 A 
ATOM      7  C   UNL     1       2.042  -2.524  -4.357  0.00  0.00    +0.004 A 
ATOM      8  C   UNL     1       2.058  -3.904  -4.423  0.00  0.00    +0.023 A 
ATOM      9  C   UNL     1       1.989  -4.658  -3.259  0.00  0.00    +0.035 A 
ATOM     10  C   UNL     1       1.910  -4.023  -2.027  0.00  0.00    +0.046 A 
BRANCH   5  15
ATOM     11  C   UNL     1       3.075  -2.432   2.697  0.00  0.00    +0.129 C 
ATOM     12  N   UNL     1       2.410  -1.856   1.525  0.00  0.00    -0.302 N 
ATOM     13  C   UNL     1       2.414  -2.523   0.353  0.00  0.00    +0.304 C 
ATOM     14  O   UNL     1       2.969  -3.601   0.269  0.00  0.00    -0.253 OA
ATOM     15  N   UNL     1       1.802  -1.994  -0.725  0.00  0.00    -0.269 N 
ATOM     16  H   UNL     1       1.966  -0.996   1.592  0.00  0.00    +0.150 HD
ATOM     17  H   UNL     1       1.302  -1.167  -0.641  0.00  0.00    +0.156 HD
ENDBRANCH   5  15
ENDBRANCH   1   9
BRANCH   2  18
ATOM     18  C   UNL     1       2.843  -8.180  -4.277  0.00  0.00    +0.324 C 
BRANCH  18  19
ATOM     19  O   UNL     1       3.675  -8.595  -5.362  0.00  0.00    -0.482 OA
BRANCH  19  20
ATOM     20  C   UNL     1       3.870  -9.929  -5.512  0.00  0.00    +0.131 A 
ATOM     21  C   UNL     1       3.270 -10.824  -4.639  0.00  0.00    +0.046 A 
ATOM     22  C   UNL     1       3.469 -12.181  -4.793  0.00  0.00    +0.004 A 
ATOM     23  C   UNL     1       4.269 -12.662  -5.819  0.00  0.00    +0.001 A 
ATOM     24  C   UNL     1       4.874 -11.790  -6.696  0.00  0.00    +0.015 A 
ATOM     25  C   UNL     1       4.676 -10.411  -6.557  0.00  0.00    +0.056 A 
BRANCH  25  26
ATOM     26  C   UNL     1       5.312  -9.475  -7.492  0.00  0.00    +0.262 C 
ATOM     27  O   UNL     1       6.007  -9.895  -8.392  0.00  0.00    -0.296 OA
ENDBRANCH  25  26
ENDBRANCH  19  20
ENDBRANCH  18  19
ENDBRANCH   2  18
TORSDOF 6
