REMARK  Name = ZINC09908999
REMARK  3 active torsions:
REMARK  status: ('A' for Active; 'I' for Inactive)
REMARK    1  A    between atoms: C_4  and  C_7
REMARK    2  A    between atoms: C_9  and  C_12
REMARK    3  A    between atoms: C_12  and  N_13
REMARK                            x       y       z     vdW  Elec       q    Type
REMARK                         _______ _______ _______ _____ _____    ______ ____
ROOT
ATOM      1  N   UNL     1       1.088   1.971   0.002  0.00  0.00    -0.218 N 
ATOM      2  C   UNL     1       0.786   3.285   0.012  0.00  0.00    +0.251 C 
ATOM      3  O   UNL     1       1.562   4.216   0.010  0.00  0.00    -0.272 OA
ATOM      4  C   UNL     1      -0.725   3.353   0.026  0.00  0.00    +0.138 C 
ATOM      5  C   UNL     1      -1.212   4.048   1.292  0.00  0.00    +0.040 C 
ATOM      6  C   UNL     1      -2.728   4.249   1.180  0.00  0.00    +0.008 C 
ATOM      7  C   UNL     1      -2.999   5.292   0.097  0.00  0.00    +0.035 C 
ATOM      8  C   UNL     1      -2.278   4.938  -1.177  0.00  0.00    -0.042 A 
ATOM      9  C   UNL     1      -1.226   4.048  -1.208  0.00  0.00    -0.012 A 
ATOM     10  C   UNL     1      -0.595   3.773  -2.414  0.00  0.00    +0.006 A 
ATOM     11  C   UNL     1      -1.015   4.380  -3.580  0.00  0.00    +0.000 A 
ATOM     12  C   UNL     1      -2.074   5.267  -3.549  0.00  0.00    +0.000 A 
ATOM     13  C   UNL     1      -2.701   5.544  -2.352  0.00  0.00    +0.004 A 
ATOM     14  N   UNL     1      -1.144   1.945   0.018  0.00  0.00    -0.281 N 
ATOM     15  C   UNL     1      -0.014   1.211   0.009  0.00  0.00    +0.310 C 
ATOM     16  O   UNL     1       0.002  -0.004   0.002  0.00  0.00    -0.252 OA
ATOM     17  H   UNL     1      -2.054   1.609   0.020  0.00  0.00    +0.152 HD
ENDROOT
BRANCH   1  18
ATOM     18  C   UNL     1       2.453   1.440  -0.014  0.00  0.00    +0.174 C 
BRANCH  18  21
ATOM     19  C   UNL     1       2.995  -0.011  -3.351  0.00  0.00    +0.109 A 
ATOM     20  N   UNL     1       2.608   0.169  -2.096  0.00  0.00    -0.242 NA
ATOM     21  C   UNL     1       2.907   1.265  -1.440  0.00  0.00    +0.067 A 
ATOM     22  C   UNL     1       3.623   2.246  -2.052  0.00  0.00    +0.072 A 
ATOM     23  S   UNL     1       3.876   1.513  -3.664  0.00  0.00    -0.075 S 
BRANCH  19  27
ATOM     24  C   UNL     1       2.322  -3.315  -5.934  0.00  0.00    +0.000 A 
ATOM     25  C   UNL     1       3.041  -2.223  -6.386  0.00  0.00    +0.001 A 
ATOM     26  C   UNL     1       3.263  -1.146  -5.552  0.00  0.00    +0.010 A 
ATOM     27  C   UNL     1       2.761  -1.161  -4.250  0.00  0.00    +0.007 A 
ATOM     28  C   UNL     1       2.042  -2.269  -3.798  0.00  0.00    +0.010 A 
ATOM     29  C   UNL     1       1.822  -3.336  -4.644  0.00  0.00    +0.001 A 
ENDBRANCH  19  27
ENDBRANCH  18  21
ENDBRANCH   1  18
TORSDOF 3
