REMARK  Name = ZINC38592681
REMARK  5 active torsions:
REMARK  status: ('A' for Active; 'I' for Inactive)
REMARK    1  A    between atoms: C_1  and  C_2
REMARK    2  A    between atoms: C_2  and  C_3
REMARK    3  A    between atoms: C_2  and  C_4
REMARK    4  A    between atoms: C_2  and  C_5
REMARK    5  A    between atoms: N_17  and  N_18
REMARK                            x       y       z     vdW  Elec       q    Type
REMARK                         _______ _______ _______ _____ _____    ______ ____
ROOT
ATOM      1  C   UNL     1       0.718  -0.497  -1.257  0.00  0.00    -0.004 C 
ATOM      2  C   UNL     1      -0.035  -0.003  -2.489  0.00  0.00    +0.008 C 
ATOM      3  C   UNL     1       0.613  -0.550  -3.768  0.00  0.00    +0.033 C 
ATOM      4  C   UNL     1       2.094  -0.184  -3.697  0.00  0.00    -0.042 C 
ATOM      5  C   UNL     1       2.757   0.484  -4.638  0.00  0.00    +0.069 C 
ATOM      6  C   UNL     1       4.145   0.931  -4.339  0.00  0.00    +0.089 C 
ATOM      7  N   UNL     1       4.855   1.631  -5.187  0.00  0.00    -0.323 N 
ATOM      8  C   UNL     1       4.292   1.942  -6.364  0.00  0.00    +0.200 C 
ATOM      9  N   UNL     1       3.075   1.602  -6.736  0.00  0.00    -0.144 NA
ATOM     10  C   UNL     1       2.221   0.893  -5.981  0.00  0.00    +0.273 C 
ATOM     11  O   UNL     1       1.097   0.604  -6.355  0.00  0.00    -0.268 OA
ATOM     12  N   UNL     1       5.044   2.674  -7.252  0.00  0.00    -0.255 N 
ATOM     13  S   UNL     1       4.481   0.302  -2.725  0.00  0.00    -0.099 S 
ATOM     14  C   UNL     1       2.894  -0.576  -2.454  0.00  0.00    +0.080 C 
ATOM     15  C   UNL     1       2.159   0.022  -1.252  0.00  0.00    +0.023 C 
ATOM     16  H   UNL     1       5.757   1.915  -4.971  0.00  0.00    +0.169 HD
ATOM     17  H   UNL     1       5.945   2.944  -7.017  0.00  0.00    +0.169 HD
ENDROOT
BRANCH   1  19
ATOM     18  C   UNL     1      -0.019   1.526   0.010  0.00  0.00    +0.011 C 
ATOM     19  C   UNL     1       0.002  -0.004   0.002  0.00  0.00    -0.035 C 
ATOM     20  C   UNL     1       0.742  -0.511   1.242  0.00  0.00    +0.011 C 
ATOM     21  C   UNL     1      -1.433  -0.534   0.013  0.00  0.00    +0.011 C 
ENDBRANCH   1  19
BRANCH  12  22
ATOM     22  N   UNL     1       4.522   3.020  -8.466  0.00  0.00    -0.254 NA
ATOM     23  H   UNL     1       5.187   3.553  -9.007  0.00  0.00    +0.140 HD
ATOM     24  H   UNL     1       4.215   2.204  -8.973  0.00  0.00    +0.140 HD
ENDBRANCH  12  22
TORSDOF 2
