REMARK  Name = ZINC06359387
REMARK  8 active torsions:
REMARK  status: ('A' for Active; 'I' for Inactive)
REMARK    1  A    between atoms: C_1  and  C_2
REMARK    2  A    between atoms: C_2  and  C_3
REMARK    3  A    between atoms: N_7  and  N_8
REMARK    4  A    between atoms: N_9  and  N_10
REMARK    5  A    between atoms: C_11  and  C_12
REMARK    6  A    between atoms: C_14  and  O_20
REMARK    7  A    between atoms: C_15  and  O_19
REMARK    8  A    between atoms: O_20  and  C_21
REMARK                            x       y       z     vdW  Elec       q    Type
REMARK                         _______ _______ _______ _____ _____    ______ ____
ROOT
ATOM      1  N   UNL     1      -4.315   1.940  -0.171  0.00  0.00    -0.188 NA
ATOM      2  C   UNL     1      -5.146   1.792   0.815  0.00  0.00    +0.138 C 
ENDROOT
BRANCH   1   8
ATOM      3  C   UNL     1      -0.282   1.804  -2.289  0.00  0.00    +0.152 A 
ATOM      4  N   UNL     1      -1.301   2.228  -2.982  0.00  0.00    -0.131 NA
ATOM      5  N   UNL     1      -2.364   2.212  -2.258  0.00  0.00    -0.110 NA
ATOM      6  C   UNL     1      -2.077   1.768  -1.057  0.00  0.00    +0.254 A 
ATOM      7  N   UNL     1      -0.741   1.490  -1.041  0.00  0.00    -0.220 N 
ATOM      8  N   UNL     1      -2.964   1.611  -0.004  0.00  0.00    -0.204 N 
ATOM      9  H   UNL     1      -2.649   1.272   0.848  0.00  0.00    +0.177 HD
BRANCH   7  10
ATOM     10  N   UNL     1      -0.012   1.005   0.008  0.00  0.00    -0.294 N 
ATOM     11  H   UNL     1       0.002  -0.004   0.002  0.00  0.00    +0.163 HD
ATOM     12  H   UNL     1       0.925   1.379   0.001  0.00  0.00    +0.163 HD
ENDBRANCH   7  10
BRANCH   3  14
ATOM     13  C   UNL     1       1.352   0.289  -3.378  0.00  0.00    +0.012 C 
ATOM     14  C   UNL     1       1.139   1.680  -2.776  0.00  0.00    +0.074 C 
ENDBRANCH   3  14
ENDBRANCH   1   8
BRANCH   2  15
ATOM     15  C   UNL     1      -6.568   2.139   0.639  0.00  0.00    -0.001 A 
ATOM     16  C   UNL     1      -7.464   1.980   1.700  0.00  0.00    +0.059 A 
ATOM     17  C   UNL     1      -8.797   2.307   1.530  0.00  0.00    +0.163 A 
ATOM     18  C   UNL     1      -9.244   2.794   0.304  0.00  0.00    +0.173 A 
ATOM     19  C   UNL     1      -8.355   2.952  -0.750  0.00  0.00    +0.063 A 
ATOM     20  C   UNL     1      -7.022   2.632  -0.586  0.00  0.00    +0.028 A 
ATOM     21 BR   UNL     1      -8.970   3.612  -2.412  0.00  0.00    -0.046 Br
BRANCH  18  22
ATOM     22  O   UNL     1     -10.555   3.115   0.139  0.00  0.00    -0.503 OA
ATOM     23  H   UNL     1     -10.766   4.033   0.358  0.00  0.00    +0.292 HD
ENDBRANCH  18  22
BRANCH  17  24
ATOM     24  O   UNL     1      -9.671   2.154   2.561  0.00  0.00    -0.491 OA
ATOM     25  C   UNL     1      -9.143   1.651   3.790  0.00  0.00    +0.277 C 
ENDBRANCH  17  24
ENDBRANCH   2  15
TORSDOF 6
