REMARK  Name = ZINC59385355
REMARK  5 active torsions:
REMARK  status: ('A' for Active; 'I' for Inactive)
REMARK    1  A    between atoms: C_3  and  O_21
REMARK    2  A    between atoms: C_6  and  C_7
REMARK    3  A    between atoms: N_8  and  N_9
REMARK    4  A    between atoms: C_14  and  C_17
REMARK    5  A    between atoms: C_17  and  C_18
REMARK                            x       y       z     vdW  Elec       q    Type
REMARK                         _______ _______ _______ _____ _____    ______ ____
ROOT
ATOM      1  N   UNL     1      -2.347  -2.727   0.011  0.00  0.00    -0.127 NA
ATOM      2  C   UNL     1      -2.326  -4.043   0.004  0.00  0.00    +0.183 C 
ATOM      3  N   UNL     1      -3.398  -4.912   0.004  0.00  0.00    -0.263 N 
ATOM      4  C   UNL     1      -3.247  -6.225  -0.004  0.00  0.00    +0.233 C 
ATOM      5  O   UNL     1      -4.194  -6.982  -0.003  0.00  0.00    -0.274 OA
ATOM      6  C   UNL     1      -1.811  -6.726  -0.013  0.00  0.00    +0.151 C 
ATOM      7  S   UNL     1      -0.904  -5.125  -0.017  0.00  0.00    -0.075 S 
ATOM      8  H   UNL     1      -4.296  -4.545   0.010  0.00  0.00    +0.157 HD
ENDROOT
BRANCH   1  10
ATOM      9  C   UNL     1      -1.260  -0.759   0.011  0.00  0.00    +0.143 C 
ATOM     10  N   UNL     1      -1.240  -2.065   0.003  0.00  0.00    -0.155 NA
BRANCH   9  16
ATOM     11  C   UNL     1      -0.017   1.395   0.010  0.00  0.00    +0.013 A 
ATOM     12  C   UNL     1       1.168   2.097   0.002  0.00  0.00    +0.046 A 
ATOM     13  C   UNL     1       2.381   1.419  -0.013  0.00  0.00    +0.117 A 
ATOM     14  C   UNL     1       2.405   0.030  -0.021  0.00  0.00    +0.046 A 
ATOM     15  C   UNL     1       1.226  -0.682  -0.013  0.00  0.00    +0.013 A 
ATOM     16  C   UNL     1       0.002  -0.004   0.002  0.00  0.00    -0.005 A 
BRANCH  13  17
ATOM     17  O   UNL     1       3.546   2.117  -0.021  0.00  0.00    -0.507 OA
ATOM     18  H   UNL     1       3.892   2.314   0.860  0.00  0.00    +0.292 HD
ENDBRANCH  13  17
ENDBRANCH   9  16
ENDBRANCH   1  10
BRANCH   6  19
ATOM     19  C   UNL     1      -1.501  -7.543   1.242  0.00  0.00    +0.149 C 
BRANCH  19  20
ATOM     20  C   UNL     1      -0.113  -8.121   1.135  0.00  0.00    +0.358 C 
ATOM     21  O   UNL     1       0.565  -7.900   0.146  0.00  0.00    -0.246 OA
ATOM     22  O   UNL     1       0.332  -8.810   2.038  0.00  0.00    -0.246 OA
ENDBRANCH  19  20
ENDBRANCH   6  19
TORSDOF 5
