REMARK  Name = ZINC24504946
REMARK  9 active torsions:
REMARK  status: ('A' for Active; 'I' for Inactive)
REMARK    1  A    between atoms: C_1  and  C_2
REMARK    2  A    between atoms: C_2  and  O_3
REMARK    3  A    between atoms: O_3  and  C_4
REMARK    4  A    between atoms: C_4  and  C_6
REMARK    5  A    between atoms: C_7  and  C_16
REMARK    6  A    between atoms: C_16  and  N_17
REMARK    7  A    between atoms: C_20  and  C_24
REMARK    8  A    between atoms: C_20  and  C_25
REMARK    9  A    between atoms: C_28  and  C_31
REMARK                            x       y       z     vdW  Elec       q    Type
REMARK                         _______ _______ _______ _____ _____    ______ ____
ROOT
ATOM      1  N   UNL     1      -0.139   4.767   1.396  0.00  0.00    -0.219 N 
ATOM      2  C   UNL     1       0.413   5.770   2.107  0.00  0.00    +0.251 C 
ATOM      3  O   UNL     1       1.266   6.548   1.735  0.00  0.00    -0.272 OA
ATOM      4  C   UNL     1      -0.255   5.725   3.467  0.00  0.00    +0.135 C 
ATOM      5  N   UNL     1      -1.194   4.596   3.354  0.00  0.00    -0.281 N 
ATOM      6  C   UNL     1      -1.057   4.104   2.109  0.00  0.00    +0.310 C 
ATOM      7  O   UNL     1      -1.694   3.161   1.681  0.00  0.00    -0.252 OA
ATOM      8  C   UNL     1       0.778   5.463   4.565  0.00  0.00    +0.047 C 
ATOM      9  H   UNL     1      -1.826   4.319   4.210  0.00  0.00    +0.152 HD
ENDROOT
BRANCH   4  10
ATOM     10  C   UNL     1      -0.999   7.008   3.735  0.00  0.00    -0.015 A 
ATOM     11  C   UNL     1      -0.546   8.194   3.186  0.00  0.00    +0.007 A 
ATOM     12  C   UNL     1      -1.225   9.371   3.424  0.00  0.00    +0.019 A 
ATOM     13  C   UNL     1      -2.365   9.366   4.230  0.00  0.00    +0.052 A 
ATOM     14  C   UNL     1      -2.813   8.166   4.785  0.00  0.00    +0.019 A 
ATOM     15  C   UNL     1      -2.128   6.995   4.535  0.00  0.00    +0.007 A 
BRANCH  13  16
ATOM     16  C   UNL     1      -3.071  10.585   4.485  0.00  0.00    +0.099 C 
ATOM     17  N   UNL     1      -3.632  11.552   4.687  0.00  0.00    -0.191 NA
ENDBRANCH  13  16
ENDBRANCH   4  10
BRANCH   1  18
ATOM     18  C   UNL     1       0.217   4.446   0.012  0.00  0.00    +0.157 C 
BRANCH  18  20
ATOM     19  C   UNL     1       1.245   2.096   0.001  0.00  0.00    +0.217 A 
ATOM     20  C   UNL     1       1.348   3.451   0.002  0.00  0.00    +0.030 A 
ATOM     21  C   UNL     1       2.780   3.748  -0.005  0.00  0.00    +0.027 A 
ATOM     22  C   UNL     1       3.530   4.926  -0.006  0.00  0.00    +0.027 A 
ATOM     23  C   UNL     1       4.895   4.861  -0.019  0.00  0.00    +0.019 A 
ATOM     24  C   UNL     1       5.540   3.631  -0.032  0.00  0.00    +0.019 A 
ATOM     25  C   UNL     1       4.818   2.457  -0.032  0.00  0.00    +0.048 A 
ATOM     26  C   UNL     1       3.429   2.499  -0.018  0.00  0.00    +0.136 A 
ATOM     27  O   UNL     1       2.477   1.545  -0.014  0.00  0.00    -0.448 OA
ATOM     28 BR   UNL     1       5.912   6.455  -0.019  0.00  0.00    -0.050 Br
BRANCH  19  29
ATOM     29  C   UNL     1      -0.016   1.344   0.009  0.00  0.00    +0.375 C 
ATOM     30  O   UNL     1      -1.077   1.938   0.018  0.00  0.00    -0.241 OA
BRANCH  29  31
ATOM     31  O   UNL     1       0.002  -0.004   0.002  0.00  0.00    -0.459 OA
BRANCH  31  33
ATOM     32  C   UNL     1      -1.062  -2.195   0.000  0.00  0.00    +0.048 C 
ATOM     33  C   UNL     1      -1.282  -0.681   0.011  0.00  0.00    +0.229 C 
ENDBRANCH  31  33
ENDBRANCH  29  31
ENDBRANCH  19  29
ENDBRANCH  18  20
ENDBRANCH   1  18
TORSDOF 7
