REMARK  Name = ZINC08636352
REMARK  10 active torsions:
REMARK  status: ('A' for Active; 'I' for Inactive)
REMARK    1  A    between atoms: C_1  and  O_2
REMARK    2  A    between atoms: O_2  and  C_3
REMARK    3  A    between atoms: C_6  and  N_9
REMARK    4  A    between atoms: C_12  and  C_26
REMARK    5  A    between atoms: C_15  and  O_25
REMARK    6  A    between atoms: C_17  and  O_24
REMARK    7  A    between atoms: N_28  and  C_29
REMARK    8  A    between atoms: C_29  and  C_30
REMARK    9  A    between atoms: C_35  and  O_36
REMARK   10  A    between atoms: O_36  and  C_37
REMARK                            x       y       z     vdW  Elec       q    Type
REMARK                         _______ _______ _______ _____ _____    ______ ____
ROOT
ATOM      1  N   UNL     1       1.541   1.558   0.424  0.00  0.00    -0.277 N 
ATOM      2  C   UNL     1       2.667   0.637   0.268  0.00  0.00    +0.115 C 
ATOM      3  C   UNL     1       3.725   1.098  -0.670  0.00  0.00    +0.100 C 
ATOM      4  C   UNL     1       3.633   0.557  -2.078  0.00  0.00    +0.048 C 
ATOM      5  C   UNL     1       3.361  -0.932  -2.094  0.00  0.00    +0.146 C 
ATOM      6  C   UNL     1       2.123  -1.300  -1.317  0.00  0.00    +0.165 C 
ATOM      7  C   UNL     1       2.048  -0.729   0.079  0.00  0.00    +0.124 C 
ATOM      8  N   UNL     1       0.619  -0.494   0.401  0.00  0.00    -0.319 N 
ATOM      9  C   UNL     1       0.419   0.826   0.533  0.00  0.00    +0.138 C 
ATOM     10  S   UNL     1      -1.124   1.514   0.808  0.00  0.00    -0.018 S 
ATOM     11  H   UNL     1      -0.058  -1.181   0.499  0.00  0.00    +0.148 HD
ENDROOT
BRANCH   1  15
ATOM     12  C   UNL     1       1.773   5.720   0.515  0.00  0.00    +0.120 A 
ATOM     13  C   UNL     1       2.456   4.967   1.459  0.00  0.00    +0.047 A 
ATOM     14  C   UNL     1       2.380   3.588   1.429  0.00  0.00    +0.027 A 
ATOM     15  C   UNL     1       1.619   2.956   0.455  0.00  0.00    +0.036 A 
ATOM     16  C   UNL     1       0.940   3.710  -0.493  0.00  0.00    +0.027 A 
ATOM     17  C   UNL     1       1.013   5.089  -0.459  0.00  0.00    +0.047 A 
BRANCH  12  19
ATOM     18  C   UNL     1       1.119   7.789  -0.457  0.00  0.00    +0.277 C 
ATOM     19  O   UNL     1       1.848   7.077   0.545  0.00  0.00    -0.495 OA
ENDBRANCH  12  19
ENDBRANCH   1  15
BRANCH   3  20
ATOM     20  C   UNL     1       3.672   2.603  -0.738  0.00  0.00    +0.218 C 
ATOM     21  O   UNL     1       2.816   3.150  -1.400  0.00  0.00    -0.275 OA
ATOM     22  N   UNL     1       4.577   3.340  -0.063  0.00  0.00    -0.311 N 
ATOM     23  H   UNL     1       5.202   2.908   0.540  0.00  0.00    +0.149 HD
BRANCH  22  24
ATOM     24  C   UNL     1       4.615   4.794  -0.241  0.00  0.00    +0.143 C 
BRANCH  24  25
ATOM     25  C   UNL     1       5.790   5.361   0.514  0.00  0.00    +0.011 A 
ATOM     26  C   UNL     1       5.599   5.946   1.751  0.00  0.00    +0.009 A 
ATOM     27  C   UNL     1       6.676   6.466   2.444  0.00  0.00    +0.001 A 
ATOM     28  C   UNL     1       7.947   6.401   1.902  0.00  0.00    +0.004 A 
ATOM     29  C   UNL     1       8.143   5.818   0.666  0.00  0.00    +0.046 A 
ATOM     30  C   UNL     1       7.064   5.290  -0.029  0.00  0.00    +0.125 A 
BRANCH  30  31
ATOM     31  O   UNL     1       7.255   4.709  -1.243  0.00  0.00    -0.495 OA
ATOM     32  C   UNL     1       8.594   4.672  -1.741  0.00  0.00    +0.277 C 
ENDBRANCH  30  31
ENDBRANCH  24  25
ENDBRANCH  22  24
ENDBRANCH   3  20
BRANCH   6  33
ATOM     33  O   UNL     1       0.982  -0.848  -2.050  0.00  0.00    -0.387 OA
ATOM     34  H   UNL     1       0.948  -1.168  -2.962  0.00  0.00    +0.210 HD
ENDBRANCH   6  33
BRANCH   5  35
ATOM     35  O   UNL     1       4.482  -1.614  -1.527  0.00  0.00    -0.389 OA
ATOM     36  H   UNL     1       5.320  -1.429  -1.972  0.00  0.00    +0.210 HD
ENDBRANCH   5  35
TORSDOF 8
