REMARK  Name = ZINC36016866
REMARK  12 active torsions:
REMARK  status: ('A' for Active; 'I' for Inactive)
REMARK    1  A    between atoms: C_1  and  C_2
REMARK    2  A    between atoms: C_2  and  N_3
REMARK    3  A    between atoms: C_4  and  C_21
REMARK    4  A    between atoms: C_5  and  C_16
REMARK    5  A    between atoms: C_6  and  C_11
REMARK    6  A    between atoms: C_16  and  O_18
REMARK    7  A    between atoms: O_18  and  C_19
REMARK    8  A    between atoms: C_19  and  C_20
REMARK    9  A    between atoms: C_21  and  N_22
REMARK   10  A    between atoms: N_30  and  C_31
REMARK   11  A    between atoms: C_31  and  C_32
REMARK   12  A    between atoms: C_31  and  C_33
REMARK                            x       y       z     vdW  Elec       q    Type
REMARK                         _______ _______ _______ _____ _____    ______ ____
ROOT
ATOM      1  N   UNL     1       0.803  -0.255   1.379  0.00  0.00    -0.258 N 
ATOM      2  C   UNL     1       2.027  -0.792   1.100  0.00  0.00    +0.041 C 
ATOM      3  C   UNL     1       2.688  -1.533   2.016  0.00  0.00    +0.080 C 
ATOM      4  C   UNL     1       2.025  -1.747   3.361  0.00  0.00    +0.144 C 
ATOM      5  N   UNL     1       0.705  -1.125   3.562  0.00  0.00    -0.288 N 
ATOM      6  C   UNL     1       0.174  -0.408   2.552  0.00  0.00    +0.307 C 
ATOM      7  O   UNL     1      -0.913   0.113   2.709  0.00  0.00    -0.252 OA
ATOM      8  H   UNL     1       0.231  -1.226   4.402  0.00  0.00    +0.151 HD
ENDROOT
BRANCH   4   9
ATOM      9  C   UNL     1       2.953  -1.220   4.425  0.00  0.00    -0.015 A 
ATOM     10  C   UNL     1       3.758  -2.083   5.144  0.00  0.00    +0.013 A 
ATOM     11  C   UNL     1       4.582  -1.576   6.094  0.00  0.00    +0.045 A 
ATOM     12  S   UNL     1       4.230   0.172   5.993  0.00  0.00    -0.105 S 
ATOM     13  C   UNL     1       3.014   0.109   4.688  0.00  0.00    +0.051 A 
ENDBRANCH   4   9
BRANCH   1  15
ATOM     14  C   UNL     1       0.544   2.008   0.487  0.00  0.00    +0.025 C 
ATOM     15  C   UNL     1       0.143   0.539   0.340  0.00  0.00    +0.111 C 
ENDBRANCH   1  15
BRANCH   3  16
ATOM     16  C   UNL     1       3.955  -2.091   1.728  0.00  0.00    +0.339 C 
ATOM     17  O   UNL     1       4.502  -1.845   0.669  0.00  0.00    -0.245 OA
BRANCH  16  18
ATOM     18  O   UNL     1       4.558  -2.896   2.627  0.00  0.00    -0.462 OA
BRANCH  18  19
ATOM     19  C   UNL     1       5.837  -3.424   2.271  0.00  0.00    +0.229 C 
ATOM     20  C   UNL     1       6.359  -4.306   3.406  0.00  0.00    +0.048 C 
ENDBRANCH  18  19
ENDBRANCH  16  18
ENDBRANCH   3  16
BRANCH   2  21
ATOM     21  C   UNL     1       2.650  -0.554  -0.251  0.00  0.00    +0.136 C 
BRANCH  21  22
ATOM     22  N   UNL     1       2.441  -1.734  -1.101  0.00  0.00    -0.294 NA
ATOM     23  C   UNL     1       1.009  -1.975  -1.325  0.00  0.00    +0.104 C 
ATOM     24  C   UNL     1       0.827  -3.308  -2.058  0.00  0.00    +0.124 C 
ATOM     25  N   UNL     1       1.652  -3.287  -3.276  0.00  0.00    -0.283 N 
ATOM     26  C   UNL     1       3.071  -2.919  -3.149  0.00  0.00    +0.124 C 
ATOM     27  C   UNL     1       3.164  -1.602  -2.373  0.00  0.00    +0.104 C 
ATOM     28  C   UNL     1       1.123  -3.598  -4.476  0.00  0.00    +0.302 C 
ATOM     29  O   UNL     1      -0.070  -3.808  -4.577  0.00  0.00    -0.253 OA
ATOM     30  N   UNL     1       1.916  -3.675  -5.563  0.00  0.00    -0.297 N 
ATOM     31  H   UNL     1       2.877  -3.581  -5.470  0.00  0.00    +0.150 HD
BRANCH  30  32
ATOM     32  C   UNL     1       1.327  -3.902  -6.885  0.00  0.00    +0.068 C 
ATOM     33  C   UNL     1       0.886  -2.565  -7.483  0.00  0.00    +0.027 C 
ATOM     34  C   UNL     1       2.365  -4.553  -7.801  0.00  0.00    +0.027 C 
ENDBRANCH  30  32
ENDBRANCH  21  22
ENDBRANCH   2  21
TORSDOF 8
