REMARK  Name = ZINC08995063
REMARK  2 active torsions:
REMARK  status: ('A' for Active; 'I' for Inactive)
REMARK    1  A    between atoms: C_7  and  C_12
REMARK    2  A    between atoms: N_18  and  C_21
REMARK                            x       y       z     vdW  Elec       q    Type
REMARK                         _______ _______ _______ _____ _____    ______ ____
ROOT
ATOM      1  C   UNL     1       1.022  -2.800  -1.256  0.00  0.00    +0.126 A 
ATOM      2  C   UNL     1       1.480  -2.432  -2.534  0.00  0.00    +0.265 A 
ATOM      3  N   UNL     1       0.970  -3.040  -3.623  0.00  0.00    -0.274 N 
ATOM      4  H   UNL     1       1.284  -2.788  -4.506  0.00  0.00    +0.173 HD
ATOM      5  C   UNL     1       0.028  -3.992  -3.497  0.00  0.00    +0.337 A 
ATOM      6  O   UNL     1      -0.419  -4.529  -4.492  0.00  0.00    -0.246 OA
ATOM      7  N   UNL     1      -0.425  -4.361  -2.284  0.00  0.00    -0.227 N 
ATOM      8  C   UNL     1       0.071  -3.771  -1.147  0.00  0.00    +0.272 A 
ATOM      9  O   UNL     1      -0.383  -4.146   0.068  0.00  0.00    -0.267 OA
ATOM     10  O   UNL     1       2.333  -1.570  -2.655  0.00  0.00    -0.267 OA
ENDROOT
BRANCH   1  17
ATOM     11  C   UNL     1      -0.017   1.381   0.010  0.00  0.00    +0.000 A 
ATOM     12  C   UNL     1       1.169   2.094   0.002  0.00  0.00    +0.001 A 
ATOM     13  C   UNL     1       2.380   1.432  -0.013  0.00  0.00    +0.015 A 
ATOM     14  C   UNL     1       2.406   0.037  -0.021  0.00  0.00    +0.066 A 
ATOM     15  C   UNL     1       1.203  -0.674  -0.013  0.00  0.00    +0.012 A 
ATOM     16  C   UNL     1       0.002  -0.004   0.002  0.00  0.00    +0.008 A 
ATOM     17  C   UNL     1       1.578  -2.134  -0.024  0.00  0.00    +0.248 C 
ATOM     18  O   UNL     1       3.007  -2.192  -0.038  0.00  0.00    -0.448 OA
ATOM     19  C   UNL     1       3.506  -0.945  -0.037  0.00  0.00    +0.340 C 
ATOM     20  O   UNL     1       4.688  -0.667  -0.047  0.00  0.00    -0.245 OA
ENDBRANCH   1  17
BRANCH   7  21
ATOM     21  C   UNL     1      -1.406  -5.356  -2.181  0.00  0.00    +0.073 A 
ATOM     22  C   UNL     1      -1.036  -6.688  -2.058  0.00  0.00    +0.028 A 
ATOM     23  C   UNL     1      -2.005  -7.667  -1.955  0.00  0.00    +0.002 A 
ATOM     24  C   UNL     1      -3.344  -7.322  -1.976  0.00  0.00    +0.002 A 
ATOM     25  C   UNL     1      -3.717  -5.997  -2.098  0.00  0.00    +0.022 A 
ATOM     26  C   UNL     1      -2.752  -5.011  -2.196  0.00  0.00    +0.065 A 
ATOM     27 CL   UNL     1      -3.221  -3.347  -2.343  0.00  0.00    -0.081 Cl
ENDBRANCH   7  21
TORSDOF 2
