REMARK  Name = ZINC63242481
REMARK  10 active torsions:
REMARK  status: ('A' for Active; 'I' for Inactive)
REMARK    1  A    between atoms: C_1  and  C_2
REMARK    2  A    between atoms: C_4  and  C_25
REMARK    3  A    between atoms: C_5  and  S_21
REMARK    4  A    between atoms: C_7  and  C_8
REMARK    5  A    between atoms: N_10  and  C_11
REMARK    6  A    between atoms: C_11  and  C_12
REMARK    7  A    between atoms: C_12  and  C_13
REMARK    8  A    between atoms: C_12  and  N_14
REMARK    9  A    between atoms: C_19  and  C_20
REMARK   10  A    between atoms: S_21  and  N_24
REMARK                            x       y       z     vdW  Elec       q    Type
REMARK                         _______ _______ _______ _____ _____    ______ ____
ROOT
ATOM      1  C   UNL     1       0.879  -0.557   2.302  0.00  0.00    +0.244 C 
ATOM      2  O   UNL     1       0.714   0.633   2.117  0.00  0.00    -0.270 OA
ATOM      3  N   UNL     1       0.915  -1.046   3.557  0.00  0.00    -0.313 N 
ATOM      4  H   UNL     1       1.121  -1.982   3.708  0.00  0.00    +0.149 HD
ENDROOT
BRANCH   1  11
ATOM      5  C   UNL     1       0.849   0.515  -0.385  0.00  0.00    +0.044 C 
ATOM      6  C   UNL     1       1.026  -0.963  -0.152  0.00  0.00    -0.038 A 
ATOM      7  C   UNL     1       1.183  -1.818  -1.223  0.00  0.00    +0.009 A 
ATOM      8  C   UNL     1       1.346  -3.176  -1.010  0.00  0.00    -0.024 A 
ATOM      9  C   UNL     1       1.354  -3.684   0.277  0.00  0.00    +0.109 A 
ATOM     10  C   UNL     1       1.199  -2.840   1.356  0.00  0.00    +0.042 A 
ATOM     11  C   UNL     1       1.039  -1.469   1.149  0.00  0.00    +0.041 A 
ATOM     12  C   UNL     1       1.515  -4.104  -2.185  0.00  0.00    +0.046 C 
BRANCH   9  13
ATOM     13  S   UNL     1       1.561  -5.415   0.536  0.00  0.00    +0.056 S 
ATOM     14  O   UNL     1       2.680  -5.811  -0.244  0.00  0.00    -0.153 OA
ATOM     15  O   UNL     1       1.499  -5.625   1.940  0.00  0.00    -0.153 OA
BRANCH  13  16
ATOM     16  N   UNL     1       0.239  -6.170  -0.114  0.00  0.00    -0.204 NA
ATOM     17  H   UNL     1      -0.460  -5.646  -0.536  0.00  0.00    +0.144 HD
ATOM     18  H   UNL     1       0.163  -7.136  -0.073  0.00  0.00    +0.144 HD
ENDBRANCH  13  16
ENDBRANCH   9  13
ENDBRANCH   1  11
BRANCH   3  19
ATOM     19  C   UNL     1       0.643  -0.164   4.695  0.00  0.00    +0.089 C 
BRANCH  19  20
ATOM     20  C   UNL     1       0.615  -0.987   5.984  0.00  0.00    -0.054 C 
ATOM     21  C   UNL     1       0.226  -0.085   7.157  0.00  0.00    -0.012 C 
BRANCH  20  22
ATOM     22  N   UNL     1      -0.369  -2.070   5.852  0.00  0.00    +0.384 N 
ATOM     23  C   UNL     1      -1.715  -1.495   5.739  0.00  0.00    -0.078 C 
ATOM     24  C   UNL     1      -2.735  -2.615   5.520  0.00  0.00    -0.019 C 
ATOM     25  C   UNL     1      -2.689  -3.580   6.708  0.00  0.00    -0.003 C 
ATOM     26  C   UNL     1      -1.262  -4.116   6.861  0.00  0.00    -0.016 C 
ATOM     27  C   UNL     1      -0.297  -2.941   7.031  0.00  0.00    -0.071 C 
ATOM     28  C   UNL     1       1.130  -3.472   7.185  0.00  0.00    -0.013 C 
ATOM     29  H   UNL     1      -0.166  -2.609   5.023  0.00  0.00    -0.081 HD
ENDBRANCH  20  22
ENDBRANCH  19  20
ENDBRANCH   3  19
TORSDOF 6
