REMARK  Name = ZINC09663720
REMARK  7 active torsions:
REMARK  status: ('A' for Active; 'I' for Inactive)
REMARK    1  A    between atoms: C_1  and  C_2
REMARK    2  A    between atoms: C_3  and  C_36
REMARK    3  A    between atoms: C_11  and  C_13
REMARK    4  A    between atoms: C_13  and  N_61
REMARK    5  A    between atoms: C_19  and  C_21
REMARK    6  A    between atoms: C_21  and  C_22
REMARK    7  A    between atoms: C_22  and  N_23
REMARK                            x       y       z     vdW  Elec       q    Type
REMARK                         _______ _______ _______ _____ _____    ______ ____
ROOT
ATOM      1  C   UNL     1      -5.942   3.298  -3.503  0.00  0.00    -0.059 C 
ATOM      2  C   UNL     1      -4.986   4.067  -2.585  0.00  0.00    +0.089 C 
ATOM      3  N   UNL     1      -3.690   3.371  -2.572  0.00  0.00    -0.305 N 
ATOM      4  C   UNL     1      -3.063   3.045  -3.862  0.00  0.00    +0.089 C 
ATOM      5  C   UNL     1      -4.098   2.311  -4.729  0.00  0.00    -0.059 C 
ATOM      6  C   UNL     1      -3.091   3.046  -1.409  0.00  0.00    +0.217 C 
ATOM      7  O   UNL     1      -3.621   3.327  -0.355  0.00  0.00    -0.276 OA
ATOM      8  N   UNL     1      -5.310   3.152  -4.832  0.00  0.00    +0.386 N 
ATOM      9  H   UNL     1      -5.043   4.082  -5.177  0.00  0.00    -0.081 HD
ENDROOT
BRANCH   8  10
ATOM     10  C   UNL     1      -6.266   2.545  -5.781  0.00  0.00    -0.003 C 
BRANCH  10  21
ATOM     11  C   UNL     1      -4.469   2.409 -12.239  0.00  0.00    +0.045 C 
ATOM     12  C   UNL     1      -3.872   2.878 -10.936  0.00  0.00    -0.026 A 
ATOM     13  C   UNL     1      -2.654   3.443 -10.911  0.00  0.00    -0.008 A 
ATOM     14  S   UNL     1      -2.407   3.814  -9.185  0.00  0.00    -0.073 S 
ATOM     15  C   UNL     1      -3.946   3.200  -8.549  0.00  0.00    +0.116 A 
ATOM     16  C   UNL     1      -4.608   2.725  -9.695  0.00  0.00    +0.075 A 
ATOM     17  C   UNL     1      -5.906   2.161  -9.471  0.00  0.00    +0.260 A 
ATOM     18  O   UNL     1      -6.559   1.722 -10.402  0.00  0.00    -0.267 OA
ATOM     19  N   UNL     1      -6.390   2.119  -8.216  0.00  0.00    -0.312 N 
ATOM     20  H   UNL     1      -7.267   1.735  -8.057  0.00  0.00    +0.170 HD
ATOM     21  C   UNL     1      -5.679   2.609  -7.168  0.00  0.00    +0.094 A 
ATOM     22  N   UNL     1      -4.494   3.129  -7.339  0.00  0.00    -0.229 NA
ATOM     23  C   UNL     1      -1.720   3.700 -12.065  0.00  0.00    +0.052 C 
ENDBRANCH  10  21
ENDBRANCH   8  10
BRANCH   6  24
ATOM     24  C   UNL     1      -1.764   2.333  -1.420  0.00  0.00    +0.119 C 
BRANCH  24  25
ATOM     25  C   UNL     1      -1.308   2.084   0.019  0.00  0.00    +0.154 C 
BRANCH  25  26
ATOM     26  N   UNL     1      -0.017   1.391   0.010  0.00  0.00    -0.249 N 
ATOM     27  C   UNL     1       1.116   2.120   0.003  0.00  0.00    +0.274 A 
ATOM     28  O   UNL     1       1.063   3.334   0.009  0.00  0.00    -0.266 OA
ATOM     29  C   UNL     1       2.425   1.431  -0.013  0.00  0.00    +0.053 A 
ATOM     30  C   UNL     1       3.619   2.138  -0.021  0.00  0.00    +0.014 A 
ATOM     31  C   UNL     1       4.821   1.451  -0.037  0.00  0.00    +0.001 A 
ATOM     32  C   UNL     1       4.839   0.068  -0.045  0.00  0.00    +0.001 A 
ATOM     33  C   UNL     1       3.657  -0.652  -0.038  0.00  0.00    +0.014 A 
ATOM     34  C   UNL     1       2.444   0.022  -0.022  0.00  0.00    +0.053 A 
ATOM     35  C   UNL     1       1.155  -0.702  -0.013  0.00  0.00    +0.271 A 
ATOM     36  O   UNL     1       1.135  -1.917  -0.020  0.00  0.00    -0.266 OA
ATOM     37  N   UNL     1       0.002  -0.004   0.002  0.00  0.00    -0.260 N 
ATOM     38  H   UNL     1      -0.840  -0.486   0.007  0.00  0.00    +0.190 HD
ENDBRANCH  25  26
ENDBRANCH  24  25
ENDBRANCH   6  24
TORSDOF 5
