REMARK  Name = ZINC00691493
REMARK  5 active torsions:
REMARK  status: ('A' for Active; 'I' for Inactive)
REMARK    1  A    between atoms: C_4  and  C_7
REMARK    2  A    between atoms: C_12  and  C_26
REMARK    3  A    between atoms: C_14  and  C_24
REMARK    4  A    between atoms: C_15  and  N_23
REMARK    5  A    between atoms: N_16  and  N_17
REMARK                            x       y       z     vdW  Elec       q    Type
REMARK                         _______ _______ _______ _____ _____    ______ ____
ROOT
ATOM      1  C   UNL     1       2.557   3.870  -0.027  0.00  0.00    +0.032 C 
ATOM      2  C   UNL     1       2.574   4.781   1.203  0.00  0.00    +0.061 C 
ATOM      3  C   UNL     1       3.828   5.621   1.194  0.00  0.00    +0.037 C 
ATOM      4  C   UNL     1       4.406   5.994   0.032  0.00  0.00    +0.026 C 
ATOM      5  C   UNL     1       5.658   6.834   0.026  0.00  0.00    +0.097 C 
ATOM      6  C   UNL     1       5.868   7.504   1.352  0.00  0.00    +0.078 C 
ATOM      7  C   UNL     1       5.228   7.067   2.467  0.00  0.00    +0.117 C 
ATOM      8  N   UNL     1       4.364   6.000   2.394  0.00  0.00    -0.223 N 
ATOM      9  C   UNL     1       3.862   5.608  -1.205  0.00  0.00    +0.162 C 
ATOM     10  O   UNL     1       4.397   5.976  -2.232  0.00  0.00    -0.292 OA
ATOM     11  C   UNL     1       2.631   4.748  -1.281  0.00  0.00    +0.088 C 
ENDROOT
BRANCH   5  12
ATOM     12  C   UNL     1       6.843   5.953  -0.276  0.00  0.00    -0.033 A 
ATOM     13  C   UNL     1       7.152   4.899   0.565  0.00  0.00    +0.004 A 
ATOM     14  C   UNL     1       8.235   4.087   0.286  0.00  0.00    +0.002 A 
ATOM     15  C   UNL     1       9.017   4.335  -0.827  0.00  0.00    +0.020 A 
ATOM     16  C   UNL     1       8.712   5.392  -1.665  0.00  0.00    +0.041 A 
ATOM     17  C   UNL     1       7.624   6.201  -1.388  0.00  0.00    +0.024 A 
ATOM     18 CL   UNL     1       9.694   5.704  -3.062  0.00  0.00    -0.084 Cl
ENDBRANCH   5  12
BRANCH   1  22
ATOM     19  C   UNL     1      -1.056   1.593  -0.082  0.00  0.00    +0.000 A 
ATOM     20  C   UNL     1       0.167   0.948  -0.051  0.00  0.00    +0.000 A 
ATOM     21  C   UNL     1       1.336   1.685  -0.036  0.00  0.00    +0.004 A 
ATOM     22  C   UNL     1       1.282   3.067  -0.045  0.00  0.00    -0.044 A 
ATOM     23  C   UNL     1       0.060   3.711  -0.070  0.00  0.00    +0.004 A 
ATOM     24  C   UNL     1      -1.110   2.974  -0.087  0.00  0.00    +0.000 A 
ENDBRANCH   1  22
BRANCH   8  25
ATOM     25  N   UNL     1       4.039   5.313   3.529  0.00  0.00    -0.217 NA
ATOM     26  C   UNL     1       4.347   3.883   3.385  0.00  0.00    +0.134 C 
ATOM     27  C   UNL     1       4.023   3.162   4.697  0.00  0.00    +0.177 C 
ATOM     28  O   UNL     1       2.652   3.390   5.034  0.00  0.00    -0.377 OA
ATOM     29  C   UNL     1       2.318   4.772   5.183  0.00  0.00    +0.177 C 
ATOM     30  C   UNL     1       2.624   5.509   3.876  0.00  0.00    +0.134 C 
ENDBRANCH   8  25
BRANCH   7  31
ATOM     31  N   UNL     1       5.444   7.693   3.672  0.00  0.00    -0.344 N 
ATOM     32  H   UNL     1       5.053   7.332   4.483  0.00  0.00    +0.144 HD
ATOM     33  H   UNL     1       5.988   8.495   3.711  0.00  0.00    +0.144 HD
ENDBRANCH   7  31
BRANCH   6  34
ATOM     34  C   UNL     1       6.757   8.623   1.442  0.00  0.00    +0.099 C 
ATOM     35  N   UNL     1       7.463   9.510   1.515  0.00  0.00    -0.191 NA
ENDBRANCH   6  34
TORSDOF 5
