REMARK  Name = ZINC66237660
REMARK  4 active torsions:
REMARK  status: ('A' for Active; 'I' for Inactive)
REMARK    1  A    between atoms: C_4  and  C_7
REMARK    2  A    between atoms: C_7  and  C_9
REMARK    3  A    between atoms: C_7  and  O_26
REMARK    4  A    between atoms: C_9  and  N_10
REMARK                            x       y       z     vdW  Elec       q    Type
REMARK                         _______ _______ _______ _____ _____    ______ ____
ROOT
ATOM      1  N   UNL     1       5.381  -1.791   1.383  0.00  0.00    -0.221 N 
ATOM      2  C   UNL     1       5.617  -3.100   1.155  0.00  0.00    +0.247 C 
ATOM      3  O   UNL     1       4.800  -3.963   0.916  0.00  0.00    -0.273 OA
ATOM      4  C   UNL     1       7.115  -3.263   1.261  0.00  0.00    +0.117 C 
ATOM      5  C   UNL     1       7.694  -3.759  -0.062  0.00  0.00    +0.040 C 
ATOM      6  C   UNL     1       9.216  -3.643   0.001  0.00  0.00    +0.038 C 
ATOM      7  C   UNL     1       9.746  -4.277   1.260  0.00  0.00    -0.044 A 
ATOM      8  C   UNL     1      11.097  -4.601   1.300  0.00  0.00    +0.004 A 
ATOM      9  C   UNL     1      11.648  -5.177   2.425  0.00  0.00    +0.000 A 
ATOM     10  C   UNL     1      10.851  -5.435   3.525  0.00  0.00    +0.000 A 
ATOM     11  C   UNL     1       9.509  -5.116   3.488  0.00  0.00    +0.004 A 
ATOM     12  C   UNL     1       8.952  -4.539   2.354  0.00  0.00    -0.042 A 
ATOM     13  C   UNL     1       7.477  -4.232   2.376  0.00  0.00    +0.070 C 
ATOM     14  N   UNL     1       7.603  -1.913   1.563  0.00  0.00    -0.285 N 
ATOM     15  C   UNL     1       6.516  -1.118   1.609  0.00  0.00    +0.309 C 
ATOM     16  O   UNL     1       6.560   0.076   1.834  0.00  0.00    -0.252 OA
ATOM     17  H   UNL     1       8.525  -1.644   1.698  0.00  0.00    +0.151 HD
ENDROOT
BRANCH   1  18
ATOM     18  C   UNL     1       4.049  -1.182   1.377  0.00  0.00    +0.154 C 
BRANCH  18  19
ATOM     19  C   UNL     1       3.711  -0.707  -0.038  0.00  0.00    +0.162 C 
BRANCH  19  23
ATOM     20  C   UNL     1      -0.017   1.378   0.010  0.00  0.00    +0.000 A 
ATOM     21  C   UNL     1       1.171   2.086   0.002  0.00  0.00    +0.000 A 
ATOM     22  C   UNL     1       2.377   1.411  -0.013  0.00  0.00    +0.006 A 
ATOM     23  C   UNL     1       2.396   0.029  -0.020  0.00  0.00    -0.018 A 
ATOM     24  C   UNL     1       1.208  -0.679  -0.012  0.00  0.00    +0.006 A 
ATOM     25  C   UNL     1       0.002  -0.004   0.002  0.00  0.00    +0.000 A 
ENDBRANCH  19  23
BRANCH  19  26
ATOM     26  O   UNL     1       3.614  -1.836  -0.908  0.00  0.00    -0.386 OA
ATOM     27  H   UNL     1       2.934  -2.474  -0.651  0.00  0.00    +0.210 HD
ENDBRANCH  19  26
ENDBRANCH  18  19
ENDBRANCH   1  18
TORSDOF 4
