REMARK  Name = ZINC67392712
REMARK  8 active torsions:
REMARK  status: ('A' for Active; 'I' for Inactive)
REMARK    1  A    between atoms: C_1  and  C_2
REMARK    2  A    between atoms: N_7  and  C_9
REMARK    3  A    between atoms: C_9  and  C_10
REMARK    4  A    between atoms: C_9  and  C_11
REMARK    5  A    between atoms: C_9  and  C_12
REMARK    6  A    between atoms: C_12  and  N_13
REMARK    7  A    between atoms: C_14  and  C_16
REMARK    8  A    between atoms: N_18  and  C_19
REMARK                            x       y       z     vdW  Elec       q    Type
REMARK                         _______ _______ _______ _____ _____    ______ ____
ROOT
ATOM      1  N   UNL     1       2.497  -4.457   1.267  0.00  0.00    -0.309 N 
ATOM      2  C   UNL     1       2.475  -5.772   0.973  0.00  0.00    +0.299 C 
ATOM      3  O   UNL     1       1.936  -6.554   1.729  0.00  0.00    -0.265 OA
ATOM      4  H   UNL     1       2.928  -3.832   0.663  0.00  0.00    +0.149 HD
ENDROOT
BRANCH   2   5
ATOM      5  C   UNL     1       3.113  -6.268  -0.283  0.00  0.00    +0.303 C 
ATOM      6  O   UNL     1       3.652  -5.486  -1.039  0.00  0.00    -0.265 OA
ATOM      7  N   UNL     1       3.091  -7.583  -0.577  0.00  0.00    -0.278 N 
ATOM      8  H   UNL     1       2.729  -8.216   0.062  0.00  0.00    +0.155 HD
BRANCH   7   9
ATOM      9  C   UNL     1       3.590  -8.034  -1.803  0.00  0.00    +0.036 A 
ATOM     10  C   UNL     1       4.206  -9.276  -1.887  0.00  0.00    +0.027 A 
ATOM     11  C   UNL     1       4.700  -9.726  -3.097  0.00  0.00    +0.049 A 
ATOM     12  C   UNL     1       4.581  -8.938  -4.229  0.00  0.00    +0.142 A 
ATOM     13  C   UNL     1       3.963  -7.691  -4.148  0.00  0.00    +0.077 A 
ATOM     14  C   UNL     1       3.463  -7.242  -2.938  0.00  0.00    +0.050 A 
ATOM     15  N   UNL     1       3.853  -6.904  -5.303  0.00  0.00    -0.280 N 
ATOM     16  C   UNL     1       4.050  -7.480  -6.509  0.00  0.00    +0.255 C 
ATOM     17  O   UNL     1       3.990  -6.812  -7.520  0.00  0.00    -0.272 OA
ATOM     18  C   UNL     1       4.347  -8.956  -6.593  0.00  0.00    +0.325 C 
ATOM     19  O   UNL     1       5.063  -9.369  -5.426  0.00  0.00    -0.481 OA
ATOM     20  H   UNL     1       3.637  -5.960  -5.238  0.00  0.00    +0.155 HD
ENDBRANCH   7   9
ENDBRANCH   2   5
BRANCH   1  21
ATOM     21  C   UNL     1       1.871  -3.971   2.499  0.00  0.00    +0.092 C 
BRANCH  21  22
ATOM     22  C   UNL     1       2.036  -2.453   2.591  0.00  0.00    -0.055 C 
ATOM     23  C   UNL     1       3.526  -2.102   2.603  0.00  0.00    -0.008 C 
ATOM     24  C   UNL     1       1.383  -1.946   3.877  0.00  0.00    -0.008 C 
BRANCH  22  30
ATOM     25  C   UNL     1       1.137   1.813   0.364  0.00  0.00    +0.005 C 
ATOM     26  C   UNL     1       0.963   0.295   0.271  0.00  0.00    -0.031 C 
ATOM     27  C   UNL     1      -0.527  -0.044   0.186  0.00  0.00    -0.001 C 
ATOM     28  C   UNL     1      -0.694  -1.567   0.173  0.00  0.00    -0.018 C 
ATOM     29  C   UNL     1      -0.035  -2.157   1.422  0.00  0.00    -0.078 C 
ATOM     30  N   UNL     1       1.393  -1.819   1.432  0.00  0.00    +0.384 N 
ATOM     31  C   UNL     1       1.562  -0.364   1.516  0.00  0.00    -0.075 C 
ATOM     32  H   UNL     1       1.824  -2.158   0.584  0.00  0.00    -0.081 HD
ENDBRANCH  22  30
ENDBRANCH  21  22
ENDBRANCH   1  21
TORSDOF 5
