REMARK  Name = ZINC37131067
REMARK  7 active torsions:
REMARK  status: ('A' for Active; 'I' for Inactive)
REMARK    1  A    between atoms: C_1  and  C_2
REMARK    2  A    between atoms: C_5  and  C_9
REMARK    3  A    between atoms: C_6  and  O_8
REMARK    4  A    between atoms: C_9  and  C_11
REMARK    5  A    between atoms: C_9  and  N_12
REMARK    6  A    between atoms: N_12  and  C_13
REMARK    7  A    between atoms: C_16  and  N_20
REMARK                            x       y       z     vdW  Elec       q    Type
REMARK                         _______ _______ _______ _____ _____    ______ ____
ROOT
ATOM      1  N   UNL     1      -0.525  -4.764  -1.286  0.00  0.00    -0.336 N 
ATOM      2  H   UNL     1      -0.451  -4.232  -2.094  0.00  0.00    +0.147 HD
ENDROOT
BRANCH   1   3
ATOM      3  C   UNL     1      -1.188  -5.993  -1.318  0.00  0.00    +0.042 A 
ATOM      4  C   UNL     1      -1.301  -6.754  -0.161  0.00  0.00    +0.026 A 
ATOM      5  C   UNL     1      -1.957  -7.968  -0.196  0.00  0.00    +0.034 A 
ATOM      6  C   UNL     1      -2.503  -8.428  -1.381  0.00  0.00    +0.127 A 
ATOM      7  C   UNL     1      -2.393  -7.674  -2.534  0.00  0.00    +0.049 A 
ATOM      8  C   UNL     1      -1.742  -6.455  -2.506  0.00  0.00    +0.041 A 
ATOM      9 BR   UNL     1      -1.600  -5.421  -4.082  0.00  0.00    -0.048 Br
BRANCH   6  10
ATOM     10  N   UNL     1      -3.205  -9.731  -1.414  0.00  0.00    +0.056 N 
ATOM     11  O   UNL     1      -3.301 -10.391  -0.406  0.00  0.00    -0.126 OA
ATOM     12  O   UNL     1      -3.682 -10.134  -2.449  0.00  0.00    -0.126 OA
ENDBRANCH   6  10
ENDBRANCH   1   3
BRANCH   1  13
ATOM     13  C   UNL     1       0.059  -4.279  -0.033  0.00  0.00    +0.101 C 
ATOM     14  C   UNL     1       1.463  -4.863   0.136  0.00  0.00    +0.033 C 
BRANCH  13  19
ATOM     15  C   UNL     1       0.372   1.493  -0.168  0.00  0.00    +0.044 C 
ATOM     16  C   UNL     1       0.290  -0.011  -0.130  0.00  0.00    -0.047 A 
ATOM     17  C   UNL     1       0.325  -0.735  -1.308  0.00  0.00    +0.004 A 
ATOM     18  C   UNL     1       0.250  -2.115  -1.276  0.00  0.00    +0.009 A 
ATOM     19  C   UNL     1       0.141  -2.774  -0.067  0.00  0.00    +0.014 A 
ATOM     20  C   UNL     1       0.106  -2.051   1.116  0.00  0.00    +0.122 A 
ATOM     21  C   UNL     1       0.187  -0.666   1.082  0.00  0.00    +0.049 A 
BRANCH  20  22
ATOM     22  O   UNL     1      -0.001  -2.697   2.307  0.00  0.00    -0.506 OA
ATOM     23  H   UNL     1       0.848  -2.931   2.705  0.00  0.00    +0.292 HD
ENDBRANCH  20  22
ENDBRANCH  13  19
ENDBRANCH   1  13
TORSDOF 5
