REMARK  Name = ZINC38989990
REMARK  12 active torsions:
REMARK  status: ('A' for Active; 'I' for Inactive)
REMARK    1  A    between atoms: C_1  and  C_2
REMARK    2  A    between atoms: C_5  and  O_35
REMARK    3  A    between atoms: C_6  and  N_8
REMARK    4  A    between atoms: C_9  and  C_11
REMARK    5  A    between atoms: C_11  and  S_12
REMARK    6  A    between atoms: S_12  and  C_13
REMARK    7  A    between atoms: C_17  and  C_21
REMARK    8  A    between atoms: N_19  and  N_20
REMARK    9  A    between atoms: C_24  and  C_27
REMARK   10  A    between atoms: C_30  and  O_33
REMARK   11  A    between atoms: O_33  and  C_34
REMARK   12  A    between atoms: O_35  and  C_36
REMARK                            x       y       z     vdW  Elec       q    Type
REMARK                         _______ _______ _______ _____ _____    ______ ____
ROOT
ATOM      1  C   UNL     1      -0.396  -3.097   7.477  0.00  0.00    +0.214 C 
ATOM      2  N   UNL     1      -1.680  -3.833   7.342  0.00  0.00    -0.228 NA
ATOM      3  N   UNL     1      -1.427  -5.080   8.081  0.00  0.00    -0.234 NA
ATOM      4  C   UNL     1      -0.020  -5.417   7.769  0.00  0.00    +0.185 C 
ATOM      5  N   UNL     1       0.642  -4.150   7.386  0.00  0.00    -0.197 NA
ATOM      6  H   UNL     1      -1.888  -4.023   6.373  0.00  0.00    +0.143 HD
ATOM      7  H   UNL     1      -2.051  -5.813   7.778  0.00  0.00    +0.143 HD
ENDROOT
BRANCH   4   8
ATOM      8  C   UNL     1       0.663  -6.012   9.001  0.00  0.00    +0.187 C 
ATOM      9  C   UNL     1       0.015  -7.329   9.390  0.00  0.00    +0.034 C 
ATOM     10  C   UNL     1      -0.462  -7.101  10.629  0.00  0.00    +0.091 C 
ATOM     11  N   UNL     1      -0.181  -5.829  11.018  0.00  0.00    -0.154 NA
ATOM     12  N   UNL     1       0.438  -5.162  10.182  0.00  0.00    -0.176 NA
BRANCH  10  13
ATOM     13  C   UNL     1      -1.191  -8.096  11.452  0.00  0.00    +0.002 A 
ATOM     14  C   UNL     1      -1.421  -9.379  10.956  0.00  0.00    +0.013 A 
ATOM     15  C   UNL     1      -2.099 -10.302  11.724  0.00  0.00    +0.046 A 
ATOM     16  C   UNL     1      -2.552  -9.956  12.990  0.00  0.00    +0.120 A 
ATOM     17  C   UNL     1      -2.325  -8.679  13.487  0.00  0.00    +0.046 A 
ATOM     18  C   UNL     1      -1.643  -7.753  12.726  0.00  0.00    +0.013 A 
BRANCH  16  19
ATOM     19  O   UNL     1      -3.220 -10.867  13.744  0.00  0.00    -0.495 OA
ATOM     20  C   UNL     1      -3.658 -10.444  15.037  0.00  0.00    +0.277 C 
ENDBRANCH  16  19
ENDBRANCH  10  13
ENDBRANCH   4   8
BRANCH   5  21
ATOM     21  N   UNL     1       1.184  -4.232   6.039  0.00  0.00    -0.264 NA
ATOM     22  H   UNL     1       1.677  -3.386   5.795  0.00  0.00    +0.137 HD
ATOM     23  H   UNL     1       1.781  -5.040   5.938  0.00  0.00    +0.137 HD
ENDBRANCH   5  21
BRANCH   1  24
ATOM     24  S   UNL     1      -0.206  -1.900   6.127  0.00  0.00    -0.115 S 
BRANCH  24  25
ATOM     25  C   UNL     1      -1.320  -0.543   6.584  0.00  0.00    +0.168 C 
BRANCH  25  27
ATOM     26  N   UNL     1      -2.117   1.579   5.593  0.00  0.00    -0.282 N 
ATOM     27  C   UNL     1      -1.351   0.476   5.474  0.00  0.00    +0.227 C 
ATOM     28  O   UNL     1      -0.687   0.304   4.474  0.00  0.00    -0.275 OA
ATOM     29  H   UNL     1      -2.582   1.758   6.425  0.00  0.00    +0.155 HD
BRANCH  26  35
ATOM     30  C   UNL     1      -1.933   2.405   0.749  0.00  0.00    +0.044 C 
ATOM     31  C   UNL     1      -2.158   2.893   2.157  0.00  0.00    -0.048 A 
ATOM     32  C   UNL     1      -2.487   4.217   2.384  0.00  0.00    +0.007 A 
ATOM     33  C   UNL     1      -2.694   4.671   3.673  0.00  0.00    +0.048 A 
ATOM     34  C   UNL     1      -2.572   3.799   4.742  0.00  0.00    +0.141 A 
ATOM     35  C   UNL     1      -2.241   2.465   4.515  0.00  0.00    +0.076 A 
ATOM     36  C   UNL     1      -2.041   2.015   3.218  0.00  0.00    +0.030 A 
BRANCH  34  37
ATOM     37  O   UNL     1      -2.775   4.244   6.011  0.00  0.00    -0.493 OA
ATOM     38  C   UNL     1      -3.111   5.624   6.168  0.00  0.00    +0.277 C 
ENDBRANCH  34  37
ENDBRANCH  26  35
ENDBRANCH  25  27
ENDBRANCH  24  25
ENDBRANCH   1  24
TORSDOF 9
