REMARK  Name = ZINC20175703
REMARK  10 active torsions:
REMARK  status: ('A' for Active; 'I' for Inactive)
REMARK    1  A    between atoms: C_1  and  C_2
REMARK    2  A    between atoms: C_2  and  O_3
REMARK    3  A    between atoms: O_3  and  C_4
REMARK    4  A    between atoms: C_6  and  C_19
REMARK    5  A    between atoms: C_9  and  O_10
REMARK    6  A    between atoms: O_10  and  C_11
REMARK    7  A    between atoms: C_11  and  C_12
REMARK    8  A    between atoms: C_22  and  C_33
REMARK    9  A    between atoms: C_28  and  N_32
REMARK   10  A    between atoms: C_29  and  C_30
REMARK                            x       y       z     vdW  Elec       q    Type
REMARK                         _______ _______ _______ _____ _____    ______ ____
ROOT
ATOM      1  C   UNL     1       6.478  -0.875  -1.690  0.00  0.00    +0.163 A 
ATOM      2  C   UNL     1       7.673  -1.550  -1.883  0.00  0.00    +0.054 A 
ATOM      3  C   UNL     1       7.681  -2.929  -1.980  0.00  0.00    -0.030 A 
ATOM      4  C   UNL     1       6.499  -3.639  -1.881  0.00  0.00    +0.023 A 
ATOM      5  C   UNL     1       5.303  -2.973  -1.683  0.00  0.00    +0.063 A 
ATOM      6  C   UNL     1       5.288  -1.590  -1.585  0.00  0.00    +0.176 A 
ATOM      7 BR   UNL     1       3.688  -3.947  -1.548  0.00  0.00    -0.046 Br
ENDROOT
BRANCH   3   8
ATOM      8  C   UNL     1       8.981  -3.660  -2.196  0.00  0.00    +0.101 C 
ATOM      9  C   UNL     1       8.913  -4.451  -3.477  0.00  0.00    +0.049 A 
ATOM     10  C   UNL     1       8.937  -4.002  -4.790  0.00  0.00    +0.068 A 
ATOM     11  N   UNL     1       8.853  -5.046  -5.580  0.00  0.00    -0.176 NA
ATOM     12  N   UNL     1       8.771  -6.199  -4.783  0.00  0.00    -0.246 N 
ATOM     13  H   UNL     1       8.693  -7.189  -5.255  0.00  0.00    +0.192 HD
ATOM     14  C   UNL     1       8.811  -5.814  -3.497  0.00  0.00    +0.222 A 
ATOM     15  O   UNL     1       8.766  -6.562  -2.367  0.00  0.00    -0.423 OA
ATOM     16  C   UNL     1       9.099  -5.961  -1.206  0.00  0.00    +0.200 C 
ATOM     17  C   UNL     1       9.219  -4.622  -1.059  0.00  0.00    +0.098 C 
ATOM     18  C   UNL     1       9.041  -2.565  -5.232  0.00  0.00    +0.068 C 
BRANCH  16  19
ATOM     19  N   UNL     1       9.332  -6.755  -0.111  0.00  0.00    -0.328 N 
ATOM     20  H   UNL     1       9.605  -6.297   0.852  0.00  0.00    +0.145 HD
ATOM     21  H   UNL     1       9.244  -7.848  -0.195  0.00  0.00    +0.145 HD
ENDBRANCH  16  19
BRANCH  17  22
ATOM     22  C   UNL     1       9.584  -4.098   0.223  0.00  0.00    +0.101 C 
ATOM     23  N   UNL     1       9.873  -3.682   1.239  0.00  0.00    -0.191 NA
ENDBRANCH  17  22
ENDBRANCH   3   8
BRANCH   1  24
ATOM     24  O   UNL     1       6.468   0.481  -1.599  0.00  0.00    -0.489 OA
BRANCH  24  26
ATOM     25  C   UNL     1       7.516   2.659  -1.590  0.00  0.00    +0.048 C 
ATOM     26  C   UNL     1       7.726   1.148  -1.716  0.00  0.00    +0.226 C 
ENDBRANCH  24  26
ENDBRANCH   1  24
BRANCH   6  27
ATOM     27  O   UNL     1       4.113  -0.932  -1.391  0.00  0.00    -0.483 OA
BRANCH  27  28
ATOM     28  C   UNL     1       3.711  -0.707  -0.039  0.00  0.00    +0.264 C 
BRANCH  28  29
ATOM     29  C   UNL     1       2.396   0.029  -0.022  0.00  0.00    -0.010 A 
ATOM     30  C   UNL     1       1.208  -0.679  -0.014  0.00  0.00    +0.007 A 
ATOM     31  C   UNL     1       0.002  -0.004   0.002  0.00  0.00    +0.000 A 
ATOM     32  C   UNL     1      -0.017   1.378   0.010  0.00  0.00    +0.000 A 
ATOM     33  C   UNL     1       1.171   2.086   0.002  0.00  0.00    +0.000 A 
ATOM     34  C   UNL     1       2.377   1.411  -0.014  0.00  0.00    +0.007 A 
ENDBRANCH  28  29
ENDBRANCH  27  28
ENDBRANCH   6  27
TORSDOF 8
