REMARK  Name = ZINC66329687
REMARK  6 active torsions:
REMARK  status: ('A' for Active; 'I' for Inactive)
REMARK    1  A    between atoms: C_1  and  C_2
REMARK    2  A    between atoms: C_5  and  C_12
REMARK    3  A    between atoms: C_8  and  C_10
REMARK    4  A    between atoms: C_8  and  C_11
REMARK    5  A    between atoms: C_12  and  C_13
REMARK    6  A    between atoms: N_15  and  C_16
REMARK                            x       y       z     vdW  Elec       q    Type
REMARK                         _______ _______ _______ _____ _____    ______ ____
ROOT
ATOM      1  C   UNL     1      -2.848  -2.593   0.015  0.00  0.00    +0.099 C 
ENDROOT
BRANCH   1   5
ATOM      2  C   UNL     1      -0.019   1.526   0.010  0.00  0.00    +0.007 C 
ATOM      3  C   UNL     1       0.002  -0.004   0.002  0.00  0.00    -0.013 C 
ATOM      4  C   UNL     1      -1.433  -0.534   0.013  0.00  0.00    +0.007 C 
ATOM      5  C   UNL     1      -1.413  -2.063   0.004  0.00  0.00    -0.002 C 
ATOM      6  C   UNL     1      -0.673  -2.570   1.244  0.00  0.00    +0.010 C 
ATOM      7  C   UNL     1       0.763  -2.041   1.233  0.00  0.00    -0.034 C 
ATOM      8  C   UNL     1       0.742  -0.511   1.242  0.00  0.00    +0.009 C 
ATOM      9  C   UNL     1       1.479  -2.534  -0.026  0.00  0.00    +0.011 C 
ATOM     10  C   UNL     1       1.503  -2.548   2.473  0.00  0.00    +0.011 C 
ENDBRANCH   1   5
BRANCH   1  11
ATOM     11  C   UNL     1      -3.539  -2.197  -1.264  0.00  0.00    +0.214 C 
ATOM     12  O   UNL     1      -2.943  -1.554  -2.102  0.00  0.00    -0.276 OA
ATOM     13  N   UNL     1      -4.821  -2.557  -1.477  0.00  0.00    -0.312 N 
ATOM     14  H   UNL     1      -5.298  -3.071  -0.807  0.00  0.00    +0.149 HD
BRANCH  13  15
ATOM     15  C   UNL     1      -5.493  -2.171  -2.720  0.00  0.00    +0.077 C 
ATOM     16  C   UNL     1      -6.078  -0.763  -2.571  0.00  0.00    +0.050 C 
ATOM     17  C   UNL     1      -6.845  -0.401  -3.845  0.00  0.00    +0.161 C 
ATOM     18  O   UNL     1      -7.866  -1.373  -4.078  0.00  0.00    -0.380 OA
ATOM     19  C   UNL     1      -7.374  -2.701  -4.272  0.00  0.00    +0.161 C 
ATOM     20  C   UNL     1      -6.628  -3.156  -3.015  0.00  0.00    +0.050 C 
ENDBRANCH  13  15
ENDBRANCH   1  11
TORSDOF 3
