REMARK  Name = ZINC21895085
REMARK  5 active torsions:
REMARK  status: ('A' for Active; 'I' for Inactive)
REMARK    1  A    between atoms: C_1  and  C_2
REMARK    2  A    between atoms: C_2  and  C_4
REMARK    3  A    between atoms: C_7  and  C_9
REMARK    4  A    between atoms: N_11  and  N_12
REMARK    5  A    between atoms: C_13  and  C_15
REMARK                            x       y       z     vdW  Elec       q    Type
REMARK                         _______ _______ _______ _____ _____    ______ ____
ROOT
ATOM      1  N   UNL     1      -5.143   1.344   1.069  0.00  0.00    -0.234 N 
ATOM      2  C   UNL     1      -4.318   1.035   0.049  0.00  0.00    +0.235 C 
ATOM      3  O   UNL     1      -4.714   0.337  -0.861  0.00  0.00    -0.274 OA
ATOM      4  H   UNL     1      -4.784   1.976   1.894  0.00  0.00    +0.173 HD
ENDROOT
BRANCH   2   5
ATOM      5  C   UNL     1      -2.904   1.556   0.038  0.00  0.00    +0.049 C 
ATOM      6  C   UNL     1      -2.188   1.063  -1.221  0.00  0.00    +0.019 C 
ATOM      7  C   UNL     1      -0.753   1.593  -1.232  0.00  0.00    -0.009 C 
ATOM      8  C   UNL     1      -0.013   1.086   0.008  0.00  0.00    +0.007 C 
ATOM      9  C   UNL     1      -0.729   1.579   1.267  0.00  0.00    -0.009 C 
ATOM     10  C   UNL     1      -2.164   1.050   1.278  0.00  0.00    +0.019 C 
ATOM     11  C   UNL     1      -0.750   3.109   1.275  0.00  0.00    +0.007 C 
ATOM     12  C   UNL     1      -1.490   3.616   0.036  0.00  0.00    -0.009 C 
ATOM     13  C   UNL     1      -0.773   3.123  -1.223  0.00  0.00    +0.007 C 
ATOM     14  C   UNL     1      -2.925   3.086   0.047  0.00  0.00    +0.019 C 
ENDBRANCH   2   5
BRANCH   1  17
ATOM     15  C   UNL     1      -7.281   1.168   2.100  0.00  0.00    +0.267 C 
ATOM     16  O   UNL     1      -6.885   1.867   3.012  0.00  0.00    -0.268 OA
ATOM     17  N   UNL     1      -6.457   0.859   1.079  0.00  0.00    -0.230 N 
ATOM     18  H   UNL     1      -6.816   0.226   0.254  0.00  0.00    +0.173 HD
BRANCH  15  22
ATOM     19  C   UNL     1     -11.077  -0.484   1.712  0.00  0.00    +0.055 A 
ATOM     20  C   UNL     1     -10.880   0.281   2.857  0.00  0.00    +0.020 A 
ATOM     21  C   UNL     1      -9.659   0.858   3.056  0.00  0.00    +0.021 A 
ATOM     22  C   UNL     1      -8.663   0.658   2.110  0.00  0.00    +0.076 A 
ATOM     23  S   UNL     1      -9.488  -0.369   0.905  0.00  0.00    -0.081 S 
BRANCH  19  25
ATOM     24  C   UNL     1     -12.269  -1.973  -0.013  0.00  0.00    +0.092 C 
ATOM     25  C   UNL     1     -12.279  -1.196   1.278  0.00  0.00    +0.167 C 
ATOM     26  O   UNL     1     -13.283  -1.161   1.958  0.00  0.00    -0.292 OA
ENDBRANCH  19  25
ENDBRANCH  15  22
ENDBRANCH   1  17
TORSDOF 4
