REMARK  Name = ZINC00639947
REMARK  10 active torsions:
REMARK  status: ('A' for Active; 'I' for Inactive)
REMARK    1  A    between atoms: C_1  and  C_2
REMARK    2  A    between atoms: C_5  and  N_8
REMARK    3  A    between atoms: C_9  and  C_11
REMARK    4  A    between atoms: C_11  and  O_12
REMARK    5  A    between atoms: O_12  and  C_13
REMARK    6  A    between atoms: C_16  and  C_19
REMARK    7  A    between atoms: C_21  and  C_28
REMARK    8  A    between atoms: C_22  and  C_27
REMARK    9  A    between atoms: C_28  and  O_30
REMARK   10  A    between atoms: O_30  and  C_31
REMARK                            x       y       z     vdW  Elec       q    Type
REMARK                         _______ _______ _______ _____ _____    ______ ____
ROOT
ATOM      1  C   UNL     1      -3.450  -1.135   0.794  0.00  0.00    +0.121 A 
ATOM      2  C   UNL     1      -2.438  -0.991   1.732  0.00  0.00    +0.046 A 
ATOM      3  C   UNL     1      -1.240  -1.655   1.560  0.00  0.00    +0.009 A 
ATOM      4  C   UNL     1      -1.048  -2.463   0.455  0.00  0.00    -0.022 A 
ATOM      5  C   UNL     1      -2.053  -2.604  -0.484  0.00  0.00    +0.009 A 
ATOM      6  C   UNL     1      -3.256  -1.947  -0.314  0.00  0.00    +0.046 A 
ENDROOT
BRANCH   4   7
ATOM      7  C   UNL     1       0.262  -3.187   0.270  0.00  0.00    +0.143 C 
ATOM      8  C   UNL     1       1.093  -2.401  -0.723  0.00  0.00    +0.078 C 
ATOM      9  C   UNL     1       1.495  -3.033  -1.847  0.00  0.00    +0.021 C 
ATOM     10  N   UNL     1       1.170  -4.340  -2.074  0.00  0.00    -0.273 N 
ATOM     11  C   UNL     1       0.439  -5.081  -1.232  0.00  0.00    +0.304 C 
ATOM     12  O   UNL     1       0.197  -6.236  -1.523  0.00  0.00    -0.252 OA
ATOM     13  N   UNL     1      -0.038  -4.587  -0.072  0.00  0.00    -0.288 N 
ATOM     14  C   UNL     1       2.319  -2.287  -2.864  0.00  0.00    +0.061 C 
ATOM     15  H   UNL     1       1.484  -4.754  -2.893  0.00  0.00    +0.156 HD
ATOM     16  H   UNL     1      -0.566  -5.142   0.524  0.00  0.00    +0.151 HD
BRANCH   8  17
ATOM     17  C   UNL     1       1.433  -1.048  -0.484  0.00  0.00    +0.338 C 
ATOM     18  O   UNL     1       2.190  -0.468  -1.240  0.00  0.00    -0.245 OA
BRANCH  17  19
ATOM     19  O   UNL     1       0.918  -0.402   0.582  0.00  0.00    -0.465 OA
ATOM     20  C   UNL     1       1.304   0.962   0.762  0.00  0.00    +0.280 C 
ENDBRANCH  17  19
ENDBRANCH   8  17
ENDBRANCH   4   7
BRANCH   1  21
ATOM     21  O   UNL     1      -4.631  -0.482   0.960  0.00  0.00    -0.483 OA
BRANCH  21  22
ATOM     22  C   UNL     1      -5.627  -0.677  -0.045  0.00  0.00    +0.324 C 
BRANCH  22  24
ATOM     23  N   UNL     1      -7.934   0.088  -0.504  0.00  0.00    -0.283 N 
ATOM     24  C   UNL     1      -6.858   0.119   0.306  0.00  0.00    +0.255 C 
ATOM     25  O   UNL     1      -6.879   0.788   1.317  0.00  0.00    -0.272 OA
ATOM     26  H   UNL     1      -7.947  -0.504  -1.272  0.00  0.00    +0.155 HD
BRANCH  23  31
ATOM     27  C   UNL     1     -12.395   3.421   0.578  0.00  0.00    +0.044 C 
ATOM     28  C   UNL     1     -11.210   2.536   0.290  0.00  0.00    -0.050 A 
ATOM     29  C   UNL     1      -9.934   2.970   0.598  0.00  0.00    +0.005 A 
ATOM     30  C   UNL     1      -8.846   2.161   0.336  0.00  0.00    +0.023 A 
ATOM     31  C   UNL     1      -9.035   0.910  -0.237  0.00  0.00    +0.034 A 
ATOM     32  C   UNL     1     -10.317   0.480  -0.551  0.00  0.00    +0.023 A 
ATOM     33  C   UNL     1     -11.402   1.291  -0.281  0.00  0.00    +0.005 A 
ENDBRANCH  23  31
ENDBRANCH  22  24
ENDBRANCH  21  22
ENDBRANCH   1  21
TORSDOF 7
