REMARK  Name = ZINC43165707
REMARK  4 active torsions:
REMARK  status: ('A' for Active; 'I' for Inactive)
REMARK    1  A    between atoms: C_1  and  N_2
REMARK    2  A    between atoms: C_6  and  C_7
REMARK    3  A    between atoms: N_9  and  N_10
REMARK    4  A    between atoms: N_13  and  C_14
REMARK                            x       y       z     vdW  Elec       q    Type
REMARK                         _______ _______ _______ _____ _____    ______ ____
ROOT
ATOM      1  N   UNL     1      -0.394   1.369   4.115  0.00  0.00    -0.218 N 
ATOM      2  C   UNL     1      -0.597   2.672   4.394  0.00  0.00    +0.316 C 
ATOM      3  O   UNL     1      -0.601   3.054   5.548  0.00  0.00    -0.251 OA
ATOM      4  N   UNL     1      -0.796   3.552   3.393  0.00  0.00    -0.291 N 
ATOM      5  H   UNL     1      -0.251   0.736   4.836  0.00  0.00    +0.174 HD
ATOM      6  H   UNL     1      -0.794   3.248   2.472  0.00  0.00    +0.151 HD
ENDROOT
BRANCH   4   7
ATOM      7  C   UNL     1      -1.017   4.968   3.696  0.00  0.00    +0.111 C 
ATOM      8  C   UNL     1      -0.600   5.817   2.492  0.00  0.00    +0.068 C 
ATOM      9  C   UNL     1      -1.110   7.247   2.712  0.00  0.00    +0.231 C 
ATOM     10  O   UNL     1      -2.538   7.221   2.717  0.00  0.00    -0.492 OA
ATOM     11  C   UNL     1      -3.152   6.297   3.500  0.00  0.00    +0.125 A 
ATOM     12  C   UNL     1      -2.477   5.196   3.995  0.00  0.00    +0.015 A 
ATOM     13  C   UNL     1      -3.146   4.277   4.786  0.00  0.00    +0.009 A 
ATOM     14  C   UNL     1      -4.483   4.455   5.083  0.00  0.00    +0.001 A 
ATOM     15  C   UNL     1      -5.159   5.556   4.591  0.00  0.00    +0.004 A 
ATOM     16  C   UNL     1      -4.498   6.475   3.804  0.00  0.00    +0.046 A 
ENDBRANCH   4   7
BRANCH   1  19
ATOM     17  C   UNL     1      -0.187  -0.374   2.507  0.00  0.00    +0.277 C 
ATOM     18  O   UNL     1      -0.100  -1.183   3.412  0.00  0.00    -0.267 OA
ATOM     19  N   UNL     1      -0.390   0.929   2.785  0.00  0.00    -0.228 N 
ATOM     20  H   UNL     1      -0.534   1.563   2.065  0.00  0.00    +0.173 HD
BRANCH  17  26
ATOM     21  C   UNL     1       0.068  -3.305   1.538  0.00  0.00    +0.149 C 
ATOM     22  N   UNL     1       0.042  -2.118   0.680  0.00  0.00    -0.345 N 
ATOM     23  C   UNL     1       0.118  -2.119  -0.674  0.00  0.00    +0.101 A 
ATOM     24  C   UNL     1       0.062  -0.840  -1.117  0.00  0.00    +0.036 A 
ATOM     25  C   UNL     1      -0.054  -0.004  -0.001  0.00  0.00    +0.047 A 
ATOM     26  C   UNL     1      -0.072  -0.816   1.113  0.00  0.00    +0.107 A 
ATOM     27 BR   UNL     1       0.130  -0.283  -2.922  0.00  0.00    -0.049 Br
ENDBRANCH  17  26
ENDBRANCH   1  19
TORSDOF 3
