REMARK  Name = ZINC04847546
REMARK  8 active torsions:
REMARK  status: ('A' for Active; 'I' for Inactive)
REMARK    1  A    between atoms: C_1  and  C_2
REMARK    2  A    between atoms: C_9  and  C_14
REMARK    3  A    between atoms: C_14  and  N_15
REMARK    4  A    between atoms: N_15  and  C_16
REMARK    5  A    between atoms: N_15  and  C_28
REMARK    6  A    between atoms: C_16  and  C_17
REMARK    7  A    between atoms: N_21  and  C_22
REMARK    8  A    between atoms: C_22  and  C_23
REMARK                            x       y       z     vdW  Elec       q    Type
REMARK                         _______ _______ _______ _____ _____    ______ ____
ROOT
ATOM      1  N   UNL     1      -1.313  -5.159   4.125  0.00  0.00    +0.389 N 
ATOM      2  H   UNL     1      -2.027  -4.481   4.348  0.00  0.00    -0.080 HD
ENDROOT
BRANCH   1   3
ATOM      3  C   UNL     1      -1.797  -6.045   3.058  0.00  0.00    -0.068 C 
ATOM      4  C   UNL     1      -2.013  -5.241   1.759  0.00  0.00    -0.015 C 
ATOM      5  C   UNL     1      -3.279  -5.871   1.128  0.00  0.00    -0.002 C 
ATOM      6  C   UNL     1      -4.165  -6.168   2.364  0.00  0.00    -0.002 C 
ATOM      7  C   UNL     1      -3.165  -6.635   3.442  0.00  0.00    -0.015 C 
ENDBRANCH   1   3
BRANCH   1   8
ATOM      8  C   UNL     1      -0.102  -4.463   3.671  0.00  0.00    -0.037 C 
BRANCH   8  17
ATOM      9  C   UNL     1      -3.419   2.059   2.227  0.00  0.00    +0.044 C 
ATOM     10  C   UNL     1      -2.620   0.863   1.778  0.00  0.00    -0.050 A 
ATOM     11  C   UNL     1      -2.211   0.766   0.454  0.00  0.00    +0.005 A 
ATOM     12  C   UNL     1      -1.479  -0.318   0.021  0.00  0.00    +0.026 A 
ATOM     13  C   UNL     1      -1.145  -1.328   0.918  0.00  0.00    +0.049 A 
ATOM     14  C   UNL     1      -1.562  -1.227   2.259  0.00  0.00    -0.001 A 
ATOM     15  C   UNL     1      -2.299  -0.114   2.677  0.00  0.00    +0.013 A 
ATOM     16  C   UNL     1      -1.206  -2.295   3.195  0.00  0.00    +0.017 A 
ATOM     17  C   UNL     1      -0.485  -3.347   2.734  0.00  0.00    +0.001 A 
ATOM     18  C   UNL     1      -0.092  -3.400   1.379  0.00  0.00    +0.251 A 
ATOM     19  O   UNL     1       0.555  -4.355   0.986  0.00  0.00    -0.268 OA
ATOM     20  N   UNL     1      -0.414  -2.424   0.512  0.00  0.00    -0.322 N 
ATOM     21  H   UNL     1      -0.129  -2.493  -0.412  0.00  0.00    +0.169 HD
ENDBRANCH   8  17
ENDBRANCH   1   8
BRANCH   1  22
ATOM     22  C   UNL     1      -1.002  -5.955   5.319  0.00  0.00    +0.001 C 
BRANCH  22  23
ATOM     23  C   UNL     1      -2.277  -6.514   5.896  0.00  0.00    +0.136 A 
ATOM     24  N   UNL     1      -3.162  -5.866   6.614  0.00  0.00    -0.115 NA
ATOM     25  N   UNL     1      -4.108  -6.687   6.917  0.00  0.00    -0.023 NA
ATOM     26  N   UNL     1      -3.849  -7.842   6.411  0.00  0.00    -0.044 NA
ATOM     27  N   UNL     1      -2.731  -7.775   5.770  0.00  0.00    -0.224 N 
BRANCH  27  28
ATOM     28  C   UNL     1      -2.078  -8.867   5.045  0.00  0.00    +0.221 C 
BRANCH  28  29
ATOM     29  C   UNL     1      -1.258  -9.689   6.005  0.00  0.00    +0.126 A 
ATOM     30  C   UNL     1      -1.692 -10.762   6.690  0.00  0.00    +0.046 A 
ATOM     31  C   UNL     1      -0.603 -11.221   7.466  0.00  0.00    +0.041 A 
ATOM     32  C   UNL     1       0.432 -10.400   7.209  0.00  0.00    +0.195 A 
ATOM     33  O   UNL     1       0.030  -9.478   6.319  0.00  0.00    -0.466 OA
ENDBRANCH  28  29
ENDBRANCH  27  28
ENDBRANCH  22  23
ENDBRANCH   1  22
TORSDOF 7
