REMARK  Name = ZINC16327919
REMARK  9 active torsions:
REMARK  status: ('A' for Active; 'I' for Inactive)
REMARK    1  A    between atoms: C_1  and  C_2
REMARK    2  A    between atoms: C_2  and  C_3
REMARK    3  A    between atoms: C_7  and  C_25
REMARK    4  A    between atoms: C_8  and  N_9
REMARK    5  A    between atoms: C_13  and  S_15
REMARK    6  A    between atoms: S_15  and  C_16
REMARK    7  A    between atoms: C_16  and  C_18
REMARK    8  A    between atoms: C_16  and  C_19
REMARK    9  A    between atoms: C_25  and  C_26
REMARK                            x       y       z     vdW  Elec       q    Type
REMARK                         _______ _______ _______ _____ _____    ______ ____
ROOT
ATOM      1  N   UNL     1       4.664  -1.834   2.691  0.00  0.00    -0.292 N 
ATOM      2  C   UNL     1       5.948  -1.679   2.181  0.00  0.00    +0.187 A 
ATOM      3  N   UNL     1       6.353  -0.984   1.135  0.00  0.00    -0.125 NA
ATOM      4  N   UNL     1       7.688  -0.963   0.803  0.00  0.00    -0.133 NA
ATOM      5  C   UNL     1       8.555  -1.647   1.525  0.00  0.00    +0.161 A 
ATOM      6  S   UNL     1       7.489  -2.373   2.760  0.00  0.00    -0.024 S 
ATOM      7  H   UNL     1       4.511  -2.422   3.447  0.00  0.00    +0.154 HD
ENDROOT
BRANCH   1  13
ATOM      8  C   UNL     1       2.865  -1.722   1.087  0.00  0.00    -0.026 A 
ATOM      9  C   UNL     1       1.805  -1.037   0.524  0.00  0.00    +0.005 A 
ATOM     10  C   UNL     1       1.475   0.226   0.981  0.00  0.00    +0.001 A 
ATOM     11  C   UNL     1       2.204   0.808   2.002  0.00  0.00    +0.005 A 
ATOM     12  C   UNL     1       3.265   0.129   2.569  0.00  0.00    -0.026 A 
ATOM     13  C   UNL     1       3.595  -1.142   2.116  0.00  0.00    +0.039 A 
BRANCH   8  15
ATOM     14  C   UNL     1       2.550  -4.151   1.470  0.00  0.00    +0.009 C 
ATOM     15  C   UNL     1       3.224  -3.098   0.588  0.00  0.00    +0.033 C 
ENDBRANCH   8  15
BRANCH  12  16
ATOM     16  C   UNL     1       4.059   0.764   3.681  0.00  0.00    +0.033 C 
ATOM     17  C   UNL     1       3.451   2.125   4.029  0.00  0.00    +0.009 C 
ENDBRANCH  12  16
ENDBRANCH   1  13
BRANCH   5  18
ATOM     18  S   UNL     1      10.299  -1.801   1.326  0.00  0.00    -0.084 S 
BRANCH  18  19
ATOM     19  C   UNL     1      10.665  -0.788  -0.134  0.00  0.00    +0.136 C 
ATOM     20  C   UNL     1      10.357   0.679   0.173  0.00  0.00    +0.029 C 
BRANCH  19  21
ATOM     21  C   UNL     1      12.122  -0.931  -0.492  0.00  0.00    +0.233 C 
ATOM     22  O   UNL     1      12.914  -1.327   0.336  0.00  0.00    -0.274 OA
ATOM     23  N   UNL     1      12.545  -0.617  -1.733  0.00  0.00    -0.239 N 
ATOM     24  C   UNL     1      13.848  -0.745  -2.053  0.00  0.00    +0.303 C 
ATOM     25  O   UNL     1      14.641  -1.143  -1.223  0.00  0.00    -0.253 OA
ATOM     26  N   UNL     1      14.270  -0.431  -3.294  0.00  0.00    -0.313 N 
ATOM     27  H   UNL     1      11.911  -0.300  -2.395  0.00  0.00    +0.159 HD
ATOM     28  H   UNL     1      13.637  -0.114  -3.956  0.00  0.00    +0.146 HD
ATOM     29  H   UNL     1      15.208  -0.523  -3.524  0.00  0.00    +0.146 HD
ENDBRANCH  19  21
ENDBRANCH  18  19
ENDBRANCH   5  18
TORSDOF 6
