REMARK  Name = ZINC03376192
REMARK  11 active torsions:
REMARK  status: ('A' for Active; 'I' for Inactive)
REMARK    1  A    between atoms: C_1  and  C_2
REMARK    2  A    between atoms: C_2  and  C_3
REMARK    3  A    between atoms: C_2  and  C_4
REMARK    4  A    between atoms: C_4  and  C_5
REMARK    5  A    between atoms: C_5  and  C_7
REMARK    6  A    between atoms: C_5  and  N_31
REMARK    7  A    between atoms: C_7  and  O_9
REMARK    8  A    between atoms: O_9  and  C_10
REMARK    9  A    between atoms: C_10  and  C_11
REMARK   10  A    between atoms: C_14  and  C_26
REMARK   11  A    between atoms: C_17  and  C_19
REMARK                            x       y       z     vdW  Elec       q    Type
REMARK                         _______ _______ _______ _____ _____    ______ ____
ROOT
ATOM      1  C   UNL     1      -5.018  -3.102  -3.087  0.00  0.00    +0.270 C 
ATOM      2  O   UNL     1      -4.236  -2.681  -3.913  0.00  0.00    -0.270 OA
ATOM      3  N   UNL     1      -6.234  -3.538  -3.470  0.00  0.00    -0.205 N 
ATOM      4  C   UNL     1      -6.769  -3.577  -4.841  0.00  0.00    +0.187 C 
ATOM      5  C   UNL     1      -8.161  -4.150  -4.696  0.00  0.00    +0.030 C 
ATOM      6  C   UNL     1      -8.357  -4.392  -3.402  0.00  0.00    +0.050 C 
ATOM      7  N   UNL     1      -7.245  -4.051  -2.646  0.00  0.00    -0.261 N 
ATOM      8  H   UNL     1      -7.177  -4.151  -1.683  0.00  0.00    +0.170 HD
ENDROOT
BRANCH   6   9
ATOM      9  C   UNL     1      -9.605  -4.960  -2.841  0.00  0.00    -0.003 A 
ATOM     10  C   UNL     1     -10.668  -5.283  -3.684  0.00  0.00    +0.011 A 
ATOM     11  C   UNL     1     -11.827  -5.812  -3.156  0.00  0.00    +0.020 A 
ATOM     12  C   UNL     1     -11.937  -6.023  -1.792  0.00  0.00    +0.041 A 
ATOM     13  C   UNL     1     -10.884  -5.704  -0.950  0.00  0.00    +0.020 A 
ATOM     14  C   UNL     1      -9.718  -5.180  -1.468  0.00  0.00    +0.011 A 
ATOM     15 CL   UNL     1     -13.399  -6.689  -1.134  0.00  0.00    -0.084 Cl
ENDBRANCH   6   9
BRANCH   4  16
ATOM     16  C   UNL     1      -5.920  -4.468  -5.711  0.00  0.00    +0.131 A 
ATOM     17  C   UNL     1      -5.570  -4.222  -6.986  0.00  0.00    +0.047 A 
ATOM     18  C   UNL     1      -4.777  -5.312  -7.411  0.00  0.00    +0.041 A 
ATOM     19  C   UNL     1      -4.690  -6.160  -6.371  0.00  0.00    +0.195 A 
ATOM     20  O   UNL     1      -5.379  -5.641  -5.341  0.00  0.00    -0.466 OA
ENDBRANCH   4  16
BRANCH   1  21
ATOM     21  C   UNL     1      -4.629  -3.139  -1.631  0.00  0.00    +0.329 C 
BRANCH  21  22
ATOM     22  O   UNL     1      -3.303  -2.629  -1.479  0.00  0.00    -0.454 OA
BRANCH  22  23
ATOM     23  C   UNL     1      -2.802  -2.594  -0.234  0.00  0.00    +0.328 C 
ATOM     24  O   UNL     1      -3.468  -2.982   0.696  0.00  0.00    -0.249 OA
BRANCH  23  25
ATOM     25  C   UNL     1      -1.410  -2.068   0.003  0.00  0.00    +0.183 C 
BRANCH  25  26
ATOM     26  N   UNL     1      -0.918  -2.555   1.295  0.00  0.00    -0.286 N 
ATOM     27  C   UNL     1      -1.580  -2.247   2.427  0.00  0.00    +0.298 C 
ATOM     28  O   UNL     1      -2.585  -1.564   2.377  0.00  0.00    -0.253 OA
ATOM     29  N   UNL     1      -1.128  -2.694   3.615  0.00  0.00    -0.313 N 
ATOM     30  H   UNL     1      -0.116  -3.099   1.335  0.00  0.00    +0.151 HD
ATOM     31  H   UNL     1      -0.326  -3.239   3.655  0.00  0.00    +0.146 HD
ATOM     32  H   UNL     1      -1.604  -2.472   4.431  0.00  0.00    +0.146 HD
ENDBRANCH  25  26
BRANCH  25  33
ATOM     33  C   UNL     1      -1.436  -0.539   0.011  0.00  0.00    +0.036 C 
BRANCH  33  35
ATOM     34  C   UNL     1       0.800  -0.371  -1.091  0.00  0.00    +0.007 C 
ATOM     35  C   UNL     1      -0.009  -0.005   0.154  0.00  0.00    -0.015 C 
ATOM     36  C   UNL     1      -0.047   1.517   0.309  0.00  0.00    +0.007 C 
ENDBRANCH  33  35
ENDBRANCH  25  33
ENDBRANCH  23  25
ENDBRANCH  22  23
ENDBRANCH  21  22
ENDBRANCH   1  21
TORSDOF 9
