REMARK  Name = ZINC04088627
REMARK  7 active torsions:
REMARK  status: ('A' for Active; 'I' for Inactive)
REMARK    1  A    between atoms: C_1  and  C_2
REMARK    2  A    between atoms: C_13  and  C_15
REMARK    3  A    between atoms: C_15  and  C_17
REMARK    4  A    between atoms: C_15  and  O_18
REMARK    5  A    between atoms: N_21  and  C_24
REMARK    6  A    between atoms: C_24  and  C_25
REMARK    7  A    between atoms: C_25  and  C_26
REMARK                            x       y       z     vdW  Elec       q    Type
REMARK                         _______ _______ _______ _____ _____    ______ ____
ROOT
ATOM      1  C   UNL     1      -6.609   0.314  -0.204  0.00  0.00    +0.044 C 
ATOM      2  C   UNL     1      -5.347   0.205   0.613  0.00  0.00    -0.050 A 
ATOM      3  C   UNL     1      -5.171  -0.860   1.477  0.00  0.00    +0.005 A 
ATOM      4  C   UNL     1      -4.018  -0.965   2.227  0.00  0.00    +0.024 A 
ATOM      5  C   UNL     1      -3.022   0.003   2.120  0.00  0.00    +0.036 A 
ATOM      6  C   UNL     1      -3.211   1.071   1.248  0.00  0.00    -0.027 A 
ATOM      7  C   UNL     1      -4.363   1.171   0.500  0.00  0.00    +0.008 A 
ATOM      8  C   UNL     1      -1.978   1.920   1.366  0.00  0.00    +0.050 C 
ATOM      9  C   UNL     1      -1.260   2.065   0.019  0.00  0.00    +0.088 C 
ATOM     10  C   UNL     1      -0.698   3.514   0.030  0.00  0.00    +0.075 C 
ATOM     11  C   UNL     1      -1.110   4.110   1.394  0.00  0.00    -0.028 C 
ATOM     12  C   UNL     1       0.799   3.307   0.012  0.00  0.00    +0.224 C 
ATOM     13  O   UNL     1       1.629   4.191   0.008  0.00  0.00    -0.275 OA
ATOM     14  N   UNL     1       1.067   1.996   0.003  0.00  0.00    -0.241 N 
ATOM     15  C   UNL     1      -0.014   1.208   0.009  0.00  0.00    +0.225 C 
ATOM     16  O   UNL     1       0.002  -0.004   0.002  0.00  0.00    -0.275 OA
ATOM     17  C   UNL     1      -1.113   1.217   2.376  0.00  0.00    +0.211 C 
ATOM     18  O   UNL     1      -0.020   1.571   2.766  0.00  0.00    -0.277 OA
ATOM     19  N   UNL     1      -1.788   0.117   2.764  0.00  0.00    -0.286 N 
ATOM     20  H   UNL     1      -1.455  -0.521   3.413  0.00  0.00    +0.155 HD
ATOM     21  N   UNL     1      -2.276   3.281   1.784  0.00  0.00    +0.396 N 
ATOM     22  H   UNL     1      -2.411   3.317   2.801  0.00  0.00    -0.083 HD
ATOM     23  H   UNL     1      -3.123   3.618   1.313  0.00  0.00    -0.083 HD
ENDROOT
BRANCH  11  24
ATOM     24  C   UNL     1      -1.490   5.583   1.237  0.00  0.00    +0.098 C 
ATOM     25  C   UNL     1      -1.894   6.153   2.599  0.00  0.00    +0.036 C 
BRANCH  24  26
ATOM     26  O   UNL     1      -0.372   6.313   0.729  0.00  0.00    -0.394 OA
ATOM     27  H   UNL     1       0.411   6.279   1.296  0.00  0.00    +0.210 HD
ENDBRANCH  24  26
ENDBRANCH  11  24
BRANCH  14  28
ATOM     28  C   UNL     1       2.433   1.466  -0.014  0.00  0.00    +0.121 C 
BRANCH  28  29
ATOM     29  C   UNL     1       2.894   1.291  -1.463  0.00  0.00    +0.054 C 
BRANCH  29  30
ATOM     30  C   UNL     1       4.299   0.746  -1.480  0.00  0.00    -0.046 A 
ATOM     31  C   UNL     1       5.376   1.612  -1.491  0.00  0.00    +0.004 A 
ATOM     32  C   UNL     1       6.665   1.112  -1.502  0.00  0.00    +0.000 A 
ATOM     33  C   UNL     1       6.876  -0.254  -1.512  0.00  0.00    +0.000 A 
ATOM     34  C   UNL     1       5.799  -1.120  -1.507  0.00  0.00    +0.000 A 
ATOM     35  C   UNL     1       4.510  -0.620  -1.490  0.00  0.00    +0.004 A 
ENDBRANCH  29  30
ENDBRANCH  28  29
ENDBRANCH  14  28
TORSDOF 5
