REMARK  Name = ZINC05121353
REMARK  3 active torsions:
REMARK  status: ('A' for Active; 'I' for Inactive)
REMARK    1  A    between atoms: C_5  and  N_7
REMARK    2  A    between atoms: N_7  and  S_8
REMARK    3  A    between atoms: S_8  and  C_11
REMARK                            x       y       z     vdW  Elec       q    Type
REMARK                         _______ _______ _______ _____ _____    ______ ____
ROOT
ATOM      1  S   UNL     1      -0.024   6.309   0.062  0.00  0.00    +0.074 S 
ATOM      2  O   UNL     1      -1.244   6.827   0.573  0.00  0.00    -0.150 OA
ATOM      3  O   UNL     1       1.241   6.659   0.608  0.00  0.00    -0.150 OA
ENDROOT
BRANCH   1   4
ATOM      4  C   UNL     1      -0.143   4.553   0.155  0.00  0.00    +0.127 A 
ATOM      5  C   UNL     1      -1.385   3.934   0.175  0.00  0.00    +0.033 A 
ATOM      6  C   UNL     1      -1.431   2.551   0.244  0.00  0.00    +0.042 A 
ATOM      7  C   UNL     1      -0.246   1.839   0.301  0.00  0.00    +0.129 A 
ATOM      8  N   UNL     1       0.917   2.462   0.279  0.00  0.00    -0.242 NA
ATOM      9  C   UNL     1       0.998   3.777   0.209  0.00  0.00    +0.141 A 
ATOM     10 CL   UNL     1      -0.290   0.106   0.394  0.00  0.00    -0.062 Cl
ENDBRANCH   1   4
BRANCH   1  11
ATOM     11  N   UNL     1       0.027   6.712  -1.544  0.00  0.00    -0.215 N 
ATOM     12  H   UNL     1       0.796   7.181  -1.902  0.00  0.00    +0.174 HD
BRANCH  11  17
ATOM     13  C   UNL     1      -3.393   6.081  -2.732  0.00  0.00    +0.002 A 
ATOM     14  C   UNL     1      -3.151   5.709  -4.042  0.00  0.00    +0.001 A 
ATOM     15  C   UNL     1      -1.856   5.670  -4.524  0.00  0.00    +0.017 A 
ATOM     16  C   UNL     1      -0.799   6.002  -3.698  0.00  0.00    +0.040 A 
ATOM     17  C   UNL     1      -1.040   6.376  -2.382  0.00  0.00    +0.062 A 
ATOM     18  C   UNL     1      -2.341   6.410  -1.899  0.00  0.00    +0.025 A 
ATOM     19 BR   UNL     1       0.972   5.946  -4.359  0.00  0.00    -0.048 Br
ENDBRANCH  11  17
ENDBRANCH   1  11
TORSDOF 3
