REMARK  Name = ZINC66597539
REMARK  13 active torsions:
REMARK  status: ('A' for Active; 'I' for Inactive)
REMARK    1  A    between atoms: C_1  and  C_2
REMARK    2  A    between atoms: C_2  and  C_3
REMARK    3  A    between atoms: C_3  and  C_4
REMARK    4  A    between atoms: C_4  and  N_5
REMARK    5  A    between atoms: C_10  and  C_12
REMARK    6  A    between atoms: C_12  and  N_13
REMARK    7  A    between atoms: N_16  and  C_17
REMARK    8  A    between atoms: C_17  and  C_18
REMARK    9  A    between atoms: C_18  and  C_19
REMARK   10  A    between atoms: N_21  and  C_22
REMARK   11  A    between atoms: C_22  and  C_24
REMARK   12  A    between atoms: C_22  and  C_25
REMARK   13  A    between atoms: C_25  and  C_26
REMARK                            x       y       z     vdW  Elec       q    Type
REMARK                         _______ _______ _______ _____ _____    ______ ____
ROOT
ATOM      1  N   UNL     1       1.319  -3.869   0.130  0.00  0.00    -0.301 N 
ATOM      2  C   UNL     1       1.723  -4.010   1.408  0.00  0.00    +0.300 C 
ATOM      3  O   UNL     1       2.799  -4.520   1.653  0.00  0.00    -0.253 OA
ATOM      4  N   UNL     1       0.933  -3.587   2.415  0.00  0.00    -0.299 N 
ATOM      5  H   UNL     1       0.461  -3.463  -0.065  0.00  0.00    +0.150 HD
ATOM      6  H   UNL     1       0.074  -3.181   2.219  0.00  0.00    +0.150 HD
ENDROOT
BRANCH   1   7
ATOM      7  C   UNL     1       2.178  -4.329  -0.964  0.00  0.00    +0.090 C 
BRANCH   7  13
ATOM      8  N   UNL     1       0.175  -4.468  -2.364  0.00  0.00    +0.383 N 
ATOM      9  C   UNL     1      -0.414  -4.172  -3.675  0.00  0.00    -0.078 C 
ATOM     10  C   UNL     1      -0.512  -2.657  -3.864  0.00  0.00    -0.019 C 
ATOM     11  C   UNL     1       0.889  -2.045  -3.782  0.00  0.00    -0.003 C 
ATOM     12  C   UNL     1       1.522  -2.423  -2.440  0.00  0.00    -0.014 C 
ATOM     13  C   UNL     1       1.546  -3.947  -2.304  0.00  0.00    -0.051 C 
ATOM     14  H   UNL     1      -0.381  -4.034  -1.642  0.00  0.00    -0.081 HD
BRANCH   8  15
ATOM     15  C   UNL     1       0.196  -5.922  -2.155  0.00  0.00    -0.078 C 
BRANCH  15  16
ATOM     16  C   UNL     1      -1.239  -6.447  -2.076  0.00  0.00    -0.019 C 
BRANCH  16  18
ATOM     17  C   UNL     1      -2.652  -8.486  -1.780  0.00  0.00    +0.004 C 
ATOM     18  C   UNL     1      -1.217  -7.961  -1.859  0.00  0.00    -0.005 C 
ENDBRANCH  16  18
ENDBRANCH  15  16
ENDBRANCH   8  15
ENDBRANCH   7  13
ENDBRANCH   1   7
BRANCH   4  19
ATOM     19  C   UNL     1       1.371  -3.741   3.804  0.00  0.00    +0.115 C 
BRANCH  19  20
ATOM     20  C   UNL     1       0.298  -3.184   4.742  0.00  0.00    +0.114 C 
BRANCH  20  21
ATOM     21  C   UNL     1       0.749  -3.342   6.171  0.00  0.00    +0.215 C 
ATOM     22  O   UNL     1       1.823  -3.850   6.416  0.00  0.00    -0.276 OA
ATOM     23  N   UNL     1      -0.041  -2.918   7.178  0.00  0.00    -0.313 N 
ATOM     24  H   UNL     1      -0.899  -2.512   6.982  0.00  0.00    +0.149 HD
BRANCH  23  25
ATOM     25  C   UNL     1       0.398  -3.072   8.567  0.00  0.00    +0.070 C 
ATOM     26  C   UNL     1       1.281  -1.885   8.957  0.00  0.00    +0.028 C 
BRANCH  25  27
ATOM     27  C   UNL     1      -0.825  -3.121   9.486  0.00  0.00    +0.018 C 
ATOM     28  C   UNL     1      -1.644  -4.376   9.178  0.00  0.00    +0.005 C 
ENDBRANCH  25  27
ENDBRANCH  23  25
ENDBRANCH  20  21
ENDBRANCH  19  20
ENDBRANCH   4  19
TORSDOF 10
