REMARK  Name = ZINC40586150
REMARK  3 active torsions:
REMARK  status: ('A' for Active; 'I' for Inactive)
REMARK    1  A    between atoms: C_11  and  N_24
REMARK    2  A    between atoms: C_12  and  N_16
REMARK    3  A    between atoms: N_16  and  C_17
REMARK                            x       y       z     vdW  Elec       q    Type
REMARK                         _______ _______ _______ _____ _____    ______ ____
ROOT
ATOM      1  C   UNL     1       2.042  -4.970  -0.065  0.00  0.00    +0.000 A 
ATOM      2  C   UNL     1       3.416  -4.812  -0.073  0.00  0.00    +0.002 A 
ATOM      3  C   UNL     1       3.969  -3.549  -0.072  0.00  0.00    +0.024 A 
ATOM      4  C   UNL     1       3.147  -2.420  -0.063  0.00  0.00    +0.038 A 
ATOM      5  C   UNL     1       1.771  -2.589  -0.056  0.00  0.00    -0.025 A 
ATOM      6  C   UNL     1       1.221  -3.857  -0.057  0.00  0.00    +0.005 A 
ATOM      7  C   UNL     1       1.119  -1.225  -0.049  0.00  0.00    +0.056 C 
ATOM      8  C   UNL     1       2.295  -0.234  -0.052  0.00  0.00    +0.117 C 
ATOM      9  N   UNL     1       3.500  -1.068  -0.061  0.00  0.00    -0.283 N 
ATOM     10  C   UNL     1       4.800  -0.586  -0.066  0.00  0.00    +0.161 A 
ATOM     11  C   UNL     1       5.047   0.780  -0.172  0.00  0.00    +0.206 A 
ATOM     12  C   UNL     1       6.369   1.213  -0.172  0.00  0.00    +0.159 A 
ATOM     13  N   UNL     1       7.344   0.311  -0.071  0.00  0.00    -0.218 NA
ATOM     14  C   UNL     1       7.070  -0.974   0.027  0.00  0.00    +0.225 A 
ATOM     15  N   UNL     1       5.832  -1.423   0.036  0.00  0.00    -0.218 NA
ENDROOT
BRANCH  11  16
ATOM     16  N   UNL     1       3.931   1.746  -0.282  0.00  0.00    +0.063 N 
ATOM     17  O   UNL     1       3.499   2.287   0.710  0.00  0.00    -0.126 OA
ATOM     18  O   UNL     1       3.451   1.995  -1.363  0.00  0.00    -0.126 OA
ENDBRANCH  11  16
BRANCH  12  19
ATOM     19  N   UNL     1       6.667   2.564  -0.275  0.00  0.00    -0.297 N 
ATOM     20  H   UNL     1       5.954   3.220  -0.259  0.00  0.00    +0.154 HD
BRANCH  19  21
ATOM     21  C   UNL     1       7.996   2.978  -0.402  0.00  0.00    +0.047 A 
ATOM     22  C   UNL     1       8.948   2.114  -0.928  0.00  0.00    +0.024 A 
ATOM     23  C   UNL     1      10.260   2.527  -1.053  0.00  0.00    +0.002 A 
ATOM     24  C   UNL     1      10.627   3.800  -0.655  0.00  0.00    +0.001 A 
ATOM     25  C   UNL     1       9.683   4.663  -0.131  0.00  0.00    +0.017 A 
ATOM     26  C   UNL     1       8.367   4.259  -0.009  0.00  0.00    +0.039 A 
ATOM     27 BR   UNL     1       7.075   5.443   0.701  0.00  0.00    -0.048 Br
ENDBRANCH  19  21
ENDBRANCH  12  19
TORSDOF 3
