REMARK  Name = ZINC45619030
REMARK  7 active torsions:
REMARK  status: ('A' for Active; 'I' for Inactive)
REMARK    1  A    between atoms: C_1  and  C_2
REMARK    2  A    between atoms: C_10  and  C_11
REMARK    3  A    between atoms: N_13  and  N_14
REMARK    4  A    between atoms: N_17  and  C_18
REMARK    5  A    between atoms: C_18  and  C_19
REMARK    6  A    between atoms: C_23  and  N_25
REMARK    7  A    between atoms: C_26  and  C_28
REMARK                            x       y       z     vdW  Elec       q    Type
REMARK                         _______ _______ _______ _____ _____    ______ ____
ROOT
ATOM      1  N   UNL     1      -0.200  -1.011   4.103  0.00  0.00    -0.218 N 
ATOM      2  C   UNL     1      -0.079  -1.785   5.200  0.00  0.00    +0.316 C 
ATOM      3  O   UNL     1      -0.009  -1.274   6.301  0.00  0.00    -0.251 OA
ATOM      4  N   UNL     1      -0.034  -3.126   5.076  0.00  0.00    -0.294 N 
ATOM      5  H   UNL     1      -0.232  -0.045   4.192  0.00  0.00    +0.174 HD
ATOM      6  H   UNL     1      -0.090  -3.534   4.198  0.00  0.00    +0.151 HD
ENDROOT
BRANCH   1   9
ATOM      7  C   UNL     1      -0.402  -0.826   1.738  0.00  0.00    +0.296 C 
ATOM      8  O   UNL     1      -0.442   0.385   1.850  0.00  0.00    -0.265 OA
ATOM      9  N   UNL     1      -0.281  -1.600   2.835  0.00  0.00    -0.227 N 
ATOM     10  H   UNL     1      -0.249  -2.566   2.746  0.00  0.00    +0.173 HD
BRANCH   7  20
ATOM     11  C   UNL     1      -0.685   0.728  -0.941  0.00  0.00    +0.048 C 
ATOM     12  C   UNL     1      -0.610  -0.767  -0.762  0.00  0.00    +0.008 A 
ATOM     13  C   UNL     1      -0.649  -1.781  -1.816  0.00  0.00    +0.024 A 
ATOM     14  C   UNL     1      -0.758  -1.735  -3.208  0.00  0.00    +0.012 A 
ATOM     15  C   UNL     1      -0.765  -2.898  -3.925  0.00  0.00    +0.001 A 
ATOM     16  C   UNL     1      -0.665  -4.123  -3.279  0.00  0.00    +0.004 A 
ATOM     17  C   UNL     1      -0.557  -4.190  -1.907  0.00  0.00    +0.047 A 
ATOM     18  C   UNL     1      -0.547  -3.020  -1.156  0.00  0.00    +0.136 A 
ATOM     19  O   UNL     1      -0.456  -2.772   0.165  0.00  0.00    -0.450 OA
ATOM     20  C   UNL     1      -0.486  -1.444   0.408  0.00  0.00    +0.195 A 
ENDBRANCH   7  20
ENDBRANCH   1   9
BRANCH   4  21
ATOM     21  C   UNL     1       0.098  -3.968   6.268  0.00  0.00    +0.141 C 
BRANCH  21  22
ATOM     22  C   UNL     1       0.123  -5.418   5.859  0.00  0.00    -0.029 A 
ATOM     23  C   UNL     1      -1.059  -6.130   5.763  0.00  0.00    +0.005 A 
ATOM     24  C   UNL     1      -1.041  -7.460   5.388  0.00  0.00    +0.002 A 
ATOM     25  C   UNL     1       0.160  -8.083   5.106  0.00  0.00    +0.023 A 
ATOM     26  C   UNL     1       1.348  -7.371   5.201  0.00  0.00    +0.034 A 
ATOM     27  C   UNL     1       1.326  -6.034   5.573  0.00  0.00    +0.028 A 
BRANCH  26  28
ATOM     28  N   UNL     1       2.566  -8.000   4.917  0.00  0.00    -0.286 N 
ATOM     29  C   UNL     1       2.624  -8.961   3.974  0.00  0.00    +0.214 C 
ATOM     30  O   UNL     1       1.645  -9.215   3.305  0.00  0.00    -0.276 OA
ATOM     31  C   UNL     1       3.907  -9.720   3.750  0.00  0.00    +0.109 C 
ATOM     32  H   UNL     1       3.368  -7.743   5.398  0.00  0.00    +0.155 HD
ENDBRANCH  26  28
ENDBRANCH  21  22
ENDBRANCH   4  21
TORSDOF 5
