REMARK  Name = ZINC40467657
REMARK  4 active torsions:
REMARK  status: ('A' for Active; 'I' for Inactive)
REMARK    1  A    between atoms: C_1  and  C_2
REMARK    2  A    between atoms: C_5  and  N_7
REMARK    3  A    between atoms: N_9  and  C_21
REMARK    4  A    between atoms: C_13  and  C_14
REMARK                            x       y       z     vdW  Elec       q    Type
REMARK                         _______ _______ _______ _____ _____    ______ ____
ROOT
ATOM      1  N   UNL     1      -3.103  -4.810  -0.032  0.00  0.00    -0.198 NA
ATOM      2  C   UNL     1      -2.330  -5.669  -0.665  0.00  0.00    +0.170 C 
ATOM      3  N   UNL     1      -1.833  -5.590  -1.946  0.00  0.00    -0.249 N 
ATOM      4  C   UNL     1      -1.063  -6.550  -2.430  0.00  0.00    +0.259 C 
ATOM      5  O   UNL     1      -0.614  -6.496  -3.561  0.00  0.00    -0.269 OA
ATOM      6  C   UNL     1      -0.772  -7.687  -1.542  0.00  0.00    +0.079 C 
ATOM      7  C   UNL     1      -0.019  -8.798  -1.779  0.00  0.00    +0.046 C 
ATOM      8  S   UNL     1      -1.666  -7.215  -0.069  0.00  0.00    -0.049 S 
ATOM      9  C   UNL     1      -2.159  -4.432  -2.781  0.00  0.00    +0.140 C 
ENDROOT
BRANCH   1  14
ATOM     10  C   UNL     1      -5.160  -0.588  -2.895  0.00  0.00    +0.075 C 
ATOM     11  C   UNL     1      -4.470  -1.606  -2.024  0.00  0.00    +0.101 A 
ATOM     12  N   UNL     1      -3.494  -1.450  -1.152  0.00  0.00    -0.145 NA
ATOM     13  N   UNL     1      -3.019  -2.416  -0.493  0.00  0.00    -0.121 NA
ATOM     14  C   UNL     1      -3.481  -3.657  -0.643  0.00  0.00    +0.217 A 
ATOM     15  S   UNL     1      -4.747  -3.368  -1.876  0.00  0.00    -0.031 S 
ENDBRANCH   1  14
BRANCH   7  16
ATOM     16  C   UNL     1       0.113  -9.297  -3.097  0.00  0.00    +0.040 A 
ATOM     17  C   UNL     1       0.009 -10.620  -3.485  0.00  0.00    +0.027 A 
ATOM     18  C   UNL     1       0.206 -10.659  -4.869  0.00  0.00    +0.019 A 
ATOM     19  C   UNL     1       0.422  -9.392  -5.295  0.00  0.00    +0.083 A 
ATOM     20  N   UNL     1       0.362  -8.552  -4.228  0.00  0.00    -0.361 N 
ATOM     21  H   UNL     1       0.478  -7.590  -4.258  0.00  0.00    +0.165 HD
ENDBRANCH   7  16
TORSDOF 2
