REMARK  Name = ZINC00341258
REMARK  4 active torsions:
REMARK  status: ('A' for Active; 'I' for Inactive)
REMARK    1  A    between atoms: C_1  and  C_2
REMARK    2  A    between atoms: C_5  and  C_17
REMARK    3  A    between atoms: C_7  and  C_11
REMARK    4  A    between atoms: C_18  and  C_19
REMARK                            x       y       z     vdW  Elec       q    Type
REMARK                         _______ _______ _______ _____ _____    ______ ____
ROOT
ATOM      1  C   UNL     1      -7.542  -1.410   0.031  0.00  0.00    +0.086 C 
ATOM      2  C   UNL     1      -6.691  -0.165   0.033  0.00  0.00    +0.105 A 
ATOM      3  C   UNL     1      -5.348  -0.152   0.027  0.00  0.00    +0.056 A 
ATOM      4  C   UNL     1      -4.955   1.254   0.032  0.00  0.00    +0.065 A 
ATOM      5  C   UNL     1      -3.736   1.955   0.030  0.00  0.00    +0.079 A 
ATOM      6  N   UNL     1      -3.775   3.288   0.043  0.00  0.00    -0.227 NA
ATOM      7  C   UNL     1      -4.932   3.934   0.046  0.00  0.00    +0.164 A 
ATOM      8  N   UNL     1      -6.101   3.309   0.049  0.00  0.00    -0.192 NA
ATOM      9  C   UNL     1      -6.163   1.986   0.042  0.00  0.00    +0.231 A 
ATOM     10  O   UNL     1      -7.167   1.093   0.042  0.00  0.00    -0.442 OA
ENDROOT
BRANCH   7  11
ATOM     11  C   UNL     1      -4.918   5.417   0.053  0.00  0.00    +0.019 A 
ATOM     12  C   UNL     1      -3.706   6.106   0.057  0.00  0.00    +0.011 A 
ATOM     13  C   UNL     1      -3.700   7.486   0.058  0.00  0.00    +0.001 A 
ATOM     14  C   UNL     1      -4.893   8.186   0.068  0.00  0.00    +0.000 A 
ATOM     15  C   UNL     1      -6.099   7.508   0.070  0.00  0.00    +0.001 A 
ATOM     16  C   UNL     1      -6.117   6.128   0.063  0.00  0.00    +0.011 A 
ENDBRANCH   7  11
BRANCH   5  17
ATOM     17  C   UNL     1      -2.452   1.237   0.020  0.00  0.00    +0.036 C 
ATOM     18  C   UNL     1      -1.293   1.927   0.019  0.00  0.00    +0.098 C 
BRANCH  18  19
ATOM     19  C   UNL     1      -0.014   1.212   0.009  0.00  0.00    +0.380 C 
ATOM     20  O   UNL     1       0.002  -0.004   0.002  0.00  0.00    -0.241 OA
ATOM     21  O   UNL     1       1.144   1.902   0.001  0.00  0.00    -0.241 OA
ENDBRANCH  18  19
ENDBRANCH   5  17
TORSDOF 3
