REMARK  Name = ZINC35167055
REMARK  6 active torsions:
REMARK  status: ('A' for Active; 'I' for Inactive)
REMARK    1  A    between atoms: C_1  and  C_2
REMARK    2  A    between atoms: C_5  and  N_9
REMARK    3  A    between atoms: N_11  and  C_30
REMARK    4  A    between atoms: C_15  and  C_18
REMARK    5  A    between atoms: N_20  and  C_21
REMARK    6  A    between atoms: C_25  and  C_27
REMARK                            x       y       z     vdW  Elec       q    Type
REMARK                         _______ _______ _______ _____ _____    ______ ____
ROOT
ATOM      1  N   UNL     1       0.079  -4.123  -0.033  0.00  0.00    -0.226 NA
ATOM      2  C   UNL     1       0.888  -4.779   0.766  0.00  0.00    +0.164 C 
ATOM      3  N   UNL     1       0.925  -6.162   0.775  0.00  0.00    -0.254 N 
ATOM      4  C   UNL     1       1.470  -6.886   1.741  0.00  0.00    +0.223 C 
ATOM      5  O   UNL     1       1.299  -8.084   1.660  0.00  0.00    -0.275 OA
ATOM      6  C   UNL     1       2.265  -6.425   2.914  0.00  0.00    +0.120 C 
ATOM      7  C   UNL     1       1.897  -5.004   3.347  0.00  0.00    +0.149 C 
ATOM      8  S   UNL     1       1.983  -3.930   1.871  0.00  0.00    -0.077 S 
ATOM      9  C   UNL     1       0.323  -6.871  -0.356  0.00  0.00    +0.140 C 
ENDROOT
BRANCH   1  14
ATOM     10  C   UNL     1       0.038   1.523   0.004  0.00  0.00    +0.045 C 
ATOM     11  C   UNL     1       0.050   0.017  -0.005  0.00  0.00    -0.032 A 
ATOM     12  C   UNL     1       0.054  -0.665  -1.210  0.00  0.00    +0.007 A 
ATOM     13  C   UNL     1       0.064  -2.044  -1.226  0.00  0.00    +0.028 A 
ATOM     14  C   UNL     1       0.070  -2.754  -0.023  0.00  0.00    +0.068 A 
ATOM     15  C   UNL     1       0.065  -2.061   1.189  0.00  0.00    +0.048 A 
ATOM     16  C   UNL     1       0.061  -0.680   1.191  0.00  0.00    +0.046 A 
ATOM     17 CL   UNL     1       0.062   0.183   2.697  0.00  0.00    -0.083 Cl
ENDBRANCH   1  14
BRANCH   7  18
ATOM     18  C   UNL     1       2.874  -4.520   4.387  0.00  0.00    +0.231 C 
ATOM     19  O   UNL     1       4.039  -4.851   4.326  0.00  0.00    -0.274 OA
ATOM     20  N   UNL     1       2.452  -3.719   5.386  0.00  0.00    -0.285 N 
ATOM     21  H   UNL     1       1.536  -3.400   5.399  0.00  0.00    +0.155 HD
BRANCH  20  22
ATOM     22  C   UNL     1       3.337  -3.348   6.406  0.00  0.00    +0.034 A 
ATOM     23  C   UNL     1       2.873  -3.200   7.708  0.00  0.00    +0.023 A 
ATOM     24  C   UNL     1       3.741  -2.834   8.719  0.00  0.00    +0.003 A 
ATOM     25  C   UNL     1       5.075  -2.612   8.443  0.00  0.00    +0.015 A 
ATOM     26  C   UNL     1       5.552  -2.757   7.138  0.00  0.00    +0.065 A 
ATOM     27  C   UNL     1       4.675  -3.132   6.118  0.00  0.00    +0.038 A 
BRANCH  26  28
ATOM     28  C   UNL     1       6.977  -2.521   6.839  0.00  0.00    +0.387 C 
ATOM     29  O   UNL     1       7.744  -2.196   7.734  0.00  0.00    -0.241 OA
ATOM     30  O   UNL     1       7.392  -2.649   5.696  0.00  0.00    -0.241 OA
ENDBRANCH  26  28
ENDBRANCH  20  22
ENDBRANCH   7  18
TORSDOF 4
