REMARK  Name = ZINC39656857
REMARK  7 active torsions:
REMARK  status: ('A' for Active; 'I' for Inactive)
REMARK    1  A    between atoms: C_1  and  C_2
REMARK    2  A    between atoms: C_2  and  C_4
REMARK    3  A    between atoms: C_2  and  N_11
REMARK    4  A    between atoms: C_12  and  C_14
REMARK    5  A    between atoms: C_25  and  C_27
REMARK    6  A    between atoms: C_27  and  C_28
REMARK    7  A    between atoms: C_28  and  C_29
REMARK                            x       y       z     vdW  Elec       q    Type
REMARK                         _______ _______ _______ _____ _____    ______ ____
ROOT
ATOM      1  C   UNL     1       0.780  -1.133   3.576  0.00  0.00    +0.100 C 
ATOM      2  C   UNL     1       1.973  -0.207   3.907  0.00  0.00    +0.121 C 
ATOM      3  N   UNL     1       1.444   0.739   4.916  0.00  0.00    -0.300 N 
ATOM      4  C   UNL     1       0.577  -0.093   5.784  0.00  0.00    +0.115 C 
ATOM      5  C   UNL     1      -0.132  -1.058   4.812  0.00  0.00    -0.004 C 
ATOM      6  C   UNL     1      -0.275  -2.438   5.448  0.00  0.00    -0.010 C 
ATOM      7  C   UNL     1      -1.232  -2.349   6.640  0.00  0.00    -0.082 C 
ATOM      8  N   UNL     1      -2.539  -1.860   6.184  0.00  0.00    +0.379 N 
ATOM      9  C   UNL     1      -2.409  -0.496   5.660  0.00  0.00    -0.082 C 
ATOM     10  C   UNL     1      -1.501  -0.506   4.426  0.00  0.00    -0.010 C 
ATOM     11  C   UNL     1       1.694   2.059   5.022  0.00  0.00    +0.216 C 
ATOM     12  O   UNL     1       1.181   2.705   5.912  0.00  0.00    -0.276 OA
ATOM     13  H   UNL     1      -2.889  -2.466   5.458  0.00  0.00    -0.086 HD
ATOM     14  H   UNL     1      -3.186  -1.861   6.959  0.00  0.00    -0.086 HD
ENDROOT
BRANCH   1  16
ATOM     15  N   UNL     1      -0.609  -1.501   1.563  0.00  0.00    -0.308 N 
ATOM     16  C   UNL     1       0.051  -0.633   2.355  0.00  0.00    +0.219 C 
ATOM     17  O   UNL     1       0.059   0.549   2.086  0.00  0.00    -0.275 OA
ATOM     18  H   UNL     1      -0.616  -2.447   1.779  0.00  0.00    +0.149 HD
BRANCH  15  20
ATOM     19  C   UNL     1      -0.340  -0.916  -0.796  0.00  0.00    +0.033 C 
ATOM     20  C   UNL     1      -1.318  -1.016   0.377  0.00  0.00    +0.100 C 
BRANCH  20  21
ATOM     21  C   UNL     1      -2.427  -1.974   0.026  0.00  0.00    -0.027 A 
ATOM     22  C   UNL     1      -2.222  -3.337   0.134  0.00  0.00    +0.006 A 
ATOM     23  C   UNL     1      -3.238  -4.217  -0.187  0.00  0.00    +0.015 A 
ATOM     24  C   UNL     1      -4.461  -3.733  -0.615  0.00  0.00    +0.018 A 
ATOM     25  C   UNL     1      -4.666  -2.369  -0.723  0.00  0.00    +0.015 A 
ATOM     26  C   UNL     1      -3.651  -1.490  -0.397  0.00  0.00    +0.006 A 
ATOM     27 BR   UNL     1      -5.853  -4.936  -1.054  0.00  0.00    -0.050 Br
ENDBRANCH  20  21
ENDBRANCH  15  20
ENDBRANCH   1  16
BRANCH  11  28
ATOM     28  C   UNL     1       2.612   2.734   4.035  0.00  0.00    +0.096 C 
BRANCH  28  29
ATOM     29  C   UNL     1       2.725   4.221   4.377  0.00  0.00    +0.013 C 
BRANCH  29  30
ATOM     30  C   UNL     1       3.657   4.905   3.375  0.00  0.00    -0.011 C 
ATOM     31  C   UNL     1       5.102   4.402   3.568  0.00  0.00    +0.003 C 
ATOM     32  C   UNL     1       5.977   5.655   3.322  0.00  0.00    +0.000 C 
ATOM     33  C   UNL     1       5.142   6.788   3.970  0.00  0.00    +0.000 C 
ATOM     34  C   UNL     1       3.682   6.422   3.631  0.00  0.00    +0.003 C 
ENDBRANCH  29  30
ENDBRANCH  28  29
ENDBRANCH  11  28
TORSDOF 6
