REMARK  Name = ZINC09716293
REMARK  10 active torsions:
REMARK  status: ('A' for Active; 'I' for Inactive)
REMARK    1  A    between atoms: C_1  and  C_2
REMARK    2  A    between atoms: C_5  and  N_9
REMARK    3  A    between atoms: C_7  and  C_8
REMARK    4  A    between atoms: C_10  and  C_31
REMARK    5  A    between atoms: C_13  and  S_14
REMARK    6  A    between atoms: S_14  and  C_15
REMARK    7  A    between atoms: C_15  and  C_16
REMARK    8  A    between atoms: C_16  and  C_18
REMARK    9  A    between atoms: C_19  and  N_30
REMARK   10  A    between atoms: N_20  and  C_27
REMARK                            x       y       z     vdW  Elec       q    Type
REMARK                         _______ _______ _______ _____ _____    ______ ____
ROOT
ATOM      1  N   UNL     1       3.080   4.771   2.121  0.00  0.00    -0.270 N 
ATOM      2  C   UNL     1       2.102   4.029   2.748  0.00  0.00    +0.169 A 
ATOM      3  N   UNL     1       1.039   4.794   2.841  0.00  0.00    -0.128 NA
ATOM      4  N   UNL     1       1.278   5.944   2.320  0.00  0.00    -0.122 NA
ATOM      5  C   UNL     1       2.510   5.986   1.860  0.00  0.00    +0.197 A 
ENDROOT
BRANCH   1  10
ATOM      6  C   UNL     1       8.365   3.123   0.869  0.00  0.00    +0.044 C 
ATOM      7  C   UNL     1       6.962   3.560   1.202  0.00  0.00    -0.047 A 
ATOM      8  C   UNL     1       5.884   2.942   0.595  0.00  0.00    +0.005 A 
ATOM      9  C   UNL     1       4.597   3.341   0.897  0.00  0.00    +0.026 A 
ATOM     10  C   UNL     1       4.385   4.363   1.812  0.00  0.00    +0.051 A 
ATOM     11  C   UNL     1       5.469   4.986   2.416  0.00  0.00    +0.030 A 
ATOM     12  C   UNL     1       6.754   4.579   2.113  0.00  0.00    -0.046 A 
ATOM     13  C   UNL     1       7.931   5.250   2.772  0.00  0.00    +0.044 C 
ENDBRANCH   1  10
BRANCH   2  14
ATOM     14  C   UNL     1       2.228   2.638   3.229  0.00  0.00    +0.022 A 
ATOM     15  C   UNL     1       1.095   1.889   3.571  0.00  0.00    +0.031 A 
ATOM     16  C   UNL     1       1.259   0.594   4.016  0.00  0.00    +0.111 A 
ATOM     17  N   UNL     1       2.461   0.061   4.121  0.00  0.00    -0.263 NA
ATOM     18  C   UNL     1       3.555   0.731   3.810  0.00  0.00    +0.111 A 
ATOM     19  C   UNL     1       3.484   2.031   3.358  0.00  0.00    +0.031 A 
ENDBRANCH   2  14
BRANCH   5  20
ATOM     20  S   UNL     1       3.283   7.354   1.063  0.00  0.00    -0.078 S 
BRANCH  20  21
ATOM     21  C   UNL     1       1.924   8.548   1.101  0.00  0.00    +0.157 C 
BRANCH  21  22
ATOM     22  C   UNL     1       2.368   9.835   0.454  0.00  0.00    +0.182 C 
ATOM     23  O   UNL     1       3.494   9.935   0.010  0.00  0.00    -0.291 OA
BRANCH  22  24
ATOM     24  C   UNL     1       1.474  10.924   0.363  0.00  0.00    +0.120 A 
ATOM     25  C   UNL     1       1.904  12.177  -0.106  0.00  0.00    +0.116 A 
ATOM     26  N   UNL     1       1.002  13.200  -0.181  0.00  0.00    -0.278 N 
ATOM     27  C   UNL     1      -0.276  13.031   0.194  0.00  0.00    +0.331 A 
ATOM     28  O   UNL     1      -1.039  13.973   0.112  0.00  0.00    -0.246 OA
ATOM     29  N   UNL     1      -0.742  11.859   0.655  0.00  0.00    -0.274 N 
ATOM     30  H   UNL     1      -1.703  11.781   0.923  0.00  0.00    +0.173 HD
ATOM     31  C   UNL     1       0.068  10.786   0.762  0.00  0.00    +0.266 A 
ATOM     32  O   UNL     1      -0.358   9.725   1.180  0.00  0.00    -0.267 OA
BRANCH  26  33
ATOM     33  C   UNL     1       1.438  14.508  -0.675  0.00  0.00    +0.094 C 
ATOM     34  C   UNL     1       0.563  15.194  -1.726  0.00  0.00    +0.027 C 
ATOM     35  C   UNL     1       1.912  14.593  -2.127  0.00  0.00    +0.027 C 
ENDBRANCH  26  33
BRANCH  25  36
ATOM     36  N   UNL     1       3.197  12.367  -0.485  0.00  0.00    -0.344 N 
ATOM     37  H   UNL     1       3.724  11.619  -0.807  0.00  0.00    +0.144 HD
ATOM     38  H   UNL     1       3.592  13.252  -0.434  0.00  0.00    +0.144 HD
ENDBRANCH  25  36
ENDBRANCH  22  24
ENDBRANCH  21  22
ENDBRANCH  20  21
ENDBRANCH   5  20
TORSDOF 8
