REMARK  Name = ZINC05146026
REMARK  5 active torsions:
REMARK  status: ('A' for Active; 'I' for Inactive)
REMARK    1  A    between atoms: C_1  and  C_2
REMARK    2  A    between atoms: N_4  and  C_5
REMARK    3  A    between atoms: C_6  and  C_15
REMARK    4  A    between atoms: C_18  and  O_20
REMARK    5  A    between atoms: O_20  and  C_21
REMARK                            x       y       z     vdW  Elec       q    Type
REMARK                         _______ _______ _______ _____ _____    ______ ____
ROOT
ATOM      1  C   UNL     1      -2.381   1.157   0.020  0.00  0.00    +0.084 A 
ATOM      2  C   UNL     1      -3.678   1.649   0.034  0.00  0.00    +0.069 A 
ATOM      3  C   UNL     1      -4.769   0.684   0.024  0.00  0.00    -0.023 A 
ATOM      4  C   UNL     1      -4.384  -0.610   0.020  0.00  0.00    -0.004 A 
ATOM      5  S   UNL     1      -2.612  -0.559   0.012  0.00  0.00    -0.077 S 
ATOM      6  C   UNL     1      -5.258  -1.825   0.036  0.00  0.00    +0.043 C 
ATOM      7  C   UNL     1      -6.346  -1.681  -1.037  0.00  0.00    +0.005 C 
ATOM      8  C   UNL     1      -7.551  -0.986  -0.411  0.00  0.00    +0.001 C 
ATOM      9  C   UNL     1      -7.090   0.011   0.651  0.00  0.00    +0.005 C 
ATOM     10  C   UNL     1      -6.234   1.103   0.019  0.00  0.00    +0.037 C 
ENDROOT
BRANCH   2  11
ATOM     11  C   UNL     1      -3.942   3.090   0.054  0.00  0.00    +0.255 C 
ATOM     12  O   UNL     1      -4.058   3.702  -0.991  0.00  0.00    -0.270 OA
ATOM     13  N   UNL     1      -4.055   3.738   1.231  0.00  0.00    -0.217 N 
ATOM     14  C   UNL     1      -4.297   5.064   1.250  0.00  0.00    +0.407 C 
ATOM     15  O   UNL     1      -4.414   5.675   0.206  0.00  0.00    -0.226 OA
ATOM     16  H   UNL     1      -3.962   3.250   2.064  0.00  0.00    +0.161 HD
BRANCH  14  17
ATOM     17  O   UNL     1      -4.411   5.711   2.425  0.00  0.00    -0.453 OA
ATOM     18  C   UNL     1      -4.672   7.138   2.369  0.00  0.00    +0.282 C 
ENDBRANCH  14  17
ENDBRANCH   2  11
BRANCH   1  22
ATOM     19  C   UNL     1       1.280   1.980   0.001  0.00  0.00    +0.109 C 
ATOM     20  C   UNL     1      -0.014   1.209   0.009  0.00  0.00    +0.214 C 
ATOM     21  O   UNL     1       0.002  -0.004   0.002  0.00  0.00    -0.276 OA
ATOM     22  N   UNL     1      -1.191   1.867   0.018  0.00  0.00    -0.280 N 
ATOM     23  H   UNL     1      -1.204   2.836   0.023  0.00  0.00    +0.155 HD
ENDBRANCH   1  22
TORSDOF 3
