REMARK  Name = ZINC09010356
REMARK  11 active torsions:
REMARK  status: ('A' for Active; 'I' for Inactive)
REMARK    1  A    between atoms: C_1  and  C_2
REMARK    2  A    between atoms: C_2  and  C_3
REMARK    3  A    between atoms: C_2  and  O_4
REMARK    4  A    between atoms: O_4  and  C_5
REMARK    5  A    between atoms: C_6  and  O_31
REMARK    6  A    between atoms: C_8  and  C_12
REMARK    7  A    between atoms: C_20  and  C_28
REMARK    8  A    between atoms: C_22  and  C_23
REMARK    9  A    between atoms: C_22  and  C_25
REMARK   10  A    between atoms: C_30  and  N_55
REMARK   11  A    between atoms: O_31  and  C_32
REMARK                            x       y       z     vdW  Elec       q    Type
REMARK                         _______ _______ _______ _____ _____    ______ ____
ROOT
ATOM      1  C   UNL     1       2.449   4.219  -0.001  0.00  0.00    +0.064 C 
ATOM      2  C   UNL     1       2.564   5.011  -1.305  0.00  0.00    +0.010 C 
ATOM      3  C   UNL     1       2.329   4.138  -2.517  0.00  0.00    -0.070 C 
ATOM      4  C   UNL     1       4.358   4.893  -3.576  0.00  0.00    -0.051 C 
ATOM      5  C   UNL     1       4.713   5.689  -2.345  0.00  0.00    -0.044 C 
ATOM      6  C   UNL     1       3.893   5.710  -1.311  0.00  0.00    -0.051 C 
ATOM      7  C   UNL     1       4.299   6.404  -0.063  0.00  0.00    +0.163 C 
ATOM      8  C   UNL     1       3.631   6.142   1.090  0.00  0.00    +0.065 C 
ATOM      9  C   UNL     1       2.472   5.195   1.176  0.00  0.00    +0.188 C 
ATOM     10  N   UNL     1       4.036   6.774   2.231  0.00  0.00    -0.304 NA
ATOM     11  C   UNL     1       3.335   2.805  -4.267  0.00  0.00    -0.096 C 
ATOM     12  H   UNL     1       4.784   7.392   2.204  0.00  0.00    +0.186 HD
ATOM     13  N   UNL     1       3.599   3.707  -3.123  0.00  0.00    +0.381 N 
ATOM     14  H   UNL     1       4.152   3.202  -2.421  0.00  0.00    -0.082 HD
ENDROOT
BRANCH   1  18
ATOM     15  C   UNL     1      -1.228   2.034   0.018  0.00  0.00    +0.180 A 
ATOM     16  C   UNL     1      -0.051   1.419   0.432  0.00  0.00    +0.163 A 
ATOM     17  C   UNL     1       1.139   2.130   0.424  0.00  0.00    +0.053 A 
ATOM     18  C   UNL     1       1.153   3.449   0.009  0.00  0.00    -0.036 A 
ATOM     19  C   UNL     1      -0.017   4.062  -0.398  0.00  0.00    +0.028 A 
ATOM     20  C   UNL     1      -1.208   3.358  -0.392  0.00  0.00    +0.086 A 
ATOM     21 CL   UNL     1      -2.676   4.132  -0.903  0.00  0.00    -0.080 Cl
BRANCH  16  22
ATOM     22  O   UNL     1      -0.067   0.122   0.839  0.00  0.00    -0.491 OA
ATOM     23  C   UNL     1       1.180  -0.446   1.245  0.00  0.00    +0.277 C 
ENDBRANCH  16  22
BRANCH  15  24
ATOM     24  O   UNL     1      -2.398   1.339   0.019  0.00  0.00    -0.484 OA
BRANCH  24  26
ATOM     25  C   UNL     1      -4.149   2.566   1.145  0.00  0.00    +0.051 C 
ATOM     26  C   UNL     1      -3.178   1.385   1.215  0.00  0.00    +0.168 C 
ATOM     27  C   UNL     1      -3.968   0.083   1.360  0.00  0.00    +0.051 C 
ENDBRANCH  24  26
ENDBRANCH  15  24
ENDBRANCH   1  18
BRANCH   9  28
ATOM     28  C   UNL     1       1.220   5.969   1.183  0.00  0.00    +0.091 C 
ATOM     29  N   UNL     1       0.253   6.566   1.188  0.00  0.00    -0.195 NA
ENDBRANCH   9  28
BRANCH   9  30
ATOM     30  C   UNL     1       2.568   4.432   2.431  0.00  0.00    +0.091 C 
ATOM     31  N   UNL     1       2.643   3.842   3.399  0.00  0.00    -0.195 NA
ENDBRANCH   9  30
BRANCH   7  32
ATOM     32  C   UNL     1       5.383   7.340  -0.074  0.00  0.00    +0.076 C 
ATOM     33  N   UNL     1       6.243   8.082  -0.083  0.00  0.00    -0.196 NA
ENDBRANCH   7  32
TORSDOF 7
