REMARK  Name = ZINC12719947
REMARK  3 active torsions:
REMARK  status: ('A' for Active; 'I' for Inactive)
REMARK    1  A    between atoms: C_3  and  C_8
REMARK    2  A    between atoms: N_10  and  N_11
REMARK    3  A    between atoms: C_13  and  C_23
REMARK                            x       y       z     vdW  Elec       q    Type
REMARK                         _______ _______ _______ _____ _____    ______ ____
ROOT
ATOM      1  N   UNL     1       2.466  -4.152   0.148  0.00  0.00    -0.141 NA
ATOM      2  C   UNL     1       3.573  -4.813  -0.056  0.00  0.00    +0.248 A 
ATOM      3  C   UNL     1       4.871  -4.112  -0.166  0.00  0.00    +0.100 A 
ATOM      4  C   UNL     1       6.000  -4.819   0.177  0.00  0.00    +0.030 A 
ATOM      5  C   UNL     1       5.822  -6.205   0.624  0.00  0.00    +0.020 A 
ATOM      6  C   UNL     1       6.871  -6.898   1.239  0.00  0.00    +0.031 A 
ATOM      7  C   UNL     1       6.678  -8.199   1.652  0.00  0.00    +0.042 A 
ATOM      8  C   UNL     1       5.453  -8.821   1.462  0.00  0.00    +0.023 A 
ATOM      9  C   UNL     1       4.410  -8.149   0.854  0.00  0.00    +0.048 A 
ATOM     10  C   UNL     1       4.583  -6.841   0.430  0.00  0.00    +0.138 A 
ATOM     11  O   UNL     1       3.569  -6.171  -0.168  0.00  0.00    -0.436 OA
ATOM     12 CL   UNL     1       7.976  -9.063   2.416  0.00  0.00    -0.084 Cl
ENDROOT
BRANCH   3  13
ATOM     13  C   UNL     1       4.952  -2.715  -0.626  0.00  0.00    +0.247 C 
ATOM     14  O   UNL     1       5.848  -1.995  -0.228  0.00  0.00    -0.270 OA
ATOM     15  N   UNL     1       4.033  -2.235  -1.487  0.00  0.00    -0.325 N 
ATOM     16  H   UNL     1       3.363  -2.827  -1.861  0.00  0.00    +0.145 HD
ATOM     17  H   UNL     1       4.043  -1.296  -1.733  0.00  0.00    +0.145 HD
ENDBRANCH   3  13
BRANCH   1  20
ATOM     18  C   UNL     1       1.368  -2.078   0.551  0.00  0.00    +0.263 C 
ATOM     19  O   UNL     1       0.296  -2.628   0.386  0.00  0.00    -0.268 OA
ATOM     20  N   UNL     1       2.512  -2.784   0.447  0.00  0.00    -0.200 N 
ATOM     21  H   UNL     1       3.367  -2.344   0.578  0.00  0.00    +0.178 HD
BRANCH  18  24
ATOM     22  C   UNL     1       0.286   1.447   1.268  0.00  0.00    +0.004 A 
ATOM     23  C   UNL     1       0.235   0.100   0.974  0.00  0.00    +0.013 A 
ATOM     24  C   UNL     1       1.417  -0.634   0.865  0.00  0.00    +0.041 A 
ATOM     25  C   UNL     1       2.646   0.000   1.055  0.00  0.00    +0.051 A 
ATOM     26  C   UNL     1       2.684   1.350   1.350  0.00  0.00    +0.124 A 
ATOM     27  C   UNL     1       1.505   2.071   1.456  0.00  0.00    +0.038 A 
ATOM     28  F   UNL     1       3.871   1.967   1.534  0.00  0.00    -0.205 F 
ENDBRANCH  18  24
ENDBRANCH   1  20
TORSDOF 3
