REMARK  Name = ZINC19482115
REMARK  4 active torsions:
REMARK  status: ('A' for Active; 'I' for Inactive)
REMARK    1  A    between atoms: C_4  and  O_10
REMARK    2  A    between atoms: C_5  and  C_7
REMARK    3  A    between atoms: O_10  and  C_11
REMARK    4  A    between atoms: C_11  and  C_12
REMARK                            x       y       z     vdW  Elec       q    Type
REMARK                         _______ _______ _______ _____ _____    ______ ____
ROOT
ATOM      1  C   UNL     1      -5.475  -2.985   0.012  0.00  0.00    +0.001 A 
ATOM      2  C   UNL     1      -5.669  -1.614   0.020  0.00  0.00    +0.004 A 
ATOM      3  C   UNL     1      -4.587  -0.756   0.025  0.00  0.00    +0.046 A 
ATOM      4  C   UNL     1      -3.297  -1.265   0.011  0.00  0.00    +0.131 A 
ATOM      5  C   UNL     1      -3.097  -2.650   0.002  0.00  0.00    +0.054 A 
ATOM      6  C   UNL     1      -4.199  -3.507   0.003  0.00  0.00    +0.015 A 
ENDROOT
BRANCH   5   7
ATOM      7  C   UNL     1      -1.726  -3.203  -0.007  0.00  0.00    +0.098 C 
ATOM      8  N   UNL     1      -0.699  -2.400  -0.007  0.00  0.00    -0.387 N 
ATOM      9  N   UNL     1      -1.533  -4.568  -0.015  0.00  0.00    -0.344 N 
ATOM     10  H   UNL     1       0.321  -2.812  -0.013  0.00  0.00    +0.157 HD
ATOM     11  H   UNL     1      -0.513  -4.979  -0.022  0.00  0.00    +0.144 HD
ATOM     12  H   UNL     1      -2.400  -5.246  -0.015  0.00  0.00    +0.144 HD
ATOM     13  H   UNL     1      -0.853  -1.311   0.000  0.00  0.00    +0.157 HD
ENDBRANCH   5   7
BRANCH   4  14
ATOM     14  O   UNL     1      -2.232  -0.423   0.010  0.00  0.00    -0.487 OA
BRANCH  14  15
ATOM     15  C   UNL     1      -2.514   0.978   0.019  0.00  0.00    +0.265 C 
BRANCH  15  16
ATOM     16  C   UNL     1      -1.219   1.750   0.017  0.00  0.00    +0.004 A 
ATOM     17  C   UNL     1      -0.013   1.076   0.008  0.00  0.00    +0.011 A 
ATOM     18  C   UNL     1       1.175   1.783   0.000  0.00  0.00    +0.039 A 
ATOM     19  C   UNL     1       1.156   3.167   0.008  0.00  0.00    +0.124 A 
ATOM     20  C   UNL     1      -0.052   3.842   0.022  0.00  0.00    +0.054 A 
ATOM     21  C   UNL     1      -1.239   3.133   0.030  0.00  0.00    +0.027 A 
ATOM     22 BR   UNL     1      -2.891   4.055   0.049  0.00  0.00    -0.050 Br
ATOM     23  F   UNL     1       2.317   3.859   0.001  0.00  0.00    -0.205 F 
ENDBRANCH  15  16
ENDBRANCH  14  15
ENDBRANCH   4  14
TORSDOF 4
