REMARK  Name = ZINC20835654
REMARK  11 active torsions:
REMARK  status: ('A' for Active; 'I' for Inactive)
REMARK    1  A    between atoms: C_1  and  C_2
REMARK    2  A    between atoms: C_2  and  C_25
REMARK    3  A    between atoms: N_3  and  N_4
REMARK    4  A    between atoms: C_7  and  S_10
REMARK    5  A    between atoms: S_10  and  C_11
REMARK    6  A    between atoms: C_11  and  C_12
REMARK    7  A    between atoms: N_14  and  C_15
REMARK    8  A    between atoms: C_17  and  C_23
REMARK    9  A    between atoms: C_17  and  C_24
REMARK   10  A    between atoms: C_19  and  C_21
REMARK   11  A    between atoms: C_19  and  C_22
REMARK                            x       y       z     vdW  Elec       q    Type
REMARK                         _______ _______ _______ _____ _____    ______ ____
ROOT
ATOM      1  S   UNL     1      -5.141   1.864   0.038  0.00  0.00    -0.075 S 
ENDROOT
BRANCH   1   5
ATOM      2  N   UNL     1      -0.011   0.966   0.007  0.00  0.00    -0.205 N 
ATOM      3  C   UNL     1      -1.222   1.643   0.017  0.00  0.00    +0.232 A 
ATOM      4  N   UNL     1      -2.463   1.070   0.019  0.00  0.00    -0.186 NA
ATOM      5  C   UNL     1      -3.391   2.072   0.030  0.00  0.00    +0.211 A 
ATOM      6  N   UNL     1      -2.751   3.217   0.033  0.00  0.00    -0.144 NA
ATOM      7  N   UNL     1      -1.377   2.945   0.030  0.00  0.00    -0.245 N 
ATOM      8  H   UNL     1       0.004  -0.134   0.006  0.00  0.00    +0.177 HD
ATOM      9  H   UNL     1      -0.496   3.603   0.037  0.00  0.00    +0.192 HD
BRANCH   2  12
ATOM     10  C   UNL     1       2.347  -0.458  -0.023  0.00  0.00    +0.068 C 
ATOM     11  C   UNL     1       2.326   1.049  -0.015  0.00  0.00    +0.063 C 
ATOM     12  N   UNL     1       1.193   1.683  -0.000  0.00  0.00    -0.184 NA
BRANCH  11  13
ATOM     13  C   UNL     1       3.592   1.802  -0.023  0.00  0.00    +0.000 A 
ATOM     14  C   UNL     1       4.827   1.138  -0.032  0.00  0.00    +0.029 A 
ATOM     15  C   UNL     1       5.986   1.884  -0.044  0.00  0.00    +0.111 A 
ATOM     16  N   UNL     1       5.944   3.203  -0.036  0.00  0.00    -0.263 NA
ATOM     17  C   UNL     1       4.804   3.869  -0.023  0.00  0.00    +0.111 A 
ATOM     18  C   UNL     1       3.596   3.204  -0.015  0.00  0.00    +0.029 A 
ENDBRANCH  11  13
ENDBRANCH   2  12
ENDBRANCH   1   5
BRANCH   1  19
ATOM     19  C   UNL     1      -5.664   3.597   0.050  0.00  0.00    +0.173 C 
BRANCH  19  20
ATOM     20  C   UNL     1      -7.169   3.667   0.058  0.00  0.00    +0.224 C 
ATOM     21  O   UNL     1      -7.824   2.646   0.056  0.00  0.00    -0.275 OA
ATOM     22  N   UNL     1      -7.787   4.864   0.068  0.00  0.00    -0.312 N 
ATOM     23  H   UNL     1      -7.194   5.790   0.070  0.00  0.00    +0.149 HD
BRANCH  22  24
ATOM     24  C   UNL     1      -9.254   4.933   0.076  0.00  0.00    +0.070 C 
ATOM     25  C   UNL     1      -9.769   4.875  -1.362  0.00  0.00    +0.009 C 
ATOM     26  C   UNL     1     -11.292   4.968  -1.386  0.00  0.00    -0.072 C 
ATOM     27  N   UNL     1     -11.805   6.063  -0.589  0.00  0.00    +0.386 N 
ATOM     28  C   UNL     1     -11.216   6.367   0.698  0.00  0.00    -0.072 C 
ATOM     29  C   UNL     1      -9.693   6.260   0.696  0.00  0.00    +0.009 C 
ATOM     30  C   UNL     1     -11.791   5.468   1.798  0.00  0.00    -0.010 C 
ATOM     31  C   UNL     1     -11.579   7.824   1.062  0.00  0.00    -0.010 C 
ATOM     32  C   UNL     1     -11.894   3.630  -0.941  0.00  0.00    -0.010 C 
ATOM     33  C   UNL     1     -11.721   5.196  -2.853  0.00  0.00    -0.010 C 
ATOM     34  H   UNL     1     -11.708   7.003  -1.152  0.00  0.00    -0.084 HD
ATOM     35  H   UNL     1     -12.865   5.882  -0.357  0.00  0.00    -0.084 HD
ENDBRANCH  22  24
ENDBRANCH  19  20
ENDBRANCH   1  19
TORSDOF 6
