REMARK  Name = ZINC37401315
REMARK  4 active torsions:
REMARK  status: ('A' for Active; 'I' for Inactive)
REMARK    1  A    between atoms: C_1  and  C_2
REMARK    2  A    between atoms: C_5  and  N_9
REMARK    3  A    between atoms: C_6  and  N_8
REMARK    4  A    between atoms: N_12  and  C_15
REMARK                            x       y       z     vdW  Elec       q    Type
REMARK                         _______ _______ _______ _____ _____    ______ ____
ROOT
ATOM      1  N   UNL     1       0.059  -4.175  -0.034  0.00  0.00    -0.325 N 
ATOM      2  C   UNL     1      -1.196  -4.940  -0.040  0.00  0.00    +0.124 C 
ATOM      3  C   UNL     1      -1.185  -5.891  -1.242  0.00  0.00    +0.124 C 
ATOM      4  N   UNL     1       0.090  -6.622  -1.250  0.00  0.00    -0.326 N 
ATOM      5  C   UNL     1       1.345  -5.858  -1.244  0.00  0.00    +0.124 C 
ATOM      6  C   UNL     1       1.333  -4.906  -0.047  0.00  0.00    +0.124 C 
ENDROOT
BRANCH   1  11
ATOM      7  C   UNL     1      -0.018   1.503   0.010  0.00  0.00    +0.044 C 
ATOM      8  C   UNL     1       0.002  -0.004   0.002  0.00  0.00    -0.049 A 
ATOM      9  C   UNL     1       0.006  -0.687  -1.200  0.00  0.00    +0.005 A 
ATOM     10  C   UNL     1       0.025  -2.069  -1.215  0.00  0.00    +0.025 A 
ATOM     11  C   UNL     1       0.040  -2.775  -0.021  0.00  0.00    +0.051 A 
ATOM     12  C   UNL     1       0.037  -2.086   1.192  0.00  0.00    +0.046 A 
ATOM     13  C   UNL     1       0.023  -0.700   1.197  0.00  0.00    +0.028 A 
BRANCH  12  14
ATOM     14  N   UNL     1       0.052  -2.793   2.400  0.00  0.00    -0.357 N 
ATOM     15  H   UNL     1       0.065  -3.763   2.395  0.00  0.00    +0.142 HD
ATOM     16  H   UNL     1       0.050  -2.313   3.243  0.00  0.00    +0.142 HD
ENDBRANCH  12  14
ENDBRANCH   1  11
BRANCH   4  17
ATOM     17  C   UNL     1       0.109  -8.020  -1.262  0.00  0.00    +0.048 A 
ATOM     18  C   UNL     1       0.123  -8.705  -2.470  0.00  0.00    +0.024 A 
ATOM     19  C   UNL     1       0.141 -10.086  -2.479  0.00  0.00    +0.002 A 
ATOM     20  C   UNL     1       0.146 -10.787  -1.287  0.00  0.00    +0.002 A 
ATOM     21  C   UNL     1       0.132 -10.109  -0.083  0.00  0.00    +0.022 A 
ATOM     22  C   UNL     1       0.119  -8.727  -0.066  0.00  0.00    +0.062 A 
ATOM     23 CL   UNL     1       0.108  -7.876   1.447  0.00  0.00    -0.082 Cl
ENDBRANCH   4  17
TORSDOF 3
