REMARK  Name = ZINC06530719
REMARK  2 active torsions:
REMARK  status: ('A' for Active; 'I' for Inactive)
REMARK    1  A    between atoms: C_1  and  C_2
REMARK    2  A    between atoms: N_11  and  C_12
REMARK                            x       y       z     vdW  Elec       q    Type
REMARK                         _______ _______ _______ _____ _____    ______ ____
ROOT
ATOM      1  C   UNL     1       0.412   1.686  -0.125  0.00  0.00    +0.029 C 
ATOM      2  C   UNL     1       0.153   0.181  -0.021  0.00  0.00    +0.082 C 
ATOM      3  C   UNL     1       0.989  -0.426   1.117  0.00  0.00    +0.059 C 
ATOM      4  C   UNL     1       1.884  -1.436   0.435  0.00  0.00    -0.024 A 
ATOM      5  C   UNL     1       2.846  -2.286   0.946  0.00  0.00    +0.005 A 
ATOM      6  C   UNL     1       3.543  -3.132   0.104  0.00  0.00    +0.000 A 
ATOM      7  C   UNL     1       3.276  -3.126  -1.253  0.00  0.00    +0.002 A 
ATOM      8  C   UNL     1       2.318  -2.279  -1.767  0.00  0.00    +0.024 A 
ATOM      9  C   UNL     1       1.609  -1.422  -0.923  0.00  0.00    +0.039 A 
ATOM     10  N   UNL     1       0.607  -0.497  -1.238  0.00  0.00    -0.280 N 
ENDROOT
BRANCH  10  11
ATOM     11  C   UNL     1       0.117  -0.257  -2.511  0.00  0.00    +0.157 A 
ATOM     12  C   UNL     1      -0.983   0.595  -2.709  0.00  0.00    +0.148 A 
ATOM     13  N   UNL     1      -1.781   1.325  -1.894  0.00  0.00    -0.231 NA
ATOM     14  C   UNL     1      -2.672   1.950  -2.607  0.00  0.00    +0.198 A 
ATOM     15  N   UNL     1      -2.500   1.659  -3.927  0.00  0.00    -0.329 N 
ATOM     16  C   UNL     1      -1.434   0.800  -4.024  0.00  0.00    +0.163 A 
ATOM     17  N   UNL     1      -0.811   0.186  -5.024  0.00  0.00    -0.216 NA
ATOM     18  C   UNL     1       0.216  -0.604  -4.791  0.00  0.00    +0.225 A 
ATOM     19  N   UNL     1       0.680  -0.823  -3.574  0.00  0.00    -0.218 NA
ATOM     20  H   UNL     1      -3.033   1.996  -4.664  0.00  0.00    +0.168 HD
ENDBRANCH  10  11
TORSDOF 1
