REMARK  Name = ZINC61544241
REMARK  7 active torsions:
REMARK  status: ('A' for Active; 'I' for Inactive)
REMARK    1  A    between atoms: C_1  and  C_2
REMARK    2  A    between atoms: C_2  and  N_3
REMARK    3  A    between atoms: N_3  and  C_4
REMARK    4  A    between atoms: C_4  and  C_5
REMARK    5  A    between atoms: C_8  and  S_13
REMARK    6  A    between atoms: S_13  and  C_14
REMARK    7  A    between atoms: C_18  and  N_20
REMARK                            x       y       z     vdW  Elec       q    Type
REMARK                         _______ _______ _______ _____ _____    ______ ____
ROOT
ATOM      1  S   UNL     1       0.714  -1.942  -6.012  0.00  0.00    -0.010 S 
ENDROOT
BRANCH   1   2
ATOM      2  C   UNL     1      -0.579  -2.092  -7.199  0.00  0.00    +0.199 A 
ATOM      3  N   UNL     1      -1.817  -1.777  -6.848  0.00  0.00    -0.207 NA
ATOM      4  C   UNL     1      -2.819  -1.877  -7.719  0.00  0.00    +0.122 A 
ATOM      5  C   UNL     1      -2.551  -2.319  -9.011  0.00  0.00    +0.086 A 
ATOM      6  C   UNL     1      -1.239  -2.641  -9.343  0.00  0.00    +0.122 A 
ATOM      7  N   UNL     1      -0.287  -2.511  -8.421  0.00  0.00    -0.207 NA
ATOM      8  N   UNL     1      -4.111  -1.546  -7.343  0.00  0.00    -0.343 N 
ATOM      9  H   UNL     1      -4.290  -1.239  -6.440  0.00  0.00    +0.144 HD
ATOM     10  H   UNL     1      -4.837  -1.621  -7.982  0.00  0.00    +0.144 HD
BRANCH   6  11
ATOM     11  N   UNL     1      -0.925  -3.085 -10.618  0.00  0.00    -0.343 N 
ATOM     12  H   UNL     1      -1.623  -3.174 -11.286  0.00  0.00    +0.144 HD
ATOM     13  H   UNL     1      -0.008  -3.308 -10.843  0.00  0.00    +0.144 HD
ENDBRANCH   6  11
ENDBRANCH   1   2
BRANCH   1  17
ATOM     14  N   UNL     1       0.688  -0.476  -1.203  0.00  0.00    -0.300 N 
ATOM     15  C   UNL     1      -0.030  -0.710  -2.359  0.00  0.00    +0.223 A 
ATOM     16  N   UNL     1       0.591  -1.144  -3.451  0.00  0.00    -0.188 NA
ATOM     17  C   UNL     1      -0.104  -1.368  -4.561  0.00  0.00    +0.201 A 
ATOM     18  N   UNL     1      -1.418  -1.157  -4.576  0.00  0.00    -0.191 NA
ATOM     19  C   UNL     1      -2.033  -0.725  -3.488  0.00  0.00    +0.228 A 
ATOM     20  N   UNL     1      -1.345  -0.506  -2.379  0.00  0.00    -0.184 NA
ATOM     21 CL   UNL     1      -3.747  -0.452  -3.512  0.00  0.00    -0.041 Cl
BRANCH  14  23
ATOM     22  C   UNL     1      -0.019   1.526   0.010  0.00  0.00    +0.024 C 
ATOM     23  C   UNL     1       0.002  -0.004   0.002  0.00  0.00    +0.104 C 
ENDBRANCH  14  23
BRANCH  14  24
ATOM     24  C   UNL     1       2.135  -0.701  -1.182  0.00  0.00    +0.104 C 
ATOM     25  C   UNL     1       2.421  -2.145  -0.763  0.00  0.00    +0.024 C 
ENDBRANCH  14  24
ENDBRANCH   1  17
TORSDOF 5
