REMARK  Name = ZINC01425725
REMARK  3 active torsions:
REMARK  status: ('A' for Active; 'I' for Inactive)
REMARK    1  A    between atoms: C_11  and  C_13
REMARK    2  A    between atoms: C_13  and  S_14
REMARK    3  A    between atoms: S_14  and  C_15
REMARK                            x       y       z     vdW  Elec       q    Type
REMARK                         _______ _______ _______ _____ _____    ______ ____
ROOT
ATOM      1  C   UNL     1       3.591  -2.060  -0.044  0.00  0.00    +0.001 A 
ATOM      2  C   UNL     1       2.392  -2.760  -0.036  0.00  0.00    +0.002 A 
ATOM      3  C   UNL     1       1.186  -2.096  -0.021  0.00  0.00    +0.028 A 
ATOM      4  C   UNL     1       1.167  -0.699  -0.013  0.00  0.00    +0.078 A 
ATOM      5  C   UNL     1       2.388   0.010  -0.021  0.00  0.00    +0.065 A 
ATOM      6  C   UNL     1       3.597  -0.682  -0.036  0.00  0.00    +0.015 A 
ATOM      7  C   UNL     1       2.333   1.479  -0.012  0.00  0.00    +0.259 A 
ATOM      8  O   UNL     1       3.349   2.150  -0.019  0.00  0.00    -0.267 OA
ATOM      9  N   UNL     1       1.109   2.057   0.003  0.00  0.00    -0.310 N 
ATOM     10  H   UNL     1       1.032   3.054   0.009  0.00  0.00    +0.170 HD
ATOM     11  C   UNL     1      -0.015   1.294   0.009  0.00  0.00    +0.121 A 
ATOM     12  N   UNL     1       0.002  -0.004   0.002  0.00  0.00    -0.233 NA
ENDROOT
BRANCH  11  13
ATOM     13  C   UNL     1      -1.352   1.991   0.019  0.00  0.00    +0.151 C 
BRANCH  13  14
ATOM     14  S   UNL     1      -2.676   0.757   0.019  0.00  0.00    -0.080 S 
BRANCH  14  15
ATOM     15  C   UNL     1      -4.083   1.817   0.031  0.00  0.00    +0.168 A 
ATOM     16  N   UNL     1      -5.383   1.397   0.035  0.00  0.00    -0.333 N 
ATOM     17  H   UNL     1      -5.700   0.449   0.031  0.00  0.00    +0.168 HD
ATOM     18  C   UNL     1      -6.180   2.530   0.044  0.00  0.00    +0.067 A 
ATOM     19  C   UNL     1      -7.551   2.741   0.052  0.00  0.00    +0.028 A 
ATOM     20  C   UNL     1      -8.048   4.028   0.062  0.00  0.00    +0.002 A 
ATOM     21  C   UNL     1      -7.185   5.114   0.064  0.00  0.00    +0.002 A 
ATOM     22  C   UNL     1      -5.822   4.923   0.057  0.00  0.00    +0.030 A 
ATOM     23  C   UNL     1      -5.302   3.626   0.046  0.00  0.00    +0.090 A 
ATOM     24  N   UNL     1      -4.038   3.127   0.043  0.00  0.00    -0.222 NA
ENDBRANCH  14  15
ENDBRANCH  13  14
ENDBRANCH  11  13
TORSDOF 3
