REMARK  Name = ZINC31906020
REMARK  9 active torsions:
REMARK  status: ('A' for Active; 'I' for Inactive)
REMARK    1  A    between atoms: C_1  and  C_2
REMARK    2  A    between atoms: C_2  and  O_3
REMARK    3  A    between atoms: O_3  and  C_4
REMARK    4  A    between atoms: C_6  and  C_12
REMARK    5  A    between atoms: C_9  and  O_10
REMARK    6  A    between atoms: N_13  and  N_14
REMARK    7  A    between atoms: C_15  and  C_17
REMARK    8  A    between atoms: C_17  and  C_18
REMARK    9  A    between atoms: C_18  and  C_19
REMARK                            x       y       z     vdW  Elec       q    Type
REMARK                         _______ _______ _______ _____ _____    ______ ____
ROOT
ATOM      1  N   UNL     1      -0.022  -0.768  -1.334  0.00  0.00    -0.207 N 
ATOM      2  C   UNL     1      -0.555  -0.060  -0.319  0.00  0.00    +0.233 C 
ATOM      3  O   UNL     1      -0.621  -0.545   0.791  0.00  0.00    -0.274 OA
ATOM      4  H   UNL     1       0.037  -0.329  -2.341  0.00  0.00    +0.177 HD
ENDROOT
BRANCH   1   6
ATOM      5  C   UNL     1       1.078  -2.702  -2.052  0.00  0.00    +0.138 C 
ATOM      6  N   UNL     1       0.458  -2.065  -1.107  0.00  0.00    -0.188 NA
BRANCH   5   9
ATOM      7  C   UNL     1       2.693  -1.922  -5.352  0.00  0.00    +0.163 A 
ATOM      8  C   UNL     1       2.118  -2.629  -4.311  0.00  0.00    +0.059 A 
ATOM      9  C   UNL     1       1.697  -1.955  -3.162  0.00  0.00    -0.001 A 
ATOM     10  C   UNL     1       1.869  -0.572  -3.065  0.00  0.00    +0.028 A 
ATOM     11  C   UNL     1       2.448   0.126  -4.105  0.00  0.00    +0.063 A 
ATOM     12  C   UNL     1       2.862  -0.544  -5.248  0.00  0.00    +0.173 A 
ATOM     13 BR   UNL     1       2.680   1.998  -3.972  0.00  0.00    -0.046 Br
BRANCH  12  14
ATOM     14  O   UNL     1       3.432   0.148  -6.270  0.00  0.00    -0.503 OA
ATOM     15  H   UNL     1       3.566   1.237  -6.190  0.00  0.00    +0.292 HD
ENDBRANCH  12  14
BRANCH   7  16
ATOM     16  O   UNL     1       3.098  -2.575  -6.474  0.00  0.00    -0.489 OA
BRANCH  16  18
ATOM     17  C   UNL     1       3.409  -4.543  -7.842  0.00  0.00    +0.048 C 
ATOM     18  C   UNL     1       2.895  -3.989  -6.512  0.00  0.00    +0.226 C 
ENDBRANCH  16  18
ENDBRANCH   7  16
ENDBRANCH   5   9
ENDBRANCH   1   6
BRANCH   2  19
ATOM     19  C   UNL     1      -1.071   1.335  -0.563  0.00  0.00    +0.104 C 
BRANCH  19  20
ATOM     20  C   UNL     1      -1.621   1.911   0.743  0.00  0.00    +0.072 C 
BRANCH  20  21
ATOM     21  C   UNL     1      -2.136   3.306   0.499  0.00  0.00    +0.126 A 
ATOM     22  C   UNL     1      -2.719   4.085   1.595  0.00  0.00    +0.276 A 
ATOM     23  O   UNL     1      -2.792   3.615   2.715  0.00  0.00    -0.266 OA
ATOM     24  N   UNL     1      -3.172   5.332   1.347  0.00  0.00    -0.272 N 
ATOM     25  H   UNL     1      -3.612   5.929   2.160  0.00  0.00    +0.174 HD
ATOM     26  C   UNL     1      -3.087   5.845   0.106  0.00  0.00    +0.343 A 
ATOM     27  O   UNL     1      -3.499   6.969  -0.107  0.00  0.00    -0.245 OA
ATOM     28  N   UNL     1      -2.554   5.133  -0.903  0.00  0.00    -0.228 N 
ATOM     29  H   UNL     1      -2.496   5.567  -1.912  0.00  0.00    +0.194 HD
ATOM     30  N   UNL     1      -2.066   3.838  -0.689  0.00  0.00    -0.169 NA
ENDBRANCH  20  21
ENDBRANCH  19  20
ENDBRANCH   2  19
TORSDOF 8
