REMARK  Name = ZINC09471396
REMARK  7 active torsions:
REMARK  status: ('A' for Active; 'I' for Inactive)
REMARK    1  A    between atoms: C_1  and  C_2
REMARK    2  A    between atoms: C_7  and  C_12
REMARK    3  A    between atoms: C_12  and  C_13
REMARK    4  A    between atoms: C_14  and  C_29
REMARK    5  A    between atoms: N_16  and  C_21
REMARK    6  A    between atoms: C_21  and  C_22
REMARK    7  A    between atoms: C_22  and  C_23
REMARK                            x       y       z     vdW  Elec       q    Type
REMARK                         _______ _______ _______ _____ _____    ______ ____
ROOT
ATOM      1  C   UNL     1       7.260  -1.101  -0.476  0.00  0.00    +0.076 C 
ATOM      2  C   UNL     1       7.344  -1.053   1.032  0.00  0.00    +0.147 C 
ATOM      3  N   UNL     1       8.732  -1.388   1.375  0.00  0.00    -0.283 N 
ATOM      4  C   UNL     1       9.399  -1.609   0.228  0.00  0.00    +0.288 C 
ATOM      5  O   UNL     1      10.574  -1.909   0.152  0.00  0.00    -0.266 OA
ATOM      6  C   UNL     1       8.491  -1.439  -0.925  0.00  0.00    +0.249 C 
ATOM      7  O   UNL     1       8.836  -1.593  -2.224  0.00  0.00    -0.282 OA
ENDROOT
BRANCH   2   8
ATOM      8  C   UNL     1       6.403  -2.064   1.636  0.00  0.00    +0.013 A 
ATOM      9  C   UNL     1       5.930  -3.113   0.870  0.00  0.00    +0.008 A 
ATOM     10  C   UNL     1       5.067  -4.040   1.424  0.00  0.00    +0.001 A 
ATOM     11  C   UNL     1       4.676  -3.919   2.744  0.00  0.00    +0.003 A 
ATOM     12  C   UNL     1       5.148  -2.872   3.512  0.00  0.00    +0.039 A 
ATOM     13  C   UNL     1       6.017  -1.945   2.960  0.00  0.00    +0.129 A 
ATOM     14  F   UNL     1       6.482  -0.923   3.711  0.00  0.00    -0.205 F 
ENDBRANCH   2   8
BRANCH   1  15
ATOM     15  C   UNL     1       6.072  -0.839  -1.294  0.00  0.00    +0.195 C 
ATOM     16  O   UNL     1       5.559  -1.742  -1.929  0.00  0.00    -0.287 OA
BRANCH  15  22
ATOM     17  C   UNL     1       3.777   4.689  -4.019  0.00  0.00    +0.052 C 
ATOM     18  C   UNL     1       2.963   4.163  -2.836  0.00  0.00    +0.175 C 
ATOM     19  C   UNL     1       2.703   2.645  -2.980  0.00  0.00    +0.083 C 
ATOM     20  C   UNL     1       3.866   2.054  -2.206  0.00  0.00    -0.002 A 
ATOM     21  C   UNL     1       4.392   0.787  -2.162  0.00  0.00    +0.019 A 
ATOM     22  C   UNL     1       5.497   0.520  -1.347  0.00  0.00    +0.023 A 
ATOM     23  C   UNL     1       6.054   1.551  -0.583  0.00  0.00    +0.015 A 
ATOM     24  C   UNL     1       5.516   2.815  -0.632  0.00  0.00    +0.046 A 
ATOM     25  C   UNL     1       4.411   3.083  -1.442  0.00  0.00    +0.124 A 
ATOM     26  O   UNL     1       3.722   4.247  -1.618  0.00  0.00    -0.488 OA
ENDBRANCH  15  22
ENDBRANCH   1  15
BRANCH   3  27
ATOM     27  C   UNL     1       9.290  -1.467   2.727  0.00  0.00    +0.114 C 
BRANCH  27  28
ATOM     28  C   UNL     1       9.266  -2.920   3.205  0.00  0.00    +0.054 C 
BRANCH  28  29
ATOM     29  C   UNL     1       9.750  -2.988   4.630  0.00  0.00    -0.046 A 
ATOM     30  C   UNL     1      11.095  -3.160   4.896  0.00  0.00    +0.004 A 
ATOM     31  C   UNL     1      11.539  -3.223   6.204  0.00  0.00    +0.000 A 
ATOM     32  C   UNL     1      10.637  -3.113   7.246  0.00  0.00    +0.000 A 
ATOM     33  C   UNL     1       9.292  -2.940   6.980  0.00  0.00    +0.000 A 
ATOM     34  C   UNL     1       8.848  -2.873   5.672  0.00  0.00    +0.004 A 
ENDBRANCH  28  29
ENDBRANCH  27  28
ENDBRANCH   3  27
TORSDOF 6
