REMARK  Name = ZINC12652359
REMARK  7 active torsions:
REMARK  status: ('A' for Active; 'I' for Inactive)
REMARK    1  A    between atoms: C_4  and  C_7
REMARK    2  A    between atoms: N_17  and  C1*_18
REMARK    3  A    between atoms: C2*_20  and  O2*_30
REMARK    4  A    between atoms: C3*_22  and  O3*_29
REMARK    5  A    between atoms: C4*_24  and  C5*_27
REMARK    6  A    between atoms: C5*_27  and  O5*_28
REMARK    7  A    between atoms: C_34  and  O_35
REMARK                            x       y       z     vdW  Elec       q    Type
REMARK                         _______ _______ _______ _____ _____    ______ ____
ROOT
ATOM      1  C   UNL     1      -1.948   2.439  -0.646  0.00  0.00    +0.038 C 
ATOM      2  C   UNL     1      -0.779   1.607  -1.222  0.00  0.00    +0.028 C 
ATOM      3  C   UNL     1      -0.013   1.086   0.008  0.00  0.00    +0.108 C 
ATOM      4  N   UNL     1      -0.726   1.573   1.208  0.00  0.00    -0.300 N 
ATOM      5  C   UNL     1      -1.449   2.800   0.776  0.00  0.00    +0.116 C 
ATOM      6  C   UNL     1       0.158   1.850   2.231  0.00  0.00    +0.203 A 
ATOM      7  N   UNL     1       0.145   1.282   3.411  0.00  0.00    -0.207 NA
ATOM      8  C   UNL     1       1.154   1.787   4.165  0.00  0.00    +0.171 A 
ATOM      9  C   UNL     1       1.823   2.742   3.380  0.00  0.00    +0.171 A 
ATOM     10  N   UNL     1       1.175   2.762   2.167  0.00  0.00    -0.267 N 
ATOM     11  N   UNL     1       2.858   3.392   3.898  0.00  0.00    -0.216 NA
ATOM     12  C   UNL     1       3.256   3.147   5.129  0.00  0.00    +0.227 A 
ATOM     13  N   UNL     1       2.658   2.260   5.903  0.00  0.00    -0.200 NA
ATOM     14  C   UNL     1       1.615   1.562   5.470  0.00  0.00    +0.244 A 
ENDROOT
BRANCH   1  18
ATOM     15  C   UNL     1      -2.587   5.962  -2.976  0.00  0.00    +0.000 A 
ATOM     16  C   UNL     1      -3.609   5.046  -2.814  0.00  0.00    +0.000 A 
ATOM     17  C   UNL     1      -3.402   3.906  -2.060  0.00  0.00    +0.004 A 
ATOM     18  C   UNL     1      -2.173   3.682  -1.468  0.00  0.00    -0.043 A 
ATOM     19  C   UNL     1      -1.153   4.601  -1.625  0.00  0.00    +0.004 A 
ATOM     20  C   UNL     1      -1.358   5.739  -2.383  0.00  0.00    +0.000 A 
ENDBRANCH   1  18
BRANCH  10  21
ATOM     21  C1* UNL     1       1.513   3.604   1.016  0.00  0.00    +0.255 C 
ATOM     22  C2* UNL     1       1.108   5.077   1.281  0.00  0.00    +0.195 C 
ATOM     23  C3* UNL     1       2.063   5.849   0.340  0.00  0.00    +0.178 C 
ATOM     24  C4* UNL     1       3.215   4.860   0.075  0.00  0.00    +0.177 C 
ATOM     25  O4* UNL     1       2.944   3.671   0.839  0.00  0.00    -0.346 OA
BRANCH  23  26
ATOM     26  O3* UNL     1       1.401   6.183  -0.882  0.00  0.00    -0.386 OA
ATOM     27  H3* UNL     1       1.954   6.669  -1.509  0.00  0.00    +0.210 HD
ENDBRANCH  23  26
BRANCH  22  28
ATOM     28  O2* UNL     1       1.339   5.432   2.645  0.00  0.00    -0.385 OA
ATOM     29  H2* UNL     1       1.100   6.344   2.860  0.00  0.00    +0.210 HD
ENDBRANCH  22  28
BRANCH  24  30
ATOM     30  C5* UNL     1       4.543   5.477   0.518  0.00  0.00    +0.190 C 
BRANCH  30  31
ATOM     31  O5* UNL     1       5.617   4.603   0.164  0.00  0.00    -0.392 OA
ATOM     32  H5* UNL     1       6.491   4.932   0.415  0.00  0.00    +0.210 HD
ENDBRANCH  30  31
ENDBRANCH  24  30
ENDBRANCH  10  21
BRANCH  14  33
ATOM     33  O   UNL     1       1.008   0.653   6.272  0.00  0.00    -0.491 OA
ATOM     34  H   UNL     1       0.288   1.018   6.804  0.00  0.00    +0.294 HD
ENDBRANCH  14  33
TORSDOF 7
