REMARK  Name = ZINC00959837
REMARK  5 active torsions:
REMARK  status: ('A' for Active; 'I' for Inactive)
REMARK    1  A    between atoms: C_1  and  C_2
REMARK    2  A    between atoms: C_2  and  S_3
REMARK    3  A    between atoms: S_3  and  C_4
REMARK    4  A    between atoms: C_14  and  C_16
REMARK    5  A    between atoms: C_21  and  N_22
REMARK                            x       y       z     vdW  Elec       q    Type
REMARK                         _______ _______ _______ _____ _____    ______ ____
ROOT
ATOM      1  C   UNL     1      -2.498  -1.866   0.085  0.00  0.00    +0.171 A 
ATOM      2  N   UNL     1      -2.689  -2.851  -0.767  0.00  0.00    -0.185 NA
ATOM      3  C   UNL     1      -2.000  -3.998  -0.664  0.00  0.00    +0.280 A 
ATOM      4  O   UNL     1      -2.188  -4.902  -1.465  0.00  0.00    -0.265 OA
ATOM      5  C   UNL     1      -1.057  -4.154   0.375  0.00  0.00    +0.069 A 
ATOM      6  C   UNL     1      -0.866  -3.128   1.247  0.00  0.00    +0.111 A 
ATOM      7  N   UNL     1      -1.591  -1.975   1.096  0.00  0.00    -0.322 N 
ATOM      8  N   UNL     1       0.053  -3.245   2.264  0.00  0.00    -0.304 N 
ATOM      9  C   UNL     1       1.040  -4.191   2.208  0.00  0.00    +0.017 C 
ATOM     10  C   UNL     1       0.929  -5.253   1.381  0.00  0.00    +0.024 C 
ATOM     11  C   UNL     1      -0.287  -5.434   0.510  0.00  0.00    +0.095 C 
ATOM     12  C   UNL     1       1.945  -6.221   1.306  0.00  0.00    +0.162 C 
ATOM     13  O   UNL     1       1.812  -7.169   0.557  0.00  0.00    -0.292 OA
ATOM     14  C   UNL     1       3.194  -6.108   2.137  0.00  0.00    +0.080 C 
ATOM     15  C   UNL     1       3.477  -4.628   2.414  0.00  0.00    +0.014 C 
ATOM     16  C   UNL     1       2.249  -4.019   3.094  0.00  0.00    +0.051 C 
ATOM     17  H   UNL     1       0.000  -2.651   3.029  0.00  0.00    +0.153 HD
ATOM     18  H   UNL     1      -1.460  -1.236   1.711  0.00  0.00    +0.169 HD
ENDROOT
BRANCH  11  19
ATOM     19  C   UNL     1      -1.179  -6.484   1.120  0.00  0.00    -0.005 A 
ATOM     20  C   UNL     1      -1.629  -6.339   2.419  0.00  0.00    +0.007 A 
ATOM     21  C   UNL     1      -2.447  -7.302   2.979  0.00  0.00    +0.000 A 
ATOM     22  C   UNL     1      -2.816  -8.411   2.240  0.00  0.00    +0.002 A 
ATOM     23  C   UNL     1      -2.367  -8.556   0.941  0.00  0.00    +0.033 A 
ATOM     24  C   UNL     1      -1.552  -7.590   0.380  0.00  0.00    +0.130 A 
BRANCH  24  25
ATOM     25  N   UNL     1      -1.075  -7.743  -1.013  0.00  0.00    +0.057 N 
ATOM     26  O   UNL     1      -1.825  -8.155  -1.867  0.00  0.00    -0.126 OA
ATOM     27  O   UNL     1       0.064  -7.456  -1.297  0.00  0.00    -0.126 OA
ENDBRANCH  24  25
ENDBRANCH  11  19
BRANCH   1  28
ATOM     28  S   UNL     1      -3.427  -0.379  -0.088  0.00  0.00    -0.088 S 
BRANCH  28  30
ATOM     29  C   UNL     1      -5.352   0.544  -1.798  0.00  0.00    +0.016 C 
ATOM     30  C   UNL     1      -4.481  -0.685  -1.532  0.00  0.00    +0.074 C 
ENDBRANCH  28  30
ENDBRANCH   1  28
TORSDOF 4
