REMARK  Name = ZINC38090162
REMARK  7 active torsions:
REMARK  status: ('A' for Active; 'I' for Inactive)
REMARK    1  A    between atoms: C_1  and  C_2
REMARK    2  A    between atoms: C_2  and  C_4
REMARK    3  A    between atoms: C_2  and  N_11
REMARK    4  A    between atoms: C_7  and  O_10
REMARK    5  A    between atoms: N_11  and  C_12
REMARK    6  A    between atoms: C_13  and  C_15
REMARK    7  A    between atoms: N_19  and  C_20
REMARK                            x       y       z     vdW  Elec       q    Type
REMARK                         _______ _______ _______ _____ _____    ______ ____
ROOT
ATOM      1  N   UNL     1       0.735  -0.555   1.016  0.00  0.00    -0.293 N 
ATOM      2  C   UNL     1       2.115  -0.165   1.312  0.00  0.00    +0.133 C 
ATOM      3  C   UNL     1       0.080  -1.394   1.842  0.00  0.00    +0.263 C 
ATOM      4  O   UNL     1      -1.097  -1.639   1.653  0.00  0.00    -0.268 OA
ENDROOT
BRANCH   3   5
ATOM      5  C   UNL     1       0.785  -2.012   2.970  0.00  0.00    +0.105 A 
ATOM      6  C   UNL     1       2.077  -1.742   3.370  0.00  0.00    +0.047 A 
ATOM      7  C   UNL     1       2.342  -2.552   4.479  0.00  0.00    +0.036 A 
ATOM      8  C   UNL     1       1.231  -3.286   4.732  0.00  0.00    +0.101 A 
ATOM      9  N   UNL     1       0.277  -2.963   3.825  0.00  0.00    -0.345 N 
ATOM     10  C   UNL     1      -1.071  -3.534   3.763  0.00  0.00    +0.149 C 
ATOM     11 BR   UNL     1       3.962  -2.611   5.453  0.00  0.00    -0.049 Br
ENDBRANCH   3   5
BRANCH   1  13
ATOM     12  C   UNL     1       0.965   1.005  -0.854  0.00  0.00    +0.033 C 
ATOM     13  C   UNL     1       0.066  -0.032  -0.178  0.00  0.00    +0.103 C 
BRANCH  13  14
ATOM     14  C   UNL     1      -0.205  -1.163  -1.137  0.00  0.00    -0.027 A 
ATOM     15  C   UNL     1       0.782  -2.093  -1.404  0.00  0.00    +0.009 A 
ATOM     16  C   UNL     1       0.536  -3.130  -2.283  0.00  0.00    +0.046 A 
ATOM     17  C   UNL     1      -0.703  -3.238  -2.898  0.00  0.00    +0.117 A 
ATOM     18  C   UNL     1      -1.692  -2.303  -2.628  0.00  0.00    +0.046 A 
ATOM     19  C   UNL     1      -1.443  -1.271  -1.744  0.00  0.00    +0.009 A 
BRANCH  17  20
ATOM     20  O   UNL     1      -0.947  -4.257  -3.763  0.00  0.00    -0.507 OA
ATOM     21  H   UNL     1      -1.306  -5.051  -3.345  0.00  0.00    +0.292 HD
ENDBRANCH  17  20
ENDBRANCH  13  14
ENDBRANCH   1  13
TORSDOF 4
