REMARK  Name = ZINC38995151
REMARK  6 active torsions:
REMARK  status: ('A' for Active; 'I' for Inactive)
REMARK    1  A    between atoms: C_1  and  C_2
REMARK    2  A    between atoms: C_6  and  C_9
REMARK    3  A    between atoms: C_7  and  O_8
REMARK    4  A    between atoms: N_10  and  N_11
REMARK    5  A    between atoms: C_12  and  C_14
REMARK    6  A    between atoms: C_17  and  C_20
REMARK                            x       y       z     vdW  Elec       q    Type
REMARK                         _______ _______ _______ _____ _____    ______ ____
ROOT
ATOM      1  C   UNL     1       0.053  -2.856   2.452  0.00  0.00    +0.142 C 
ATOM      2  N   UNL     1       0.050  -2.221   3.584  0.00  0.00    -0.188 NA
ENDROOT
BRANCH   1   8
ATOM      3  C   UNL     1      -0.018   1.503   0.010  0.00  0.00    +0.047 C 
ATOM      4  C   UNL     1       0.002  -0.004   0.002  0.00  0.00    -0.007 A 
ATOM      5  C   UNL     1       0.006  -0.688  -1.200  0.00  0.00    +0.021 A 
ATOM      6  C   UNL     1       0.025  -2.072  -1.218  0.00  0.00    +0.014 A 
ATOM      7  C   UNL     1       0.040  -2.783  -0.035  0.00  0.00    +0.027 A 
ATOM      8  C   UNL     1       0.037  -2.103   1.185  0.00  0.00    +0.037 A 
ATOM      9  C   UNL     1       0.023  -0.702   1.198  0.00  0.00    +0.128 A 
ATOM     10  I   UNL     1       0.028  -3.092  -3.048  0.00  0.00    -0.044 I 
BRANCH   9  11
ATOM     11  O   UNL     1       0.025  -0.031   2.379  0.00  0.00    -0.506 OA
ATOM     12  H   UNL     1      -0.858   0.151   2.729  0.00  0.00    +0.292 HD
ENDBRANCH   9  11
ENDBRANCH   1   8
BRANCH   2  13
ATOM     13  N   UNL     1       0.066  -2.937   4.789  0.00  0.00    -0.205 N 
ATOM     14  C   UNL     1       0.062  -2.277   5.964  0.00  0.00    +0.262 C 
ATOM     15  O   UNL     1       0.046  -1.064   5.979  0.00  0.00    -0.271 OA
ATOM     16  H   UNL     1       0.078  -3.906   4.777  0.00  0.00    +0.177 HD
BRANCH  14  17
ATOM     17  C   UNL     1       0.079  -3.047   7.260  0.00  0.00    +0.240 C 
ATOM     18  C   UNL     1       1.494  -3.463   7.619  0.00  0.00    +0.035 C 
ATOM     19  C   UNL     1       1.724  -2.850   8.782  0.00  0.00    +0.059 C 
ATOM     20  N   UNL     1       0.648  -2.129   9.166  0.00  0.00    -0.159 NA
ATOM     21  N   UNL     1      -0.311  -2.180   8.385  0.00  0.00    -0.170 NA
ATOM     22  C   UNL     1       3.010  -2.950   9.562  0.00  0.00    +0.067 C 
ENDBRANCH  14  17
ENDBRANCH   2  13
TORSDOF 4
