REMARK  Name = ZINC07990958
REMARK  10 active torsions:
REMARK  status: ('A' for Active; 'I' for Inactive)
REMARK    1  A    between atoms: C_1  and  C_2
REMARK    2  A    between atoms: C_2  and  C_3
REMARK    3  A    between atoms: C_3  and  S_4
REMARK    4  A    between atoms: S_4  and  C_5
REMARK    5  A    between atoms: C_14  and  C_30
REMARK    6  A    between atoms: C_15  and  C_25
REMARK    7  A    between atoms: C_16  and  C_18
REMARK    8  A    between atoms: C_25  and  O_27
REMARK    9  A    between atoms: O_27  and  C_28
REMARK   10  A    between atoms: C_28  and  C_29
REMARK                            x       y       z     vdW  Elec       q    Type
REMARK                         _______ _______ _______ _____ _____    ______ ____
ROOT
ATOM      1  C   UNL     1      -2.982   4.381  -7.045  0.00  0.00    +0.171 A 
ATOM      2  N   UNL     1      -3.657   4.740  -5.918  0.00  0.00    -0.302 N 
ATOM      3  H   UNL     1      -4.342   5.468  -5.956  0.00  0.00    +0.171 HD
ATOM      4  C   UNL     1      -3.403   4.115  -4.748  0.00  0.00    +0.258 A 
ATOM      5  O   UNL     1      -4.004   4.428  -3.733  0.00  0.00    -0.267 OA
ATOM      6  C   UNL     1      -2.438   3.102  -4.722  0.00  0.00    +0.069 A 
ATOM      7  C   UNL     1      -1.777   2.778  -5.894  0.00  0.00    +0.135 A 
ATOM      8  N   UNL     1      -2.072   3.429  -7.025  0.00  0.00    -0.208 NA
ATOM      9  N   UNL     1      -0.815   1.785  -5.895  0.00  0.00    -0.302 N 
ATOM     10  C   UNL     1      -0.255   1.371  -4.720  0.00  0.00    +0.017 C 
ATOM     11  C   UNL     1      -0.837   1.634  -3.538  0.00  0.00    +0.065 C 
ATOM     12  C   UNL     1      -2.136   2.380  -3.439  0.00  0.00    +0.096 C 
ATOM     13  C   UNL     1       1.042   0.603  -4.749  0.00  0.00    +0.061 C 
ATOM     14  H   UNL     1      -0.537   1.381  -6.732  0.00  0.00    +0.153 HD
ENDROOT
BRANCH  12  15
ATOM     15  C   UNL     1      -3.245   1.404  -3.141  0.00  0.00    -0.035 A 
ATOM     16  C   UNL     1      -3.517   0.376  -4.025  0.00  0.00    +0.006 A 
ATOM     17  C   UNL     1      -4.530  -0.522  -3.750  0.00  0.00    +0.020 A 
ATOM     18  C   UNL     1      -5.280  -0.387  -2.595  0.00  0.00    +0.041 A 
ATOM     19  C   UNL     1      -5.011   0.645  -1.714  0.00  0.00    +0.020 A 
ATOM     20  C   UNL     1      -3.994   1.540  -1.988  0.00  0.00    +0.006 A 
ATOM     21 CL   UNL     1      -6.558  -1.510  -2.253  0.00  0.00    -0.084 Cl
ENDBRANCH  12  15
BRANCH  11  22
ATOM     22  C   UNL     1      -0.209   1.191  -2.352  0.00  0.00    +0.338 C 
ATOM     23  O   UNL     1       0.783   0.489  -2.414  0.00  0.00    -0.245 OA
BRANCH  22  24
ATOM     24  O   UNL     1      -0.710   1.546  -1.150  0.00  0.00    -0.462 OA
BRANCH  24  25
ATOM     25  C   UNL     1      -0.025   1.062   0.007  0.00  0.00    +0.229 C 
ATOM     26  C   UNL     1      -0.734   1.565   1.266  0.00  0.00    +0.048 C 
ENDBRANCH  24  25
ENDBRANCH  22  24
ENDBRANCH  11  22
BRANCH   1  27
ATOM     27  S   UNL     1      -3.334   5.208  -8.561  0.00  0.00    -0.088 S 
BRANCH  27  28
ATOM     28  C   UNL     1      -2.184   4.347  -9.662  0.00  0.00    +0.077 C 
BRANCH  28  30
ATOM     29  C   UNL     1      -1.341   4.185 -12.009  0.00  0.00    +0.004 C 
ATOM     30  C   UNL     1      -2.313   4.913 -11.078  0.00  0.00    +0.008 C 
ENDBRANCH  28  30
ENDBRANCH  27  28
ENDBRANCH   1  27
TORSDOF 7
