REMARK  Name = ZINC10128064
REMARK  5 active torsions:
REMARK  status: ('A' for Active; 'I' for Inactive)
REMARK    1  A    between atoms: C_1  and  C_2
REMARK    2  A    between atoms: C_2  and  C_37
REMARK    3  A    between atoms: C_6  and  C_19
REMARK    4  A    between atoms: C_22  and  C_24
REMARK    5  A    between atoms: C_28  and  C_30
REMARK                            x       y       z     vdW  Elec       q    Type
REMARK                         _______ _______ _______ _____ _____    ______ ____
ROOT
ATOM      1  C   UNL     1      -0.055   1.004   2.509  0.00  0.00    +0.011 C 
ATOM      2  C   UNL     1      -0.734   1.582   1.266  0.00  0.00    -0.023 C 
ATOM      3  C   UNL     1      -2.190   1.111   1.205  0.00  0.00    +0.058 C 
ATOM      4  C   UNL     1      -2.843   1.641  -0.048  0.00  0.00    +0.017 C 
ATOM      5  C   UNL     1      -2.126   1.843  -1.173  0.00  0.00    +0.027 C 
ATOM      6  C   UNL     1      -2.785   2.347  -2.432  0.00  0.00    +0.128 C 
ATOM      7  C   UNL     1      -4.115   2.975  -2.135  0.00  0.00    +0.070 A 
ATOM      8  C   UNL     1      -4.756   2.731  -0.958  0.00  0.00    +0.113 A 
ATOM      9  N   UNL     1      -5.978   3.313  -0.718  0.00  0.00    -0.295 N 
ATOM     10  H   UNL     1      -6.453   3.135   0.143  0.00  0.00    +0.172 HD
ATOM     11  C   UNL     1      -6.538   4.121  -1.637  0.00  0.00    +0.328 A 
ATOM     12  O   UNL     1      -7.620   4.628  -1.410  0.00  0.00    -0.247 OA
ATOM     13  N   UNL     1      -5.918   4.376  -2.804  0.00  0.00    -0.275 N 
ATOM     14  H   UNL     1      -6.351   4.980  -3.473  0.00  0.00    +0.173 HD
ATOM     15  C   UNL     1      -4.720   3.825  -3.079  0.00  0.00    +0.260 A 
ATOM     16  O   UNL     1      -4.164   4.061  -4.138  0.00  0.00    -0.267 OA
ATOM     17  N   UNL     1      -4.185   1.909  -0.019  0.00  0.00    -0.303 N 
ATOM     18  C   UNL     1      -0.744   1.586  -1.208  0.00  0.00    +0.162 C 
ATOM     19  O   UNL     1      -0.128   1.772  -2.239  0.00  0.00    -0.292 OA
ATOM     20  C   UNL     1      -0.013   1.086   0.008  0.00  0.00    +0.086 C 
ATOM     21  C   UNL     1      -0.689   3.110   1.315  0.00  0.00    +0.011 C 
ATOM     22  H   UNL     1      -4.739   1.514   0.672  0.00  0.00    +0.153 HD
ENDROOT
BRANCH   6  23
ATOM     23  C   UNL     1      -2.985   1.194  -3.381  0.00  0.00    +0.118 A 
ATOM     24  C   UNL     1      -2.468   1.099  -4.622  0.00  0.00    +0.046 A 
ATOM     25  C   UNL     1      -2.898  -0.133  -5.155  0.00  0.00    +0.050 A 
ATOM     26  C   UNL     1      -3.667  -0.725  -4.203  0.00  0.00    +0.135 A 
ATOM     27  O   UNL     1      -3.711   0.092  -3.132  0.00  0.00    -0.459 OA
BRANCH  26  28
ATOM     28  C   UNL     1      -4.339  -2.036  -4.322  0.00  0.00    +0.018 A 
ATOM     29  C   UNL     1      -4.215  -2.783  -5.495  0.00  0.00    +0.011 A 
ATOM     30  C   UNL     1      -4.840  -4.008  -5.597  0.00  0.00    +0.001 A 
ATOM     31  C   UNL     1      -5.597  -4.493  -4.544  0.00  0.00    +0.012 A 
ATOM     32  C   UNL     1      -5.727  -3.755  -3.381  0.00  0.00    +0.055 A 
ATOM     33  C   UNL     1      -5.103  -2.530  -3.264  0.00  0.00    +0.024 A 
BRANCH  32  34
ATOM     34  C   UNL     1      -6.553  -4.290  -2.240  0.00  0.00    +0.417 C 
ATOM     35  F   UNL     1      -7.878  -3.864  -2.383  0.00  0.00    -0.166 F 
ATOM     36  F   UNL     1      -6.510  -5.689  -2.249  0.00  0.00    -0.166 F 
ATOM     37  F   UNL     1      -6.039  -3.816  -1.029  0.00  0.00    -0.166 F 
ENDBRANCH  32  34
ENDBRANCH  26  28
ENDBRANCH   6  23
TORSDOF 3
