REMARK  Name = ZINC40569449
REMARK  9 active torsions:
REMARK  status: ('A' for Active; 'I' for Inactive)
REMARK    1  A    between atoms: C_1  and  C_2
REMARK    2  A    between atoms: C_2  and  C_3
REMARK    3  A    between atoms: C_3  and  C_4
REMARK    4  A    between atoms: N_10  and  C_11
REMARK    5  A    between atoms: C_11  and  C_12
REMARK    6  A    between atoms: C_13  and  C_21
REMARK    7  A    between atoms: C_15  and  C_19
REMARK    8  A    between atoms: C_16  and  N_18
REMARK    9  A    between atoms: C_25  and  N_27
REMARK                            x       y       z     vdW  Elec       q    Type
REMARK                         _______ _______ _______ _____ _____    ______ ____
ROOT
ATOM      1  C   UNL     1      -1.347  -2.023   0.137  0.00  0.00    +0.025 A 
ATOM      2  C   UNL     1      -1.509  -2.591   1.351  0.00  0.00    +0.068 A 
ATOM      3  C   UNL     1      -1.595  -3.994   1.461  0.00  0.00    +0.141 A 
ATOM      4  C   UNL     1      -1.511  -4.761   0.318  0.00  0.00    +0.072 A 
ATOM      5  C   UNL     1      -1.343  -4.127  -0.920  0.00  0.00    +0.259 A 
ATOM      6  O   UNL     1      -1.268  -4.793  -1.940  0.00  0.00    -0.267 OA
ATOM      7  N   UNL     1      -1.271  -2.785  -0.986  0.00  0.00    -0.312 N 
ATOM      8  C   UNL     1      -1.596  -6.261   0.391  0.00  0.00    +0.103 C 
ATOM      9  C   UNL     1      -2.163  -6.684   1.718  0.00  0.00    +0.098 C 
ATOM     10  C   UNL     1      -2.210  -5.828   2.766  0.00  0.00    +0.199 C 
ATOM     11  O   UNL     1      -1.757  -4.565   2.674  0.00  0.00    -0.441 OA
ENDROOT
BRANCH   8  12
ATOM     12  C   UNL     1      -0.218  -6.848   0.228  0.00  0.00    -0.032 A 
ATOM     13  C   UNL     1       0.780  -6.529   1.131  0.00  0.00    +0.005 A 
ATOM     14  C   UNL     1       2.044  -7.068   0.982  0.00  0.00    +0.003 A 
ATOM     15  C   UNL     1       2.311  -7.926  -0.069  0.00  0.00    +0.033 A 
ATOM     16  C   UNL     1       1.313  -8.245  -0.971  0.00  0.00    +0.126 A 
ATOM     17  C   UNL     1       0.047  -7.710  -0.819  0.00  0.00    +0.037 A 
BRANCH  16  18
ATOM     18  N   UNL     1       1.599  -9.163  -2.096  0.00  0.00    +0.056 N 
ATOM     19  O   UNL     1       2.705  -9.633  -2.227  0.00  0.00    -0.126 OA
ATOM     20  O   UNL     1       0.726  -9.442  -2.885  0.00  0.00    -0.126 OA
ENDBRANCH  16  18
ENDBRANCH   8  12
BRANCH  10  21
ATOM     21  N   UNL     1      -2.736  -6.262   3.957  0.00  0.00    -0.328 N 
ATOM     22  H   UNL     1      -3.067  -7.170   4.039  0.00  0.00    +0.145 HD
ATOM     23  H   UNL     1      -2.777  -5.661   4.717  0.00  0.00    +0.145 HD
ENDBRANCH  10  21
BRANCH   7  24
ATOM     24  C   UNL     1      -1.101  -2.135  -2.288  0.00  0.00    +0.122 C 
ATOM     25  C   UNL     1       0.391  -2.002  -2.601  0.00  0.00    +0.027 C 
ENDBRANCH   7  24
BRANCH   9  26
ATOM     26  C   UNL     1      -2.661  -8.017   1.876  0.00  0.00    +0.101 C 
ATOM     27  N   UNL     1      -3.057  -9.074   2.002  0.00  0.00    -0.191 NA
ENDBRANCH   9  26
BRANCH   1  28
ATOM     28  C   UNL     1      -1.255  -0.523   0.024  0.00  0.00    +0.053 C 
BRANCH  28  30
ATOM     29  C   UNL     1      -2.573   1.585  -0.221  0.00  0.00    +0.004 C 
ATOM     30  C   UNL     1      -2.651   0.057  -0.210  0.00  0.00    +0.003 C 
ENDBRANCH  28  30
ENDBRANCH   1  28
TORSDOF 7
