REMARK  Name = ZINC43193639
REMARK  5 active torsions:
REMARK  status: ('A' for Active; 'I' for Inactive)
REMARK    1  A    between atoms: C_3  and  O_12
REMARK    2  A    between atoms: O_12  and  C_13
REMARK    3  A    between atoms: C_15  and  O_25
REMARK    4  A    between atoms: C_17  and  O_24
REMARK    5  A    between atoms: C_19  and  O_23
REMARK                            x       y       z     vdW  Elec       q    Type
REMARK                         _______ _______ _______ _____ _____    ______ ____
ROOT
ATOM      1  O   UNL     1       3.537   2.141  -0.022  0.00  0.00    -0.461 OA
ENDROOT
BRANCH   1   4
ATOM      2  C   UNL     1      -0.017   1.401   0.010  0.00  0.00    +0.012 A 
ATOM      3  C   UNL     1       1.155   2.092   0.002  0.00  0.00    +0.046 A 
ATOM      4  C   UNL     1       2.383   1.424  -0.013  0.00  0.00    +0.125 A 
ATOM      5  C   UNL     1       2.438   0.059  -0.021  0.00  0.00    +0.054 A 
ATOM      6  C   UNL     1       1.246  -0.684  -0.013  0.00  0.00    -0.014 A 
ATOM      7  C   UNL     1       0.002  -0.004   0.002  0.00  0.00    -0.017 A 
ATOM      8  C   UNL     1      -1.190  -0.749   0.009  0.00  0.00    +0.023 A 
ATOM      9  C   UNL     1      -1.134  -2.109   0.001  0.00  0.00    +0.018 A 
ATOM     10  C   UNL     1       0.090  -2.778  -0.015  0.00  0.00    +0.016 A 
ATOM     11  C   UNL     1       1.263  -2.090  -0.022  0.00  0.00    +0.010 A 
ATOM     12 BR   UNL     1      -2.741  -3.107   0.011  0.00  0.00    -0.050 Br
ENDBRANCH   1   4
BRANCH   1  13
ATOM     13  C   UNL     1       3.415   3.565  -0.013  0.00  0.00    +0.339 C 
ATOM     14  C   UNL     1       4.786   4.196  -0.274  0.00  0.00    +0.214 C 
ATOM     15  C   UNL     1       4.659   5.721  -0.204  0.00  0.00    +0.180 C 
ATOM     16  C   UNL     1       4.089   6.112   1.163  0.00  0.00    +0.171 C 
ATOM     17  C   UNL     1       2.746   5.407   1.369  0.00  0.00    +0.198 C 
ATOM     18  O   UNL     1       2.929   3.994   1.260  0.00  0.00    -0.337 OA
BRANCH  16  19
ATOM     19  O   UNL     1       5.000   5.716   2.191  0.00  0.00    -0.387 OA
ATOM     20  H   UNL     1       4.702   5.934   3.085  0.00  0.00    +0.210 HD
ENDBRANCH  16  19
BRANCH  15  21
ATOM     21  O   UNL     1       5.947   6.316  -0.375  0.00  0.00    -0.386 OA
ATOM     22  H   UNL     1       5.941   7.282  -0.342  0.00  0.00    +0.210 HD
ENDBRANCH  15  21
BRANCH  14  23
ATOM     23  O   UNL     1       5.248   3.813  -1.571  0.00  0.00    -0.383 OA
ATOM     24  H   UNL     1       5.348   2.858  -1.687  0.00  0.00    +0.210 HD
ENDBRANCH  14  23
ENDBRANCH   1  13
TORSDOF 5
