REMARK  Name = ZINC50422020
REMARK  7 active torsions:
REMARK  status: ('A' for Active; 'I' for Inactive)
REMARK    1  A    between atoms: C_1  and  C_2
REMARK    2  A    between atoms: C_2  and  C_4
REMARK    3  A    between atoms: C_2  and  N_10
REMARK    4  A    between atoms: N_8  and  C_9
REMARK    5  A    between atoms: C_11  and  C_13
REMARK    6  A    between atoms: C_13  and  C_18
REMARK    7  A    between atoms: N_19  and  O_20
REMARK                            x       y       z     vdW  Elec       q    Type
REMARK                         _______ _______ _______ _____ _____    ______ ____
ROOT
ATOM      1  N   UNL     1      -0.581   0.607  -2.352  0.00  0.00    -0.305 N 
ATOM      2  C   UNL     1       0.004  -0.608  -2.361  0.00  0.00    +0.227 C 
ATOM      3  O   UNL     1       0.041  -1.270  -1.345  0.00  0.00    -0.275 OA
ATOM      4  H   UNL     1      -0.546   1.167  -3.143  0.00  0.00    +0.149 HD
ENDROOT
BRANCH   2   5
ATOM      5  C   UNL     1       0.613  -1.142  -3.631  0.00  0.00    +0.105 C 
ATOM      6  C   UNL     1       1.040  -2.611  -3.435  0.00  0.00    +0.024 C 
ATOM      7  C   UNL     1      -0.154  -3.430  -3.983  0.00  0.00    +0.001 C 
ATOM      8  C   UNL     1      -0.604  -2.600  -5.211  0.00  0.00    +0.001 C 
ATOM      9  C   UNL     1      -0.432  -1.135  -4.760  0.00  0.00    +0.024 C 
BRANCH   5  10
ATOM     10  C   UNL     1       1.804  -0.305  -4.024  0.00  0.00    +0.147 C 
ATOM     11  N   UNL     1       1.781   0.375  -5.122  0.00  0.00    -0.076 NA
ATOM     12  N   UNL     1       2.916  -0.267  -3.213  0.00  0.00    -0.343 N 
ATOM     13  H   UNL     1       2.906  -0.718  -2.355  0.00  0.00    +0.144 HD
ATOM     14  H   UNL     1       3.709   0.212  -3.500  0.00  0.00    +0.144 HD
BRANCH  11  15
ATOM     15  O   UNL     1       2.899   1.161  -5.491  0.00  0.00    -0.408 OA
ATOM     16  H   UNL     1       2.789   1.634  -6.327  0.00  0.00    +0.328 HD
ENDBRANCH  11  15
ENDBRANCH   5  10
ENDBRANCH   2   5
BRANCH   1  18
ATOM     17  C   UNL     1      -2.706   0.549  -1.143  0.00  0.00    +0.036 C 
ATOM     18  C   UNL     1      -1.270   1.079  -1.149  0.00  0.00    +0.138 C 
BRANCH  18  19
ATOM     19  C   UNL     1      -1.291   2.586  -1.142  0.00  0.00    +0.153 A 
ATOM     20  N   UNL     1      -1.586   3.361  -2.150  0.00  0.00    -0.133 NA
ATOM     21  N   UNL     1      -1.504   4.592  -1.788  0.00  0.00    -0.138 NA
ATOM     22  C   UNL     1      -1.153   4.659  -0.533  0.00  0.00    +0.224 A 
ATOM     23  N   UNL     1      -1.013   3.388  -0.086  0.00  0.00    -0.319 N 
ATOM     24  C   UNL     1      -0.634   2.966   1.265  0.00  0.00    +0.151 C 
ENDBRANCH  18  19
ENDBRANCH   1  18
TORSDOF 5
