REMARK  Name = ZINC30868242
REMARK  11 active torsions:
REMARK  status: ('A' for Active; 'I' for Inactive)
REMARK    1  A    between atoms: C_1  and  C_2
REMARK    2  A    between atoms: C_2  and  O_3
REMARK    3  A    between atoms: O_3  and  C_4
REMARK    4  A    between atoms: C_4  and  C_6
REMARK    5  A    between atoms: C_9  and  C_26
REMARK    6  A    between atoms: C_10  and  N_12
REMARK    7  A    between atoms: C_13  and  C_15
REMARK    8  A    between atoms: C_15  and  C_17
REMARK    9  A    between atoms: C_15  and  O_18
REMARK   10  A    between atoms: O_18  and  C_19
REMARK   11  A    between atoms: C_24  and  C_25
REMARK                            x       y       z     vdW  Elec       q    Type
REMARK                         _______ _______ _______ _____ _____    ______ ____
ROOT
ATOM      1  N   UNL     1      -0.033  -0.001  -2.409  0.00  0.00    -0.282 N 
ATOM      2  C   UNL     1       0.055  -0.653  -3.584  0.00  0.00    +0.258 C 
ATOM      3  O   UNL     1       0.054  -1.866  -3.606  0.00  0.00    -0.271 OA
ATOM      4  H   UNL     1      -0.128   1.095  -2.394  0.00  0.00    +0.155 HD
ENDROOT
BRANCH   1   9
ATOM      5  C   UNL     1       0.626  -2.673   0.044  0.00  0.00    +0.061 A 
ATOM      6  C   UNL     1       0.036  -2.126   1.186  0.00  0.00    +0.015 A 
ATOM      7  C   UNL     1      -0.564  -0.885   1.125  0.00  0.00    +0.006 A 
ATOM      8  C   UNL     1      -0.584  -0.179  -0.064  0.00  0.00    -0.029 A 
ATOM      9  C   UNL     1      -0.005  -0.717  -1.207  0.00  0.00    +0.037 A 
ATOM     10  C   UNL     1       0.606  -1.960  -1.155  0.00  0.00    +0.038 A 
ATOM     11  C   UNL     1      -1.241   1.176  -0.121  0.00  0.00    +0.045 C 
BRANCH   5  12
ATOM     12  C   UNL     1       1.269  -4.002   0.106  0.00  0.00    +0.339 C 
ATOM     13  O   UNL     1       1.782  -4.475  -0.888  0.00  0.00    -0.245 OA
BRANCH  12  14
ATOM     14  O   UNL     1       1.288  -4.688   1.265  0.00  0.00    -0.461 OA
BRANCH  14  16
ATOM     15  C   UNL     1       1.858  -6.610   2.648  0.00  0.00    +0.048 C 
ATOM     16  C   UNL     1       1.937  -5.986   1.252  0.00  0.00    +0.229 C 
ENDBRANCH  14  16
ENDBRANCH  12  14
ENDBRANCH   5  12
ENDBRANCH   1   9
BRANCH   2  17
ATOM     17  C   UNL     1       0.155   0.123  -4.872  0.00  0.00    +0.256 C 
ATOM     18  C   UNL     1      -1.137   0.912  -5.094  0.00  0.00    +0.062 C 
BRANCH  17  19
ATOM     19  O   UNL     1       0.354  -0.782  -5.960  0.00  0.00    -0.480 OA
BRANCH  19  20
ATOM     20  C   UNL     1       1.139  -0.353  -6.984  0.00  0.00    +0.124 A 
ATOM     21  C   UNL     1       1.611   0.951  -6.998  0.00  0.00    +0.046 A 
ATOM     22  C   UNL     1       2.409   1.384  -8.039  0.00  0.00    +0.004 A 
ATOM     23  C   UNL     1       2.736   0.518  -9.067  0.00  0.00    +0.000 A 
ATOM     24  C   UNL     1       2.267  -0.782  -9.055  0.00  0.00    +0.007 A 
ATOM     25  C   UNL     1       1.473  -1.221  -8.013  0.00  0.00    -0.009 A 
ATOM     26  C   UNL     1       0.966  -2.640  -7.997  0.00  0.00    +0.047 C 
ENDBRANCH  19  20
ENDBRANCH  17  19
ENDBRANCH   2  17
TORSDOF 7
