REMARK  Name = ZINC56860256
REMARK  7 active torsions:
REMARK  status: ('A' for Active; 'I' for Inactive)
REMARK    1  A    between atoms: C_1  and  C_2
REMARK    2  A    between atoms: C_7  and  O_8
REMARK    3  A    between atoms: O_8  and  C_9
REMARK    4  A    between atoms: C_9  and  C_10
REMARK    5  A    between atoms: C_10  and  C_12
REMARK    6  A    between atoms: C_10  and  N_13
REMARK    7  A    between atoms: C_22  and  C_24
REMARK                            x       y       z     vdW  Elec       q    Type
REMARK                         _______ _______ _______ _____ _____    ______ ____
ROOT
ATOM      1  N   UNL     1       2.147   0.004   5.106  0.00  0.00    -0.293 N 
ATOM      2  C   UNL     1       2.406   0.735   6.209  0.00  0.00    +0.303 C 
ATOM      3  O   UNL     1       1.680   0.647   7.180  0.00  0.00    -0.253 OA
ATOM      4  N   UNL     1       3.470   1.561   6.235  0.00  0.00    -0.283 N 
ATOM      5  C   UNL     1       4.261   1.801   5.020  0.00  0.00    +0.128 C 
ATOM      6  C   UNL     1       4.312   3.312   4.760  0.00  0.00    +0.127 C 
ATOM      7  N   UNL     1       4.703   3.990   6.004  0.00  0.00    -0.292 N 
ATOM      8  C   UNL     1       3.912   3.749   7.219  0.00  0.00    +0.127 C 
ATOM      9  C   UNL     1       3.857   2.243   7.478  0.00  0.00    +0.128 C 
ATOM     10  C   UNL     1       5.767   4.816   6.030  0.00  0.00    +0.282 C 
ATOM     11  O   UNL     1       6.162   5.266   7.089  0.00  0.00    -0.267 OA
ATOM     12  H   UNL     1       2.684   0.124   4.308  0.00  0.00    +0.151 HD
ENDROOT
BRANCH  10  13
ATOM     13  C   UNL     1       6.448   5.174   4.782  0.00  0.00    +0.189 A 
ATOM     14  C   UNL     1       7.608   5.887   4.676  0.00  0.00    +0.054 A 
ATOM     15  C   UNL     1       7.894   5.992   3.306  0.00  0.00    +0.042 A 
ATOM     16  C   UNL     1       6.909   5.347   2.644  0.00  0.00    +0.196 A 
ATOM     17  O   UNL     1       6.042   4.851   3.536  0.00  0.00    -0.458 OA
ENDBRANCH  10  13
BRANCH   1  18
ATOM     18  C   UNL     1       1.053  -0.971   5.114  0.00  0.00    +0.109 C 
ATOM     19  C   UNL     1      -0.262  -0.265   4.777  0.00  0.00    +0.031 C 
BRANCH  18  20
ATOM     20  C   UNL     1       1.331  -2.056   4.072  0.00  0.00    +0.251 C 
BRANCH  20  21
ATOM     21  O   UNL     1       1.313  -1.478   2.765  0.00  0.00    -0.490 OA
BRANCH  21  28
ATOM     22  C   UNL     1       1.282  -0.355   0.173  0.00  0.00    +0.047 C 
ATOM     23  C   UNL     1       1.541  -1.818   0.422  0.00  0.00    -0.009 A 
ATOM     24  C   UNL     1       1.782  -2.668  -0.641  0.00  0.00    +0.007 A 
ATOM     25  C   UNL     1       2.019  -4.011  -0.414  0.00  0.00    +0.000 A 
ATOM     26  C   UNL     1       2.017  -4.507   0.877  0.00  0.00    +0.004 A 
ATOM     27  C   UNL     1       1.777  -3.662   1.943  0.00  0.00    +0.046 A 
ATOM     28  C   UNL     1       1.544  -2.312   1.718  0.00  0.00    +0.123 A 
ENDBRANCH  21  28
ENDBRANCH  20  21
ENDBRANCH  18  20
ENDBRANCH   1  18
TORSDOF 5
