REMARK  Name = ZINC09858675
REMARK  5 active torsions:
REMARK  status: ('A' for Active; 'I' for Inactive)
REMARK    1  A    between atoms: C_1  and  S_2
REMARK    2  A    between atoms: S_2  and  C_3
REMARK    3  A    between atoms: C_9  and  C_13
REMARK    4  A    between atoms: C_13  and  S_14
REMARK    5  A    between atoms: S_14  and  C_15
REMARK                            x       y       z     vdW  Elec       q    Type
REMARK                         _______ _______ _______ _____ _____    ______ ____
ROOT
ATOM      1  C   UNL     1       0.002  -0.004   0.002  0.00  0.00    +0.158 A 
ATOM      2  N   UNL     1       1.284  -0.260  -0.012  0.00  0.00    -0.148 NA
ATOM      3  N   UNL     1       2.227   0.764  -0.015  0.00  0.00    -0.170 N 
ATOM      4  C   UNL     1       3.586   0.631  -0.028  0.00  0.00    +0.275 A 
ATOM      5  O   UNL     1       4.092  -0.481  -0.039  0.00  0.00    -0.266 OA
ATOM      6  C   UNL     1       4.396   1.767  -0.030  0.00  0.00    +0.096 A 
ATOM      7  C   UNL     1       3.818   3.019  -0.017  0.00  0.00    +0.060 A 
ATOM      8  N   UNL     1       2.490   3.111  -0.005  0.00  0.00    -0.225 NA
ATOM      9  C   UNL     1       1.738   2.040  -0.004  0.00  0.00    +0.200 A 
ATOM     10  S   UNL     1      -0.022   1.781   0.012  0.00  0.00    -0.022 S 
ENDROOT
BRANCH   1  12
ATOM     11  C   UNL     1      -0.454  -2.702  -0.007  0.00  0.00    +0.092 C 
ATOM     12  S   UNL     1      -1.353  -1.131   0.010  0.00  0.00    -0.100 S 
ENDBRANCH   1  12
BRANCH   7  13
ATOM     13  C   UNL     1       4.673   4.259  -0.018  0.00  0.00    +0.132 C 
BRANCH  13  14
ATOM     14  S   UNL     1       4.638   5.018  -1.665  0.00  0.00    -0.091 S 
BRANCH  14  15
ATOM     15  C   UNL     1       5.671   6.436  -1.504  0.00  0.00    +0.160 A 
ATOM     16  N   UNL     1       6.331   6.874  -0.450  0.00  0.00    -0.133 NA
ATOM     17  N   UNL     1       7.090   8.018  -0.543  0.00  0.00    -0.125 NA
ATOM     18  C   UNL     1       7.153   8.671  -1.687  0.00  0.00    +0.180 A 
ATOM     19  S   UNL     1       6.110   7.661  -2.728  0.00  0.00    -0.025 S 
ATOM     20  N   UNL     1       7.849   9.833  -2.000  0.00  0.00    -0.336 N 
ATOM     21  H   UNL     1       8.384  10.275  -1.322  0.00  0.00    +0.144 HD
ATOM     22  H   UNL     1       7.800  10.201  -2.896  0.00  0.00    +0.144 HD
ENDBRANCH  14  15
ENDBRANCH  13  14
ENDBRANCH   7  13
TORSDOF 4
