REMARK  Name = ZINC39781335
REMARK  6 active torsions:
REMARK  status: ('A' for Active; 'I' for Inactive)
REMARK    1  A    between atoms: C_1  and  C_2
REMARK    2  A    between atoms: C_5  and  C_32
REMARK    3  A    between atoms: C_10  and  C_12
REMARK    4  A    between atoms: C_17  and  N_18
REMARK    5  A    between atoms: N_18  and  S_19
REMARK    6  A    between atoms: S_19  and  C_22
REMARK                            x       y       z     vdW  Elec       q    Type
REMARK                         _______ _______ _______ _____ _____    ______ ____
ROOT
ATOM      1  N   UNL     1       4.016   2.145   4.155  0.00  0.00    -0.216 N 
ATOM      2  H   UNL     1       4.332   2.389   3.271  0.00  0.00    +0.174 HD
ENDROOT
BRANCH   1   8
ATOM      3  C   UNL     1       1.982   1.109   3.351  0.00  0.00    +0.059 A 
ATOM      4  C   UNL     1       0.643   0.768   3.560  0.00  0.00    +0.015 A 
ATOM      5  C   UNL     1       0.020   1.120   4.736  0.00  0.00    +0.001 A 
ATOM      6  C   UNL     1       0.714   1.813   5.716  0.00  0.00    +0.002 A 
ATOM      7  C   UNL     1       2.036   2.157   5.525  0.00  0.00    +0.025 A 
ATOM      8  C   UNL     1       2.684   1.805   4.348  0.00  0.00    +0.060 A 
BRANCH   3  16
ATOM      9  C   UNL     1       1.886   4.019   0.779  0.00  0.00    +0.009 C 
ATOM     10  C   UNL     1       0.960   3.052   0.039  0.00  0.00    +0.004 C 
ATOM     11  C   UNL     1       1.558   2.721  -1.331  0.00  0.00    +0.009 C 
ATOM     12  C   UNL     1       2.946   2.103  -1.148  0.00  0.00    +0.004 C 
ATOM     13  C   UNL     1       2.820   0.802  -0.348  0.00  0.00    +0.111 C 
ATOM     14  N   UNL     1       2.116   1.087   0.910  0.00  0.00    -0.297 N 
ATOM     15  C   UNL     1       0.812   1.762   0.853  0.00  0.00    +0.111 C 
ATOM     16  C   UNL     1       2.656   0.735   2.094  0.00  0.00    +0.248 C 
ATOM     17  O   UNL     1       3.698   0.109   2.125  0.00  0.00    -0.270 OA
ATOM     18  C   UNL     1       3.556   1.803  -2.519  0.00  0.00    +0.009 C 
ENDBRANCH   3  16
ENDBRANCH   1   8
BRANCH   1  19
ATOM     19  S   UNL     1       5.067   2.134   5.435  0.00  0.00    +0.072 S 
ATOM     20  O   UNL     1       6.356   2.410   4.905  0.00  0.00    -0.150 OA
ATOM     21  O   UNL     1       4.475   2.930   6.453  0.00  0.00    -0.150 OA
BRANCH  19  22
ATOM     22  C   UNL     1       5.119   0.485   6.053  0.00  0.00    +0.110 A 
ATOM     23  C   UNL     1       4.173   0.088   7.088  0.00  0.00    +0.031 A 
ATOM     24  C   UNL     1       4.159  -1.161   7.604  0.00  0.00    +0.027 A 
ATOM     25  C   UNL     1       5.115  -2.153   7.118  0.00  0.00    +0.056 A 
ATOM     26  N   UNL     1       5.365  -3.408   7.394  0.00  0.00    -0.268 N 
ATOM     27  C   UNL     1       6.405  -3.829   6.600  0.00  0.00    +0.308 C 
ATOM     28  O   UNL     1       6.882  -4.944   6.608  0.00  0.00    -0.252 OA
ATOM     29  N   UNL     1       6.824  -2.795   5.796  0.00  0.00    -0.267 N 
ATOM     30  C   UNL     1       6.087  -1.745   6.054  0.00  0.00    +0.058 A 
ATOM     31  C   UNL     1       6.030  -0.375   5.548  0.00  0.00    +0.054 A 
ATOM     32  H   UNL     1       7.544  -2.837   5.146  0.00  0.00    +0.156 HD
ATOM     33  H   UNL     1       4.895  -3.950   8.048  0.00  0.00    +0.156 HD
ENDBRANCH  19  22
ENDBRANCH   1  19
TORSDOF 4
