REMARK  Name = ZINC09271603
REMARK  12 active torsions:
REMARK  status: ('A' for Active; 'I' for Inactive)
REMARK    1  A    between atoms: C_1  and  C_2
REMARK    2  A    between atoms: C_5  and  C_7
REMARK    3  A    between atoms: C_10  and  C_11
REMARK    4  A    between atoms: C_10  and  O_23
REMARK    5  A    between atoms: N_14  and  C_17
REMARK    6  A    between atoms: C_15  and  C_16
REMARK    7  A    between atoms: N_28  and  C_29
REMARK    8  A    between atoms: C_29  and  C_30
REMARK    9  A    between atoms: C_30  and  C_31
REMARK   10  A    between atoms: C_31  and  N_61
REMARK   11  A    between atoms: C_32  and  N_61
REMARK   12  A    between atoms: C_33  and  N_61
REMARK                            x       y       z     vdW  Elec       q    Type
REMARK                         _______ _______ _______ _____ _____    ______ ____
ROOT
ATOM      1  C   UNL     1      -3.191  -4.771  -1.651  0.00  0.00    +0.180 C 
ATOM      2  C   UNL     1      -2.843  -6.229  -1.463  0.00  0.00    +0.074 C 
ATOM      3  C   UNL     1      -2.671  -7.177  -2.455  0.00  0.00    +0.136 C 
ATOM      4  C   UNL     1      -2.734  -6.429  -0.081  0.00  0.00    +0.249 C 
ATOM      5  O   UNL     1      -2.467  -7.483   0.470  0.00  0.00    -0.282 OA
ATOM      6  C   UNL     1      -2.999  -5.133   0.599  0.00  0.00    +0.288 C 
ATOM      7  O   UNL     1      -2.984  -4.961   1.801  0.00  0.00    -0.266 OA
ATOM      8  N   UNL     1      -3.259  -4.179  -0.311  0.00  0.00    -0.281 N 
ENDROOT
BRANCH   1  13
ATOM      9  C   UNL     1      -8.174  -4.708  -2.428  0.00  0.00    +0.086 C 
ATOM     10  C   UNL     1      -6.691  -4.613  -2.679  0.00  0.00    +0.102 A 
ATOM     11  C   UNL     1      -6.110  -4.321  -3.856  0.00  0.00    +0.045 A 
ATOM     12  C   UNL     1      -4.713  -4.338  -3.638  0.00  0.00    +0.047 A 
ATOM     13  C   UNL     1      -4.524  -4.640  -2.341  0.00  0.00    +0.130 A 
ATOM     14  O   UNL     1      -5.726  -4.812  -1.766  0.00  0.00    -0.463 OA
ENDBRANCH   1  13
BRANCH   3  15
ATOM     15  C   UNL     1      -2.474  -8.589  -2.097  0.00  0.00    +0.058 A 
ATOM     16  C   UNL     1      -3.321  -9.374  -1.279  0.00  0.00    +0.146 A 
ATOM     17  N   UNL     1      -2.810 -10.572  -1.202  0.00  0.00    -0.174 NA
ATOM     18  N   UNL     1      -1.626 -10.612  -1.946  0.00  0.00    -0.236 N 
ATOM     19  C   UNL     1      -1.424  -9.399  -2.492  0.00  0.00    +0.052 A 
ATOM     20  C   UNL     1      -0.267  -8.996  -3.370  0.00  0.00    +0.066 C 
BRANCH  18  21
ATOM     21  C   UNL     1      -0.792 -11.727  -2.099  0.00  0.00    +0.066 A 
ATOM     22  C   UNL     1      -0.289 -12.055  -3.351  0.00  0.00    +0.028 A 
ATOM     23  C   UNL     1       0.537 -13.152  -3.497  0.00  0.00    +0.002 A 
ATOM     24  C   UNL     1       0.855 -13.930  -2.399  0.00  0.00    +0.000 A 
ATOM     25  C   UNL     1       0.352 -13.610  -1.151  0.00  0.00    +0.002 A 
ATOM     26  C   UNL     1      -0.470 -12.511  -0.998  0.00  0.00    +0.028 A 
ENDBRANCH  18  21
ENDBRANCH   3  15
BRANCH   3  27
ATOM     27  O   UNL     1      -2.684  -6.805  -3.753  0.00  0.00    -0.506 OA
ATOM     28  H   UNL     1      -2.547  -7.609  -4.331  0.00  0.00    +0.292 HD
ENDBRANCH   3  27
BRANCH   8  29
ATOM     29  C   UNL     1      -3.566  -2.778  -0.013  0.00  0.00    +0.107 C 
BRANCH  29  30
ATOM     30  C   UNL     1      -2.268  -1.969   0.026  0.00  0.00    +0.000 C 
BRANCH  30  31
ATOM     31  C   UNL     1      -2.589  -0.505   0.337  0.00  0.00    -0.078 C 
BRANCH  31  34
ATOM     32  C   UNL     1      -1.622   1.712   0.434  0.00  0.00    -0.097 C 
ATOM     33  C   UNL     1      -0.495  -0.147   1.499  0.00  0.00    -0.097 C 
ATOM     34  N   UNL     1      -1.328   0.266   0.350  0.00  0.00    +0.376 N 
ATOM     35  H   UNL     1      -0.814   0.080  -0.519  0.00  0.00    -0.083 HD
ENDBRANCH  31  34
ENDBRANCH  30  31
ENDBRANCH  29  30
ENDBRANCH   8  29
TORSDOF 8
