REMARK  Name = ZINC39675040
REMARK  7 active torsions:
REMARK  status: ('A' for Active; 'I' for Inactive)
REMARK    1  A    between atoms: C_1  and  C_2
REMARK    2  A    between atoms: C_4  and  C_33
REMARK    3  A    between atoms: N_5  and  C_7
REMARK    4  A    between atoms: C_7  and  C_8
REMARK    5  A    between atoms: C_8  and  N_9
REMARK    6  A    between atoms: C_10  and  C_12
REMARK    7  A    between atoms: C_23  and  C_25
REMARK                            x       y       z     vdW  Elec       q    Type
REMARK                         _______ _______ _______ _____ _____    ______ ____
ROOT
ATOM      1  C   UNL     1       2.712  -7.211   3.778  0.00  0.00    +0.100 C 
ATOM      2  C   UNL     1       2.144  -6.658   5.104  0.00  0.00    +0.121 C 
ATOM      3  N   UNL     1       3.005  -7.249   6.156  0.00  0.00    -0.296 N 
ATOM      4  C   UNL     1       4.370  -7.210   5.579  0.00  0.00    +0.115 C 
ATOM      5  C   UNL     1       4.173  -7.571   4.094  0.00  0.00    -0.004 C 
ATOM      6  C   UNL     1       5.120  -6.752   3.222  0.00  0.00    -0.010 C 
ATOM      7  C   UNL     1       6.564  -7.169   3.512  0.00  0.00    -0.082 C 
ATOM      8  N   UNL     1       6.727  -8.601   3.234  0.00  0.00    +0.379 N 
ATOM      9  C   UNL     1       5.882  -9.387   4.141  0.00  0.00    -0.082 C 
ATOM     10  C   UNL     1       4.409  -9.063   3.878  0.00  0.00    -0.010 C 
ATOM     11  C   UNL     1       2.631  -7.717   7.363  0.00  0.00    +0.249 C 
ATOM     12  O   UNL     1       3.473  -8.089   8.158  0.00  0.00    -0.270 OA
ATOM     13  H   UNL     1       6.460  -8.790   2.280  0.00  0.00    -0.086 HD
ATOM     14  H   UNL     1       7.693  -8.861   3.367  0.00  0.00    -0.086 HD
ENDROOT
BRANCH  11  15
ATOM     15  C   UNL     1       1.200  -7.779   7.720  0.00  0.00    +0.073 A 
ATOM     16  C   UNL     1       0.320  -6.794   7.265  0.00  0.00    +0.036 A 
ATOM     17  C   UNL     1      -1.016  -6.858   7.602  0.00  0.00    +0.042 A 
ATOM     18  C   UNL     1      -1.488  -7.895   8.390  0.00  0.00    +0.023 A 
ATOM     19  C   UNL     1      -0.624  -8.873   8.845  0.00  0.00    +0.040 A 
ATOM     20  C   UNL     1       0.717  -8.826   8.511  0.00  0.00    +0.136 A 
ATOM     21  F   UNL     1       1.560  -9.785   8.952  0.00  0.00    -0.205 F 
ATOM     22 CL   UNL     1      -2.111  -5.634   7.037  0.00  0.00    -0.084 Cl
ENDBRANCH  11  15
BRANCH   1  24
ATOM     23  N   UNL     1       2.526  -6.522   1.410  0.00  0.00    -0.313 N 
ATOM     24  C   UNL     1       2.652  -6.159   2.702  0.00  0.00    +0.218 C 
ATOM     25  O   UNL     1       2.716  -4.984   2.998  0.00  0.00    -0.275 OA
ATOM     26  H   UNL     1       2.475  -7.461   1.173  0.00  0.00    +0.149 HD
BRANCH  23  27
ATOM     27  C   UNL     1       2.468  -5.498   0.363  0.00  0.00    +0.127 C 
BRANCH  27  28
ATOM     28  C   UNL     1       2.326  -6.173  -1.003  0.00  0.00    +0.162 C 
BRANCH  28  33
ATOM     29  C   UNL     1       0.519  -2.802  -4.253  0.00  0.00    +0.067 C 
ATOM     30  C   UNL     1       1.456  -3.680  -3.463  0.00  0.00    +0.060 A 
ATOM     31  C   UNL     1       2.848  -3.719  -3.592  0.00  0.00    +0.047 A 
ATOM     32  C   UNL     1       3.322  -4.630  -2.712  0.00  0.00    +0.036 A 
ATOM     33  N   UNL     1       2.267  -5.149  -2.049  0.00  0.00    -0.267 N 
ATOM     34  N   UNL     1       1.107  -4.533  -2.535  0.00  0.00    -0.176 NA
ATOM     35  C   UNL     1       4.769  -4.999  -2.507  0.00  0.00    +0.065 C 
ENDBRANCH  28  33
ENDBRANCH  27  28
ENDBRANCH  23  27
ENDBRANCH   1  24
TORSDOF 5
