REMARK  Name = ZINC65144213
REMARK  10 active torsions:
REMARK  status: ('A' for Active; 'I' for Inactive)
REMARK    1  A    between atoms: C_1  and  C_2
REMARK    2  A    between atoms: C_2  and  C_3
REMARK    3  A    between atoms: C_3  and  O_4
REMARK    4  A    between atoms: O_4  and  C_5
REMARK    5  A    between atoms: C_8  and  C_11
REMARK    6  A    between atoms: C_12  and  C_13
REMARK    7  A    between atoms: N_15  and  N_16
REMARK    8  A    between atoms: N_19  and  C_20
REMARK    9  A    between atoms: C_20  and  C_21
REMARK   10  A    between atoms: C_21  and  C_22
REMARK                            x       y       z     vdW  Elec       q    Type
REMARK                         _______ _______ _______ _____ _____    ______ ____
ROOT
ATOM      1  C   UNL     1       4.060  -6.479   6.686  0.00  0.00    +0.253 C 
ATOM      2  O   UNL     1       4.566  -5.814   7.571  0.00  0.00    -0.269 OA
ATOM      3  N   UNL     1       4.119  -7.825   6.737  0.00  0.00    -0.230 N 
ATOM      4  H   UNL     1       3.716  -8.355   6.031  0.00  0.00    +0.173 HD
ENDROOT
BRANCH   3   5
ATOM      5  N   UNL     1       4.762  -8.458   7.808  0.00  0.00    -0.218 N 
ATOM      6  C   UNL     1       4.820  -9.804   7.859  0.00  0.00    +0.316 C 
ATOM      7  O   UNL     1       5.378 -10.353   8.789  0.00  0.00    -0.251 OA
ATOM      8  N   UNL     1       4.260 -10.540   6.879  0.00  0.00    -0.298 N 
ATOM      9  H   UNL     1       5.165  -7.928   8.514  0.00  0.00    +0.174 HD
ATOM     10  H   UNL     1       3.815 -10.101   6.137  0.00  0.00    +0.150 HD
BRANCH   8  11
ATOM     11  C   UNL     1       4.324 -12.002   6.934  0.00  0.00    +0.112 C 
BRANCH  11  12
ATOM     12  C   UNL     1       3.618 -12.590   5.711  0.00  0.00    +0.074 C 
BRANCH  12  13
ATOM     13  C   UNL     1       3.683 -14.095   5.767  0.00  0.00    +0.043 A 
ATOM     14  C   UNL     1       2.517 -14.833   5.692  0.00  0.00    +0.023 A 
ATOM     15  C   UNL     1       2.588 -16.216   5.745  0.00  0.00    +0.003 A 
ATOM     16  C   UNL     1       3.836 -16.808   5.873  0.00  0.00    +0.020 A 
ATOM     17  C   UNL     1       4.958 -16.006   5.942  0.00  0.00    +0.111 A 
ATOM     18  N   UNL     1       4.853 -14.692   5.883  0.00  0.00    -0.260 NA
ENDBRANCH  12  13
ENDBRANCH  11  12
ENDBRANCH   8  11
ENDBRANCH   3   5
BRANCH   1  20
ATOM     19  C   UNL     1       3.330  -4.471   5.517  0.00  0.00    +0.013 C 
ATOM     20  C   UNL     1       3.389  -5.818   5.567  0.00  0.00    +0.069 C 
BRANCH  19  24
ATOM     21  C   UNL     1       1.384  -2.553   2.272  0.00  0.00    +0.121 A 
ATOM     22  C   UNL     1       1.961  -1.792   3.282  0.00  0.00    +0.046 A 
ATOM     23  C   UNL     1       2.594  -2.409   4.337  0.00  0.00    +0.011 A 
ATOM     24  C   UNL     1       2.656  -3.806   4.392  0.00  0.00    -0.025 A 
ATOM     25  C   UNL     1       2.074  -4.569   3.373  0.00  0.00    +0.011 A 
ATOM     26  C   UNL     1       1.439  -3.942   2.325  0.00  0.00    +0.046 A 
BRANCH  21  27
ATOM     27  O   UNL     1       0.761  -1.940   1.234  0.00  0.00    -0.492 OA
BRANCH  27  28
ATOM     28  C   UNL     1       0.742  -0.511   1.242  0.00  0.00    +0.229 C 
BRANCH  28  30
ATOM     29  C   UNL     1      -0.019   1.526   0.010  0.00  0.00    +0.007 C 
ATOM     30  C   UNL     1       0.002  -0.004   0.002  0.00  0.00    +0.038 C 
ENDBRANCH  28  30
ENDBRANCH  27  28
ENDBRANCH  21  27
ENDBRANCH  19  24
ENDBRANCH   1  20
TORSDOF 9
