REMARK  Name = ZINC40412258
REMARK  3 active torsions:
REMARK  status: ('A' for Active; 'I' for Inactive)
REMARK    1  A    between atoms: C_3  and  N_11
REMARK    2  A    between atoms: C_4  and  N_8
REMARK    3  A    between atoms: C_15  and  O_18
REMARK                            x       y       z     vdW  Elec       q    Type
REMARK                         _______ _______ _______ _____ _____    ______ ____
ROOT
ATOM      1  C   UNL     1      -0.017   1.379   0.010  0.00  0.00    +0.022 A 
ATOM      2  C   UNL     1       1.169   2.087   0.002  0.00  0.00    +0.027 A 
ATOM      3  C   UNL     1       2.381   1.410  -0.013  0.00  0.00    +0.060 A 
ATOM      4  C   UNL     1       2.397   0.021  -0.021  0.00  0.00    +0.148 A 
ATOM      5  C   UNL     1       1.208  -0.682  -0.013  0.00  0.00    +0.054 A 
ATOM      6  C   UNL     1       0.002  -0.004   0.002  0.00  0.00    +0.043 A 
ATOM      7 CL   UNL     1      -1.490  -0.891   0.012  0.00  0.00    -0.083 Cl
ENDROOT
BRANCH   3   8
ATOM      8  N   UNL     1       3.583   2.123  -0.021  0.00  0.00    -0.326 N 
ATOM      9  C   UNL     1       4.211   2.517  -1.290  0.00  0.00    +0.105 C 
ATOM     10  C   UNL     1       4.467   4.027  -1.265  0.00  0.00    +0.021 C 
ATOM     11  C   UNL     1       5.286   4.381  -0.021  0.00  0.00    +0.034 C 
ATOM     12  C   UNL     1       4.498   4.004   1.235  0.00  0.00    +0.132 C 
ATOM     13  C   UNL     1       4.238   2.499   1.239  0.00  0.00    +0.136 C 
BRANCH  12  14
ATOM     14  O   UNL     1       5.250   4.364   2.396  0.00  0.00    -0.390 OA
ATOM     15  H   UNL     1       5.450   5.308   2.458  0.00  0.00    +0.210 HD
ENDBRANCH  12  14
ENDBRANCH   3   8
BRANCH   4  16
ATOM     16  N   UNL     1       3.687  -0.706  -0.037  0.00  0.00    +0.058 N 
ATOM     17  O   UNL     1       3.700  -1.914  -0.044  0.00  0.00    -0.126 OA
ATOM     18  O   UNL     1       4.727  -0.090  -0.044  0.00  0.00    -0.126 OA
ENDBRANCH   4  16
TORSDOF 3
