REMARK  Name = ZINC20883723
REMARK  6 active torsions:
REMARK  status: ('A' for Active; 'I' for Inactive)
REMARK    1  A    between atoms: C_1  and  C_2
REMARK    2  A    between atoms: C_9  and  C_14
REMARK    3  A    between atoms: C_14  and  O_15
REMARK    4  A    between atoms: O_15  and  C_16
REMARK    5  A    between atoms: C_16  and  C_18
REMARK    6  A    between atoms: C_18  and  N_19
REMARK                            x       y       z     vdW  Elec       q    Type
REMARK                         _______ _______ _______ _____ _____    ______ ____
ROOT
ATOM      1  C   UNL     1      -0.742   1.585  -1.213  0.00  0.00    +0.325 C 
ATOM      2  O   UNL     1      -1.732   2.266  -1.089  0.00  0.00    -0.249 OA
ENDROOT
BRANCH   1   3
ATOM      3  O   UNL     1      -0.290   1.274  -2.438  0.00  0.00    -0.459 OA
BRANCH   3   4
ATOM      4  C   UNL     1      -1.042   1.789  -3.568  0.00  0.00    +0.268 C 
BRANCH   4  13
ATOM      5  C   UNL     1      -2.523   2.801  -9.979  0.00  0.00    +0.045 C 
ATOM      6  C   UNL     1      -1.965   2.418  -8.633  0.00  0.00    -0.029 A 
ATOM      7  C   UNL     1      -0.829   1.639  -8.562  0.00  0.00    +0.051 A 
ATOM      8  C   UNL     1      -0.309   1.282  -7.324  0.00  0.00    +0.140 A 
ATOM      9  C   UNL     1      -0.949   1.722  -6.152  0.00  0.00    +0.025 A 
ATOM     10  C   UNL     1      -2.099   2.512  -6.239  0.00  0.00    +0.032 A 
ATOM     11  C   UNL     1      -2.598   2.854  -7.477  0.00  0.00    +0.045 A 
ATOM     12 CL   UNL     1      -4.026   3.834  -7.592  0.00  0.00    -0.083 Cl
ATOM     13  C   UNL     1      -0.391   1.340  -4.851  0.00  0.00    +0.007 A 
ATOM     14  C   UNL     1       0.730   0.577  -4.834  0.00  0.00    +0.099 A 
ATOM     15  C   UNL     1       1.319   0.167  -6.050  0.00  0.00    +0.338 A 
ATOM     16  O   UNL     1       2.323  -0.521  -6.021  0.00  0.00    -0.245 OA
ATOM     17  O   UNL     1       0.802   0.520  -7.237  0.00  0.00    -0.422 OA
ENDBRANCH   4  13
ENDBRANCH   3   4
ENDBRANCH   1   3
BRANCH   1  18
ATOM     18  C   UNL     1      -0.013   1.086   0.008  0.00  0.00    +0.224 C 
BRANCH  18  19
ATOM     19  N   UNL     1      -0.698   1.558   1.213  0.00  0.00    -0.317 N 
ATOM     20  C   UNL     1      -0.211   1.225   2.458  0.00  0.00    +0.150 C 
ATOM     21  N   UNL     1       0.852   0.495   2.572  0.00  0.00    -0.113 NA
ATOM     22  S   UNL     1       1.113   0.318   4.215  0.00  0.00    +0.101 S 
ATOM     23  O   UNL     1       0.889  -1.046   4.545  0.00  0.00    -0.146 OA
ATOM     24  O   UNL     1       2.306   1.017   4.543  0.00  0.00    -0.146 OA
ATOM     25  C   UNL     1      -0.254   1.256   4.842  0.00  0.00    +0.123 A 
ATOM     26  C   UNL     1      -0.890   1.700   3.674  0.00  0.00    +0.043 A 
ATOM     27  C   UNL     1      -2.043   2.484   3.826  0.00  0.00    +0.013 A 
ATOM     28  C   UNL     1      -2.507   2.803   5.083  0.00  0.00    +0.001 A 
ATOM     29  C   UNL     1      -1.854   2.356   6.217  0.00  0.00    +0.002 A 
ATOM     30  C   UNL     1      -0.714   1.574   6.086  0.00  0.00    +0.030 A 
ATOM     31  H   UNL     1      -1.602   2.179   1.124  0.00  0.00    +0.148 HD
ENDBRANCH  18  19
ENDBRANCH   1  18
TORSDOF 5
