REMARK  Name = ZINC42440529
REMARK  3 active torsions:
REMARK  status: ('A' for Active; 'I' for Inactive)
REMARK    1  A    between atoms: C_1  and  C_2
REMARK    2  A    between atoms: C_6  and  C_17
REMARK    3  A    between atoms: C_13  and  C_15
REMARK                            x       y       z     vdW  Elec       q    Type
REMARK                         _______ _______ _______ _____ _____    ______ ____
ROOT
ATOM      1  C   UNL     1      -0.014   1.531   0.015  0.00  0.00    +0.028 C 
ATOM      2  C   UNL     1       0.005   0.001   0.002  0.00  0.00    +0.075 C 
ATOM      3  C   UNL     1      -1.431  -0.530   0.016  0.00  0.00    +0.023 C 
ATOM      4  C   UNL     1      -2.100  -0.147   1.339  0.00  0.00    +0.016 C 
ATOM      5  C   UNL     1      -1.337  -0.786   2.502  0.00  0.00    +0.092 C 
ATOM      6  C   UNL     1       0.101  -0.258   2.516  0.00  0.00    +0.122 C 
ATOM      7  N   UNL     1       0.707  -0.493   1.195  0.00  0.00    -0.282 N 
ATOM      8  C   UNL     1       1.879  -1.149   1.080  0.00  0.00    +0.309 C 
ATOM      9  O   UNL     1       2.317  -1.420  -0.021  0.00  0.00    -0.252 OA
ATOM     10  N   UNL     1       2.564  -1.504   2.185  0.00  0.00    -0.239 N 
ATOM     11  C   UNL     1       3.782  -2.068   2.070  0.00  0.00    +0.235 C 
ATOM     12  O   UNL     1       4.262  -2.256   0.973  0.00  0.00    -0.274 OA
ATOM     13  H   UNL     1       2.180  -1.353   3.063  0.00  0.00    +0.159 HD
ENDROOT
BRANCH   5  14
ATOM     14  C   UNL     1      -2.015  -0.436   3.801  0.00  0.00    +0.215 C 
ATOM     15  O   UNL     1      -3.011   0.257   3.798  0.00  0.00    -0.276 OA
ATOM     16  N   UNL     1      -1.515  -0.892   4.967  0.00  0.00    -0.329 N 
ATOM     17  H   UNL     1      -0.719  -1.446   4.969  0.00  0.00    +0.145 HD
ATOM     18  H   UNL     1      -1.952  -0.666   5.803  0.00  0.00    +0.145 HD
ENDBRANCH   5  14
BRANCH  11  19
ATOM     19  C   UNL     1       4.548  -2.465   3.306  0.00  0.00    +0.204 C 
ATOM     20 CL   UNL     1       6.129  -3.187   2.827  0.00  0.00    -0.116 Cl
ENDBRANCH  11  19
TORSDOF 2
