REMARK  Name = ZINC37563004
REMARK  7 active torsions:
REMARK  status: ('A' for Active; 'I' for Inactive)
REMARK    1  A    between atoms: C_1  and  O_2
REMARK    2  A    between atoms: O_2  and  C_3
REMARK    3  A    between atoms: N_5  and  C_6
REMARK    4  A    between atoms: C_9  and  N_12
REMARK    5  A    between atoms: N_12  and  C_13
REMARK    6  A    between atoms: C_13  and  C_14
REMARK    7  A    between atoms: C_16  and  N_19
REMARK                            x       y       z     vdW  Elec       q    Type
REMARK                         _______ _______ _______ _____ _____    ______ ____
ROOT
ATOM      1  C   UNL     1       1.365  -2.517  -2.180  0.00  0.00    +0.037 A 
ATOM      2  C   UNL     1       1.997  -1.701  -3.108  0.00  0.00    +0.025 A 
ATOM      3  C   UNL     1       2.698  -2.262  -4.157  0.00  0.00    +0.025 A 
ATOM      4  C   UNL     1       2.771  -3.643  -4.283  0.00  0.00    +0.027 A 
ATOM      5  C   UNL     1       2.138  -4.460  -3.354  0.00  0.00    +0.025 A 
ATOM      6  C   UNL     1       1.442  -3.898  -2.303  0.00  0.00    +0.025 A 
ENDROOT
BRANCH   1   9
ATOM      7  C   UNL     1       0.650  -2.547   0.092  0.00  0.00    +0.404 C 
ATOM      8  O   UNL     1       1.193  -3.625   0.235  0.00  0.00    -0.226 OA
ATOM      9  N   UNL     1       0.653  -1.946  -1.115  0.00  0.00    -0.251 N 
ATOM     10  H   UNL     1       0.163  -1.120  -1.246  0.00  0.00    +0.158 HD
BRANCH   7  12
ATOM     11  C   UNL     1       0.081  -2.646   2.387  0.00  0.00    +0.282 C 
ATOM     12  O   UNL     1       0.045  -1.953   1.138  0.00  0.00    -0.453 OA
ENDBRANCH   7  12
ENDBRANCH   1   9
BRANCH   4  13
ATOM     13  N   UNL     1       3.481  -4.213  -5.346  0.00  0.00    -0.340 N 
ATOM     14  H   UNL     1       3.922  -3.642  -5.995  0.00  0.00    +0.146 HD
BRANCH  13  15
ATOM     15  C   UNL     1       3.557  -5.669  -5.479  0.00  0.00    +0.137 C 
BRANCH  15  16
ATOM     16  C   UNL     1       4.373  -6.021  -6.696  0.00  0.00    -0.021 A 
ATOM     17  C   UNL     1       3.765  -6.170  -7.929  0.00  0.00    +0.045 A 
ATOM     18  C   UNL     1       4.528  -6.486  -9.004  0.00  0.00    +0.164 A 
ATOM     19  S   UNL     1       6.159  -6.581  -8.284  0.00  0.00    -0.073 S 
ATOM     20  C   UNL     1       5.715  -6.189  -6.600  0.00  0.00    +0.052 A 
BRANCH  18  21
ATOM     21  N   UNL     1       4.116  -6.697 -10.410  0.00  0.00    +0.063 N 
ATOM     22  O   UNL     1       2.952  -6.591 -10.721  0.00  0.00    -0.126 OA
ATOM     23  O   UNL     1       4.942  -6.976 -11.247  0.00  0.00    -0.126 OA
ENDBRANCH  18  21
ENDBRANCH  15  16
ENDBRANCH  13  15
ENDBRANCH   4  13
TORSDOF 6
