REMARK  Name = ZINC04587533
REMARK  8 active torsions:
REMARK  status: ('A' for Active; 'I' for Inactive)
REMARK    1  A    between atoms: C_1  and  C_2
REMARK    2  A    between atoms: C_4  and  O_30
REMARK    3  A    between atoms: C_6  and  O_29
REMARK    4  A    between atoms: C_8  and  O_28
REMARK    5  A    between atoms: C_10  and  N_13
REMARK    6  A    between atoms: N_13  and  C_14
REMARK    7  A    between atoms: C_17  and  N_20
REMARK    8  A    between atoms: N_21  and  C_22
REMARK                            x       y       z     vdW  Elec       q    Type
REMARK                         _______ _______ _______ _____ _____    ______ ____
ROOT
ATOM      1  N   UNL     1       1.853  -5.628   1.936  0.00  0.00    -0.317 N 
ATOM      2  H   UNL     1       1.282  -5.583   2.718  0.00  0.00    +0.149 HD
ENDROOT
BRANCH   1   8
ATOM      3  C   UNL     1      -0.634  -4.752  -2.041  0.00  0.00    +0.041 C 
ATOM      4  C   UNL     1       0.123  -5.850  -1.292  0.00  0.00    +0.149 C 
ATOM      5  C   UNL     1      -0.824  -7.019  -1.006  0.00  0.00    +0.174 C 
ATOM      6  C   UNL     1      -0.076  -8.088  -0.205  0.00  0.00    +0.178 C 
ATOM      7  C   UNL     1       0.473  -7.457   1.079  0.00  0.00    +0.192 C 
ATOM      8  C   UNL     1       1.370  -6.272   0.712  0.00  0.00    +0.235 C 
ATOM      9  O   UNL     1       0.621  -5.330  -0.059  0.00  0.00    -0.351 OA
BRANCH   7  10
ATOM     10  O   UNL     1      -0.612  -7.003   1.890  0.00  0.00    -0.385 OA
ATOM     11  H   UNL     1      -0.337  -6.592   2.721  0.00  0.00    +0.210 HD
ENDBRANCH   7  10
BRANCH   6  12
ATOM     12  O   UNL     1      -0.972  -9.150   0.128  0.00  0.00    -0.386 OA
ATOM     13  H   UNL     1      -0.564  -9.864   0.637  0.00  0.00    +0.210 HD
ENDBRANCH   6  12
BRANCH   5  14
ATOM     14  O   UNL     1      -1.945  -6.552  -0.252  0.00  0.00    -0.387 OA
ATOM     15  H   UNL     1      -2.462  -5.868  -0.699  0.00  0.00    +0.210 HD
ENDBRANCH   5  14
ENDBRANCH   1   8
BRANCH   1  16
ATOM     16  C   UNL     1       3.134  -5.082   1.976  0.00  0.00    +0.029 A 
ATOM     17  C   UNL     1       3.950  -5.143   0.851  0.00  0.00    +0.025 A 
ATOM     18  C   UNL     1       5.216  -4.604   0.887  0.00  0.00    +0.031 A 
ATOM     19  C   UNL     1       5.682  -3.994   2.057  0.00  0.00    +0.086 A 
ATOM     20  C   UNL     1       4.857  -3.934   3.186  0.00  0.00    +0.031 A 
ATOM     21  C   UNL     1       3.591  -4.470   3.140  0.00  0.00    +0.025 A 
BRANCH  19  22
ATOM     22  N   UNL     1       6.936  -3.458   2.097  0.00  0.00    -0.149 NA
ATOM     23  N   UNL     1       7.570  -3.219   0.999  0.00  0.00    -0.149 NA
BRANCH  23  24
ATOM     24  C   UNL     1       6.879  -2.866  -0.127  0.00  0.00    +0.086 A 
ATOM     25  C   UNL     1       7.488  -2.956  -1.381  0.00  0.00    +0.029 A 
ATOM     26  C   UNL     1       6.785  -2.599  -2.513  0.00  0.00    +0.002 A 
ATOM     27  C   UNL     1       5.479  -2.153  -2.408  0.00  0.00    +0.000 A 
ATOM     28  C   UNL     1       4.869  -2.061  -1.169  0.00  0.00    +0.002 A 
ATOM     29  C   UNL     1       5.558  -2.421  -0.029  0.00  0.00    +0.029 A 
ENDBRANCH  23  24
ENDBRANCH  19  22
ENDBRANCH   1  16
TORSDOF 7
