REMARK  Name = ZINC20690935
REMARK  7 active torsions:
REMARK  status: ('A' for Active; 'I' for Inactive)
REMARK    1  A    between atoms: C_1  and  C_2
REMARK    2  A    between atoms: C_2  and  C_3
REMARK    3  A    between atoms: N_5  and  C_6
REMARK    4  A    between atoms: C_19  and  C_22
REMARK    5  A    between atoms: C_25  and  O_29
REMARK    6  A    between atoms: C_26  and  O_28
REMARK    7  A    between atoms: O_29  and  C_30
REMARK                            x       y       z     vdW  Elec       q    Type
REMARK                         _______ _______ _______ _____ _____    ______ ____
ROOT
ATOM      1  C   UNL     1      -3.897   5.076  -0.975  0.00  0.00    +0.034 A 
ATOM      2  C   UNL     1      -3.583   5.566  -2.236  0.00  0.00    +0.025 A 
ATOM      3  C   UNL     1      -2.340   5.307  -2.778  0.00  0.00    +0.025 A 
ATOM      4  C   UNL     1      -1.410   4.561  -2.065  0.00  0.00    +0.031 A 
ATOM      5  C   UNL     1      -1.714   4.073  -0.804  0.00  0.00    -0.018 A 
ATOM      6  C   UNL     1      -2.967   4.334  -0.265  0.00  0.00    +0.029 A 
ATOM      7  C   UNL     1      -0.740   3.275   0.003  0.00  0.00    +0.049 C 
ATOM      8  C   UNL     1      -1.099   1.808   0.008  0.00  0.00    -0.023 C 
ATOM      9  C   UNL     1      -0.012   1.075  -0.004  0.00  0.00    -0.030 C 
ATOM     10  C   UNL     1       1.222   1.956  -0.023  0.00  0.00    +0.033 C 
ATOM     11  C   UNL     1       0.689   3.311  -0.573  0.00  0.00    +0.029 C 
ATOM     12  C   UNL     1       0.640   3.196  -2.099  0.00  0.00    +0.105 C 
ATOM     13  N   UNL     1      -0.154   4.307  -2.634  0.00  0.00    -0.336 N 
ATOM     14  H   UNL     1       0.239   4.917  -3.460  0.00  0.00    +0.147 HD
ENDROOT
BRANCH  12  15
ATOM     15  C   UNL     1       0.001   1.887  -2.486  0.00  0.00    -0.023 A 
ATOM     16  C   UNL     1      -1.375   1.759  -2.467  0.00  0.00    +0.009 A 
ATOM     17  C   UNL     1      -1.966   0.561  -2.821  0.00  0.00    +0.050 A 
ATOM     18  C   UNL     1      -1.178  -0.516  -3.197  0.00  0.00    +0.161 A 
ATOM     19  C   UNL     1       0.207  -0.387  -3.217  0.00  0.00    +0.159 A 
ATOM     20  C   UNL     1       0.793   0.819  -2.865  0.00  0.00    +0.054 A 
BRANCH  19  21
ATOM     21  O   UNL     1       0.984  -1.440  -3.585  0.00  0.00    -0.503 OA
ATOM     22  H   UNL     1       2.079  -1.337  -3.600  0.00  0.00    +0.292 HD
ENDBRANCH  19  21
BRANCH  18  23
ATOM     23  O   UNL     1      -1.758  -1.696  -3.545  0.00  0.00    -0.491 OA
ATOM     24  C   UNL     1      -3.185  -1.755  -3.501  0.00  0.00    +0.277 C 
ENDBRANCH  18  23
ENDBRANCH  12  15
BRANCH   1  27
ATOM     25  C   UNL     1      -5.771   6.510  -0.657  0.00  0.00    +0.217 C 
ATOM     26  O   UNL     1      -5.272   7.311  -1.418  0.00  0.00    -0.275 OA
ATOM     27  N   UNL     1      -5.157   5.334  -0.419  0.00  0.00    -0.285 N 
ATOM     28  H   UNL     1      -5.646   4.576   0.211  0.00  0.00    +0.155 HD
BRANCH  25  30
ATOM     29  C   UNL     1      -7.556   8.214  -0.416  0.00  0.00    +0.013 C 
ATOM     30  C   UNL     1      -7.077   6.829   0.024  0.00  0.00    +0.093 C 
ENDBRANCH  25  30
ENDBRANCH   1  27
TORSDOF 5
