REMARK  Name = ZINC00691497
REMARK  9 active torsions:
REMARK  status: ('A' for Active; 'I' for Inactive)
REMARK    1  A    between atoms: C_1  and  C_2
REMARK    2  A    between atoms: C_2  and  C_32
REMARK    3  A    between atoms: C_6  and  C_20
REMARK    4  A    between atoms: C_8  and  C_18
REMARK    5  A    between atoms: C_9  and  N_17
REMARK    6  A    between atoms: N_10  and  N_11
REMARK    7  A    between atoms: C_23  and  O_28
REMARK    8  A    between atoms: C_24  and  O_26
REMARK    9  A    between atoms: O_26  and  C_27
REMARK                            x       y       z     vdW  Elec       q    Type
REMARK                         _______ _______ _______ _____ _____    ______ ____
ROOT
ATOM      1  C   UNL     1      -2.853   4.804  -2.962  0.00  0.00    +0.011 C 
ATOM      2  C   UNL     1      -3.129   5.604  -1.687  0.00  0.00    -0.023 C 
ATOM      3  C   UNL     1      -2.141   5.188  -0.596  0.00  0.00    +0.059 C 
ATOM      4  C   UNL     1      -2.321   3.723  -0.280  0.00  0.00    +0.037 C 
ATOM      5  C   UNL     1      -3.528   3.130  -0.399  0.00  0.00    +0.026 C 
ATOM      6  C   UNL     1      -3.709   1.670  -0.071  0.00  0.00    +0.098 C 
ATOM      7  C   UNL     1      -2.392   0.951  -0.056  0.00  0.00    +0.078 C 
ATOM      8  C   UNL     1      -1.222   1.634   0.045  0.00  0.00    +0.117 C 
ATOM      9  N   UNL     1      -1.229   3.006   0.134  0.00  0.00    -0.223 N 
ATOM     10  C   UNL     1      -4.652   3.855  -0.833  0.00  0.00    +0.162 C 
ATOM     11  O   UNL     1      -5.726   3.293  -0.919  0.00  0.00    -0.292 OA
ATOM     12  C   UNL     1      -4.550   5.311  -1.193  0.00  0.00    +0.086 C 
ATOM     13  C   UNL     1      -2.982   7.099  -1.976  0.00  0.00    +0.011 C 
ENDROOT
BRANCH   9  14
ATOM     14  N   UNL     1      -0.138   3.658   0.633  0.00  0.00    -0.217 NA
ATOM     15  C   UNL     1       0.996   3.579  -0.300  0.00  0.00    +0.134 C 
ATOM     16  C   UNL     1       2.175   4.371   0.270  0.00  0.00    +0.177 C 
ATOM     17  O   UNL     1       2.504   3.861   1.565  0.00  0.00    -0.377 OA
ATOM     18  C   UNL     1       1.423   3.922   2.500  0.00  0.00    +0.177 C 
ATOM     19  C   UNL     1       0.236   3.126   1.952  0.00  0.00    +0.134 C 
ENDBRANCH   9  14
BRANCH   6  20
ATOM     20  C   UNL     1      -4.356   1.544   1.285  0.00  0.00    -0.031 A 
ATOM     21  C   UNL     1      -3.713   2.038   2.404  0.00  0.00    +0.008 A 
ATOM     22  C   UNL     1      -4.302   1.925   3.650  0.00  0.00    +0.049 A 
ATOM     23  C   UNL     1      -5.541   1.316   3.778  0.00  0.00    +0.158 A 
ATOM     24  C   UNL     1      -6.189   0.820   2.651  0.00  0.00    +0.162 A 
ATOM     25  C   UNL     1      -5.594   0.941   1.405  0.00  0.00    +0.054 A 
BRANCH  24  26
ATOM     26  O   UNL     1      -7.404   0.222   2.771  0.00  0.00    -0.491 OA
ATOM     27  C   UNL     1      -8.010  -0.264   1.571  0.00  0.00    +0.277 C 
ENDBRANCH  24  26
BRANCH  23  28
ATOM     28  O   UNL     1      -6.122   1.205   5.002  0.00  0.00    -0.503 OA
ATOM     29  H   UNL     1      -6.686   1.954   5.239  0.00  0.00    +0.292 HD
ENDBRANCH  23  28
ENDBRANCH   6  20
BRANCH   8  30
ATOM     30  N   UNL     1      -0.029   0.952   0.065  0.00  0.00    -0.344 N 
ATOM     31  H   UNL     1       0.022   0.054  -0.297  0.00  0.00    +0.144 HD
ATOM     32  H   UNL     1       0.762   1.371   0.438  0.00  0.00    +0.144 HD
ENDBRANCH   8  30
BRANCH   7  33
ATOM     33  C   UNL     1      -2.368  -0.477  -0.149  0.00  0.00    +0.099 C 
ATOM     34  N   UNL     1      -2.349  -1.611  -0.223  0.00  0.00    -0.191 NA
ENDBRANCH   7  33
TORSDOF 6
