REMARK  Name = ZINC12390840
REMARK  8 active torsions:
REMARK  status: ('A' for Active; 'I' for Inactive)
REMARK    1  A    between atoms: C_1  and  C_2
REMARK    2  A    between atoms: C_5  and  N_9
REMARK    3  A    between atoms: C_19  and  S_21
REMARK    4  A    between atoms: S_21  and  C_22
REMARK    5  A    between atoms: C_22  and  C_23
REMARK    6  A    between atoms: N_25  and  C_26
REMARK    7  A    between atoms: C_26  and  C_27
REMARK    8  A    between atoms: C_26  and  C_28
REMARK                            x       y       z     vdW  Elec       q    Type
REMARK                         _______ _______ _______ _____ _____    ______ ____
ROOT
ATOM      1  N   UNL     1       6.044   3.441  -0.038  0.00  0.00    -0.214 N 
ATOM      2  C   UNL     1       4.846   4.091  -0.022  0.00  0.00    +0.169 A 
ATOM      3  C   UNL     1       5.138   5.463  -0.017  0.00  0.00    +0.077 A 
ATOM      4  C   UNL     1       6.537   5.595  -0.030  0.00  0.00    +0.148 A 
ATOM      5  N   UNL     1       7.064   4.401  -0.043  0.00  0.00    -0.172 NA
ATOM      6  C   UNL     1       4.015   6.412   0.000  0.00  0.00    +0.113 C 
ATOM      7  C   UNL     1       3.163   8.678   0.019  0.00  0.00    +0.115 C 
ATOM      8  C   UNL     1       1.940   8.080   0.723  0.00  0.00    +0.040 C 
ATOM      9  C   UNL     1       1.570   6.769   0.021  0.00  0.00    +0.116 C 
ATOM     10  N   UNL     1       2.740   5.887   0.007  0.00  0.00    -0.266 N 
ATOM     11  C   UNL     1       2.565   4.530   0.002  0.00  0.00    +0.164 C 
ATOM     12  N   UNL     1       3.568   3.686  -0.007  0.00  0.00    -0.206 NA
ATOM     13  N   UNL     1       4.326   7.720   0.009  0.00  0.00    -0.372 N 
ATOM     14  H   UNL     1       5.300   8.046   0.008  0.00  0.00    +0.161 HD
ENDROOT
BRANCH   1  19
ATOM     15  C   UNL     1       6.775  -2.187  -0.077  0.00  0.00    +0.045 C 
ATOM     16  C   UNL     1       6.581  -0.693  -0.067  0.00  0.00    -0.032 A 
ATOM     17  C   UNL     1       7.458   0.122  -0.758  0.00  0.00    +0.007 A 
ATOM     18  C   UNL     1       7.283   1.492  -0.751  0.00  0.00    +0.028 A 
ATOM     19  C   UNL     1       6.224   2.052  -0.047  0.00  0.00    +0.069 A 
ATOM     20  C   UNL     1       5.348   1.232   0.651  0.00  0.00    +0.048 A 
ATOM     21  C   UNL     1       5.525  -0.139   0.635  0.00  0.00    +0.046 A 
ATOM     22 CL   UNL     1       4.426  -1.165   1.502  0.00  0.00    -0.083 Cl
ENDBRANCH   1  19
BRANCH  11  23
ATOM     23  S   UNL     1       0.924   3.890   0.014  0.00  0.00    -0.081 S 
BRANCH  23  24
ATOM     24  C   UNL     1       1.278   2.115   0.001  0.00  0.00    +0.172 C 
BRANCH  24  25
ATOM     25  C   UNL     1      -0.016   1.344   0.009  0.00  0.00    +0.224 C 
ATOM     26  O   UNL     1      -1.075   1.936   0.018  0.00  0.00    -0.275 OA
ATOM     27  N   UNL     1       0.002  -0.004   0.002  0.00  0.00    -0.312 N 
ATOM     28  H   UNL     1       0.849  -0.478  -0.009  0.00  0.00    +0.149 HD
BRANCH  27  29
ATOM     29  C   UNL     1      -1.256  -0.754   0.010  0.00  0.00    +0.067 C 
ATOM     30  C   UNL     1      -1.773  -0.899  -1.423  0.00  0.00    +0.027 C 
ATOM     31  C   UNL     1      -1.020  -2.141   0.610  0.00  0.00    +0.027 C 
ENDBRANCH  27  29
ENDBRANCH  24  25
ENDBRANCH  23  24
ENDBRANCH  11  23
TORSDOF 5
