REMARK  Name = ZINC50620648
REMARK  9 active torsions:
REMARK  status: ('A' for Active; 'I' for Inactive)
REMARK    1  A    between atoms: C_1  and  C_2
REMARK    2  A    between atoms: C_7  and  C_8
REMARK    3  A    between atoms: C_11  and  C_13
REMARK    4  A    between atoms: C_13  and  C_14
REMARK    5  A    between atoms: C_14  and  N_15
REMARK    6  A    between atoms: N_15  and  C_16
REMARK    7  A    between atoms: C_16  and  C_17
REMARK    8  A    between atoms: C_16  and  C_18
REMARK    9  A    between atoms: C_16  and  C_19
REMARK                            x       y       z     vdW  Elec       q    Type
REMARK                         _______ _______ _______ _____ _____    ______ ____
ROOT
ATOM      1  C   UNL     1       0.025   0.018   2.493  0.00  0.00    +0.249 A 
ATOM      2  N   UNL     1       0.003   1.321   2.650  0.00  0.00    -0.107 NA
ATOM      3  N   UNL     1       0.012   1.596   3.907  0.00  0.00    -0.112 NA
ATOM      4  C   UNL     1       0.041   0.489   4.596  0.00  0.00    +0.216 A 
ATOM      5  O   UNL     1       0.044  -0.533   3.723  0.00  0.00    -0.420 OA
ENDROOT
BRANCH   1  12
ATOM      6  C   UNL     1      -0.018   1.503   0.010  0.00  0.00    +0.044 C 
ATOM      7  C   UNL     1       0.002  -0.004   0.002  0.00  0.00    -0.037 A 
ATOM      8  C   UNL     1       0.006  -0.689  -1.196  0.00  0.00    +0.019 A 
ATOM      9  C   UNL     1       0.025  -2.073  -1.205  0.00  0.00    +0.018 A 
ATOM     10  C   UNL     1       0.041  -2.779  -0.014  0.00  0.00    +0.016 A 
ATOM     11  C   UNL     1       0.037  -2.105   1.190  0.00  0.00    +0.014 A 
ATOM     12  C   UNL     1       0.023  -0.710   1.206  0.00  0.00    +0.041 A 
ATOM     13 BR   UNL     1       0.029  -3.004  -2.851  0.00  0.00    -0.050 Br
ENDBRANCH   1  12
BRANCH   4  14
ATOM     14  C   UNL     1       0.061   0.377   6.098  0.00  0.00    +0.079 C 
BRANCH  14  15
ATOM     15  C   UNL     1      -1.374   0.311   6.624  0.00  0.00    -0.072 C 
BRANCH  15  16
ATOM     16  N   UNL     1      -1.354   0.201   8.089  0.00  0.00    +0.383 N 
ATOM     17  H   UNL     1      -0.859  -0.637   8.357  0.00  0.00    -0.085 HD
ATOM     18  H   UNL     1      -0.889   1.006   8.480  0.00  0.00    -0.085 HD
BRANCH  16  19
ATOM     19  C   UNL     1      -2.732   0.138   8.593  0.00  0.00    -0.077 C 
ATOM     20  C   UNL     1      -3.438  -1.083   8.000  0.00  0.00    -0.011 C 
ATOM     21  C   UNL     1      -2.712   0.023  10.119  0.00  0.00    -0.011 C 
ATOM     22  C   UNL     1      -3.483   1.408   8.187  0.00  0.00    -0.011 C 
ENDBRANCH  16  19
ENDBRANCH  15  16
ENDBRANCH  14  15
ENDBRANCH   4  14
TORSDOF 5
