REMARK  Name = ZINC66940533
REMARK  10 active torsions:
REMARK  status: ('A' for Active; 'I' for Inactive)
REMARK    1  A    between atoms: C_1  and  C_2
REMARK    2  A    between atoms: C_2  and  C_3
REMARK    3  A    between atoms: C_2  and  C_4
REMARK    4  A    between atoms: C_2  and  O_5
REMARK    5  A    between atoms: O_5  and  C_6
REMARK    6  A    between atoms: C_12  and  C_15
REMARK    7  A    between atoms: C_15  and  N_16
REMARK    8  A    between atoms: N_16  and  C_17
REMARK    9  A    between atoms: C_17  and  C_19
REMARK   10  A    between atoms: C_17  and  C_26
REMARK                            x       y       z     vdW  Elec       q    Type
REMARK                         _______ _______ _______ _____ _____    ______ ____
ROOT
ATOM      1  N   UNL     1       6.928  -0.271  -2.012  0.00  0.00    +0.390 N 
ATOM      2  H   UNL     1       6.392   0.551  -1.777  0.00  0.00    -0.084 HD
ATOM      3  H   UNL     1       6.931  -0.906  -1.228  0.00  0.00    -0.084 HD
ENDROOT
BRANCH   1   4
ATOM      4  C   UNL     1       6.325  -0.932  -3.177  0.00  0.00    -0.076 C 
BRANCH   4  11
ATOM      5  C   UNL     1       1.952  -0.085  -1.337  0.00  0.00    +0.403 C 
ATOM      6  O   UNL     1       2.488   0.619  -0.503  0.00  0.00    -0.226 OA
ATOM      7  N   UNL     1       2.641  -0.485  -2.424  0.00  0.00    -0.267 N 
ATOM      8  C   UNL     1       2.005  -1.331  -3.443  0.00  0.00    +0.111 C 
ATOM      9  C   UNL     1       2.874  -2.573  -3.666  0.00  0.00    +0.019 C 
ATOM     10  C   UNL     1       4.300  -2.137  -4.011  0.00  0.00    +0.005 C 
ATOM     11  C   UNL     1       4.888  -1.339  -2.845  0.00  0.00    -0.011 C 
ATOM     12  C   UNL     1       4.040  -0.078  -2.616  0.00  0.00    +0.112 C 
BRANCH   5  13
ATOM     13  O   UNL     1       0.671  -0.465  -1.174  0.00  0.00    -0.445 OA
BRANCH  13  15
ATOM     14  C   UNL     1      -0.019   1.526   0.010  0.00  0.00    +0.055 C 
ATOM     15  C   UNL     1       0.002  -0.004   0.002  0.00  0.00    +0.107 C 
ATOM     16  C   UNL     1       0.742  -0.511   1.242  0.00  0.00    +0.055 C 
ATOM     17  C   UNL     1      -1.433  -0.534   0.013  0.00  0.00    +0.055 C 
ENDBRANCH  13  15
ENDBRANCH   5  13
ENDBRANCH   4  11
ENDBRANCH   1   4
BRANCH   1  18
ATOM     18  C   UNL     1       8.308   0.119  -2.331  0.00  0.00    +0.047 C 
BRANCH  18  19
ATOM     19  C   UNL     1       8.886   0.905  -1.183  0.00  0.00    -0.053 A 
ATOM     20  C   UNL     1       8.624   0.520   0.119  0.00  0.00    +0.005 A 
ATOM     21  C   UNL     1       9.154   1.240   1.173  0.00  0.00    +0.038 A 
ATOM     22  C   UNL     1       9.948   2.347   0.925  0.00  0.00    +0.123 A 
ATOM     23  C   UNL     1      10.210   2.732  -0.379  0.00  0.00    +0.038 A 
ATOM     24  C   UNL     1       9.683   2.007  -1.432  0.00  0.00    +0.005 A 
ATOM     25  F   UNL     1      10.466   3.052   1.954  0.00  0.00    -0.205 F 
ENDBRANCH  18  19
BRANCH  18  26
ATOM     26  C   UNL     1       9.139  -1.117  -2.562  0.00  0.00    +0.201 C 
ATOM     27  O   UNL     1       8.631  -2.215  -2.471  0.00  0.00    -0.277 OA
ATOM     28  N   UNL     1      10.446  -1.002  -2.871  0.00  0.00    -0.330 N 
ATOM     29  H   UNL     1      10.852  -0.125  -2.945  0.00  0.00    +0.145 HD
ATOM     30  H   UNL     1      10.980  -1.798  -3.020  0.00  0.00    +0.145 HD
ENDBRANCH  18  26
ENDBRANCH   1  18
TORSDOF 7
