REMARK  Name = ZINC38976522
REMARK  7 active torsions:
REMARK  status: ('A' for Active; 'I' for Inactive)
REMARK    1  A    between atoms: C_1  and  C_2
REMARK    2  A    between atoms: C_4  and  C_8
REMARK    3  A    between atoms: C_15  and  C_17
REMARK    4  A    between atoms: C_20  and  O_25
REMARK    5  A    between atoms: C_21  and  O_23
REMARK    6  A    between atoms: O_23  and  C_24
REMARK    7  A    between atoms: O_25  and  C_26
REMARK                            x       y       z     vdW  Elec       q    Type
REMARK                         _______ _______ _______ _____ _____    ______ ____
ROOT
ATOM      1  C   UNL     1      -0.964  -2.951   1.248  0.00  0.00    +0.230 C 
ATOM      2  N   UNL     1      -2.427  -3.094   1.282  0.00  0.00    -0.242 N 
ATOM      3  N   UNL     1      -2.682  -4.470   1.264  0.00  0.00    -0.161 NA
ATOM      4  C   UNL     1      -1.589  -5.146   1.225  0.00  0.00    +0.201 C 
ATOM      5  N   UNL     1      -0.452  -4.344   1.212  0.00  0.00    -0.175 N 
ATOM      6  N   UNL     1       0.770  -5.007   1.172  0.00  0.00    -0.168 NA
ATOM      7  C   UNL     1       0.838  -6.308   1.149  0.00  0.00    +0.130 C 
ATOM      8  S   UNL     1      -0.889  -6.784   1.179  0.00  0.00    -0.029 S 
ATOM      9  H   UNL     1      -3.082  -2.379   1.312  0.00  0.00    +0.170 HD
ENDROOT
BRANCH   1  13
ATOM     10  C   UNL     1      -0.018   1.503   0.010  0.00  0.00    +0.067 C 
ATOM     11  C   UNL     1       0.002  -0.004   0.002  0.00  0.00    +0.058 C 
ATOM     12  C   UNL     1      -1.086  -0.777   0.003  0.00  0.00    +0.029 C 
ATOM     13  C   UNL     1      -0.531  -2.190  -0.007  0.00  0.00    +0.194 C 
ATOM     14  N   UNL     1       0.926  -1.973  -0.013  0.00  0.00    -0.176 NA
ATOM     15  N   UNL     1       1.125  -0.756  -0.013  0.00  0.00    -0.159 NA
ENDBRANCH   1  13
BRANCH   7  16
ATOM     16  C   UNL     1       2.037  -7.172   1.106  0.00  0.00    +0.012 A 
ATOM     17  C   UNL     1       3.310  -6.601   1.091  0.00  0.00    +0.014 A 
ATOM     18  C   UNL     1       4.428  -7.409   1.051  0.00  0.00    +0.050 A 
ATOM     19  C   UNL     1       4.290  -8.788   1.026  0.00  0.00    +0.162 A 
ATOM     20  C   UNL     1       3.022  -9.364   1.041  0.00  0.00    +0.162 A 
ATOM     21  C   UNL     1       1.897  -8.560   1.086  0.00  0.00    +0.060 A 
BRANCH  20  22
ATOM     22  O   UNL     1       2.889 -10.718   1.015  0.00  0.00    -0.491 OA
ATOM     23  C   UNL     1       1.559 -11.240   1.033  0.00  0.00    +0.277 C 
ENDBRANCH  20  22
BRANCH  19  24
ATOM     24  O   UNL     1       5.394  -9.580   0.985  0.00  0.00    -0.491 OA
ATOM     25  C   UNL     1       6.663  -8.923   0.971  0.00  0.00    +0.277 C 
ENDBRANCH  19  24
ENDBRANCH   7  16
TORSDOF 4
