REMARK  Name = ZINC35990923
REMARK  9 active torsions:
REMARK  status: ('A' for Active; 'I' for Inactive)
REMARK    1  A    between atoms: C_1  and  C_2
REMARK    2  A    between atoms: C_2  and  N_3
REMARK    3  A    between atoms: C_4  and  C_21
REMARK    4  A    between atoms: C_5  and  C_16
REMARK    5  A    between atoms: C_6  and  C_11
REMARK    6  A    between atoms: C_16  and  O_18
REMARK    7  A    between atoms: O_18  and  C_19
REMARK    8  A    between atoms: C_19  and  C_20
REMARK    9  A    between atoms: C_21  and  N_22
REMARK                            x       y       z     vdW  Elec       q    Type
REMARK                         _______ _______ _______ _____ _____    ______ ____
ROOT
ATOM      1  N   UNL     1      -1.405  -0.448  -0.062  0.00  0.00    -0.258 N 
ATOM      2  C   UNL     1      -1.962  -0.591   1.176  0.00  0.00    +0.041 C 
ATOM      3  C   UNL     1      -3.195  -1.123   1.329  0.00  0.00    +0.080 C 
ATOM      4  C   UNL     1      -3.937  -1.553   0.080  0.00  0.00    +0.144 C 
ATOM      5  N   UNL     1      -3.248  -1.355  -1.207  0.00  0.00    -0.288 N 
ATOM      6  C   UNL     1      -2.017  -0.806  -1.198  0.00  0.00    +0.307 C 
ATOM      7  O   UNL     1      -1.442  -0.635  -2.255  0.00  0.00    -0.252 OA
ATOM      8  H   UNL     1      -3.672  -1.611  -2.041  0.00  0.00    +0.151 HD
ENDROOT
BRANCH   4   9
ATOM      9  C   UNL     1      -5.239  -0.797   0.030  0.00  0.00    -0.015 A 
ATOM     10  C   UNL     1      -6.415  -1.397   0.440  0.00  0.00    +0.013 A 
ATOM     11  C   UNL     1      -7.570  -0.689   0.382  0.00  0.00    +0.045 A 
ATOM     12  S   UNL     1      -7.011   0.877  -0.268  0.00  0.00    -0.105 S 
ATOM     13  C   UNL     1      -5.275   0.484  -0.413  0.00  0.00    +0.051 A 
ENDBRANCH   4   9
BRANCH   1  15
ATOM     14  C   UNL     1      -0.178   1.656  -0.288  0.00  0.00    +0.025 C 
ATOM     15  C   UNL     1      -0.065   0.136  -0.154  0.00  0.00    +0.111 C 
ENDBRANCH   1  15
BRANCH   3  16
ATOM     16  C   UNL     1      -3.773  -1.272   2.611  0.00  0.00    +0.339 C 
ATOM     17  O   UNL     1      -3.776  -2.362   3.154  0.00  0.00    -0.245 OA
BRANCH  16  18
ATOM     18  O   UNL     1      -4.321  -0.207   3.233  0.00  0.00    -0.462 OA
BRANCH  18  19
ATOM     19  C   UNL     1      -4.887  -0.431   4.526  0.00  0.00    +0.229 C 
ATOM     20  C   UNL     1      -5.455   0.881   5.068  0.00  0.00    +0.048 C 
ENDBRANCH  18  19
ENDBRANCH  16  18
ENDBRANCH   3  16
BRANCH   2  21
ATOM     21  C   UNL     1      -1.190  -0.150   2.393  0.00  0.00    +0.136 C 
BRANCH  21  22
ATOM     22  N   UNL     1      -0.014  -1.014   2.566  0.00  0.00    -0.300 NA
ATOM     23  C   UNL     1      -0.415  -2.390   2.892  0.00  0.00    +0.066 C 
ATOM     24  C   UNL     1       0.833  -3.268   3.005  0.00  0.00    -0.067 C 
ATOM     25  N   UNL     1       1.714  -2.735   4.052  0.00  0.00    +0.381 N 
ATOM     26  C   UNL     1       2.126  -1.369   3.700  0.00  0.00    -0.067 C 
ATOM     27  C   UNL     1       0.889  -0.475   3.593  0.00  0.00    +0.066 C 
ATOM     28  H   UNL     1       1.221  -2.720   4.932  0.00  0.00    -0.086 HD
ATOM     29  H   UNL     1       2.531  -3.321   4.135  0.00  0.00    -0.086 HD
ENDBRANCH  21  22
ENDBRANCH   2  21
TORSDOF 7
