REMARK  Name = ZINC06305372
REMARK  9 active torsions:
REMARK  status: ('A' for Active; 'I' for Inactive)
REMARK    1  A    between atoms: C_1  and  C_2
REMARK    2  A    between atoms: C_2  and  C_3
REMARK    3  A    between atoms: C_2  and  C_4
REMARK    4  A    between atoms: C_2  and  C_5
REMARK    5  A    between atoms: C_8  and  C_11
REMARK    6  A    between atoms: C_11  and  N_12
REMARK    7  A    between atoms: N_12  and  C_13
REMARK    8  A    between atoms: C_13  and  C_14
REMARK    9  A    between atoms: N_22  and  C_23
REMARK                            x       y       z     vdW  Elec       q    Type
REMARK                         _______ _______ _______ _____ _____    ______ ____
ROOT
ATOM      1  N   UNL     1       2.520  -0.898  -5.833  0.00  0.00    -0.279 N 
ATOM      2  C   UNL     1       1.464  -1.009  -6.664  0.00  0.00    +0.303 C 
ATOM      3  O   UNL     1       0.667  -1.915  -6.516  0.00  0.00    -0.253 OA
ATOM      4  N   UNL     1       1.293  -0.116  -7.659  0.00  0.00    -0.296 N 
ATOM      5  H   UNL     1       1.929   0.607  -7.777  0.00  0.00    +0.151 HD
ENDROOT
BRANCH   4   6
ATOM      6  C   UNL     1       0.145  -0.237  -8.562  0.00  0.00    +0.074 C 
ATOM      7  C   UNL     1       0.486  -1.210  -9.692  0.00  0.00    +0.022 C 
ATOM      8  C   UNL     1      -0.713  -1.337 -10.634  0.00  0.00    +0.002 C 
ATOM      9  C   UNL     1      -1.044   0.035 -11.225  0.00  0.00    +0.000 C 
ATOM     10  C   UNL     1      -1.384   1.008 -10.095  0.00  0.00    +0.002 C 
ATOM     11  C   UNL     1      -0.186   1.135  -9.152  0.00  0.00    +0.022 C 
ENDBRANCH   4   6
BRANCH   1  12
ATOM     12  C   UNL     1       2.707  -1.868  -4.752  0.00  0.00    +0.144 C 
BRANCH  12  16
ATOM     13  C   UNL     1       0.707  -0.490  -1.238  0.00  0.00    -0.042 A 
ATOM     14  C   UNL     1       0.036  -1.284  -2.148  0.00  0.00    +0.004 A 
ATOM     15  C   UNL     1       0.683  -1.730  -3.286  0.00  0.00    +0.005 A 
ATOM     16  C   UNL     1       2.001  -1.381  -3.513  0.00  0.00    -0.030 A 
ATOM     17  C   UNL     1       2.672  -0.586  -2.603  0.00  0.00    +0.005 A 
ATOM     18  C   UNL     1       2.024  -0.137  -1.467  0.00  0.00    +0.004 A 
BRANCH  13  20
ATOM     19  C   UNL     1      -0.019   1.526   0.010  0.00  0.00    +0.015 C 
ATOM     20  C   UNL     1       0.002  -0.004   0.002  0.00  0.00    -0.013 C 
ATOM     21  C   UNL     1       0.742  -0.511   1.242  0.00  0.00    +0.015 C 
ATOM     22  C   UNL     1      -1.433  -0.534   0.013  0.00  0.00    +0.015 C 
ENDBRANCH  13  20
ENDBRANCH  12  16
ENDBRANCH   1  12
BRANCH   1  23
ATOM     23  C   UNL     1       3.481   0.194  -6.012  0.00  0.00    +0.141 C 
BRANCH  23  24
ATOM     24  C   UNL     1       4.597  -0.258  -6.956  0.00  0.00    +0.136 C 
ATOM     25  C   UNL     1       5.676   0.841  -7.056  0.00  0.00    +0.035 C 
ATOM     26  C   UNL     1       6.056   0.795  -8.561  0.00  0.00    +0.031 C 
ATOM     27  C   UNL     1       4.689   0.439  -9.198  0.00  0.00    +0.160 C 
ATOM     28  O   UNL     1       4.066  -0.467  -8.271  0.00  0.00    -0.375 OA
ENDBRANCH  23  24
ENDBRANCH   1  23
TORSDOF 6
