REMARK  Name = ZINC38995099
REMARK  10 active torsions:
REMARK  status: ('A' for Active; 'I' for Inactive)
REMARK    1  A    between atoms: C_1  and  C_2
REMARK    2  A    between atoms: C_7  and  N_8
REMARK    3  A    between atoms: C_9  and  C_11
REMARK    4  A    between atoms: C_11  and  S_12
REMARK    5  A    between atoms: S_12  and  C_13
REMARK    6  A    between atoms: C_17  and  C_21
REMARK    7  A    between atoms: N_19  and  N_20
REMARK    8  A    between atoms: C_24  and  C_27
REMARK    9  A    between atoms: C_30  and  O_33
REMARK   10  A    between atoms: O_33  and  C_34
REMARK                            x       y       z     vdW  Elec       q    Type
REMARK                         _______ _______ _______ _____ _____    ______ ____
ROOT
ATOM      1  C   UNL     1       0.563   0.243   7.485  0.00  0.00    +0.214 C 
ATOM      2  N   UNL     1       1.831   1.005   7.348  0.00  0.00    -0.228 NA
ATOM      3  N   UNL     1       1.566   2.232   8.116  0.00  0.00    -0.234 NA
ATOM      4  C   UNL     1       0.148   2.549   7.828  0.00  0.00    +0.185 C 
ATOM      5  N   UNL     1      -0.495   1.278   7.428  0.00  0.00    -0.197 NA
ATOM      6  H   UNL     1       2.023   1.219   6.381  0.00  0.00    +0.143 HD
ATOM      7  H   UNL     1       2.171   2.983   7.819  0.00  0.00    +0.143 HD
ENDROOT
BRANCH   4   8
ATOM      8  C   UNL     1      -0.529   3.107   9.081  0.00  0.00    +0.187 C 
ATOM      9  C   UNL     1       0.099   4.427   9.488  0.00  0.00    +0.034 C 
ATOM     10  C   UNL     1       0.597   4.183  10.716  0.00  0.00    +0.091 C 
ATOM     11  N   UNL     1       0.345   2.899  11.083  0.00  0.00    -0.154 NA
ATOM     12  N   UNL     1      -0.273   2.237  10.241  0.00  0.00    -0.176 NA
BRANCH  10  13
ATOM     13  C   UNL     1       1.318   5.175  11.550  0.00  0.00    +0.002 A 
ATOM     14  C   UNL     1       1.518   6.471  11.077  0.00  0.00    +0.013 A 
ATOM     15  C   UNL     1       2.188   7.392  11.855  0.00  0.00    +0.046 A 
ATOM     16  C   UNL     1       2.665   7.029  13.107  0.00  0.00    +0.120 A 
ATOM     17  C   UNL     1       2.468   5.739  13.581  0.00  0.00    +0.046 A 
ATOM     18  C   UNL     1       1.793   4.816  12.810  0.00  0.00    +0.013 A 
BRANCH  16  19
ATOM     19  O   UNL     1       3.326   7.938  13.870  0.00  0.00    -0.495 OA
ATOM     20  C   UNL     1       3.789   7.497  15.149  0.00  0.00    +0.277 C 
ENDBRANCH  16  19
ENDBRANCH  10  13
ENDBRANCH   4   8
BRANCH   5  21
ATOM     21  N   UNL     1      -1.057   1.377   6.091  0.00  0.00    -0.264 NA
ATOM     22  H   UNL     1      -1.552   0.533   5.843  0.00  0.00    +0.137 HD
ATOM     23  H   UNL     1      -1.655   2.185   6.009  0.00  0.00    +0.137 HD
ENDBRANCH   5  21
BRANCH   1  24
ATOM     24  S   UNL     1       0.377  -0.930   6.114  0.00  0.00    -0.115 S 
BRANCH  24  25
ATOM     25  C   UNL     1       1.415  -2.338   6.596  0.00  0.00    +0.168 C 
BRANCH  25  27
ATOM     26  N   UNL     1       2.161  -4.481   5.612  0.00  0.00    -0.285 N 
ATOM     27  C   UNL     1       1.447  -3.346   5.476  0.00  0.00    +0.227 C 
ATOM     28  O   UNL     1       0.831  -3.135   4.453  0.00  0.00    -0.275 OA
ATOM     29  H   UNL     1       2.597  -4.682   6.455  0.00  0.00    +0.155 HD
BRANCH  26  36
ATOM     30  C   UNL     1       4.588  -5.937   5.320  0.00  0.00    +0.045 C 
ATOM     31  C   UNL     1       3.440  -6.100   4.357  0.00  0.00    -0.029 A 
ATOM     32  C   UNL     1       3.546  -6.980   3.298  0.00  0.00    +0.006 A 
ATOM     33  C   UNL     1       2.494  -7.131   2.414  0.00  0.00    +0.020 A 
ATOM     34  C   UNL     1       1.331  -6.401   2.587  0.00  0.00    +0.043 A 
ATOM     35  C   UNL     1       1.219  -5.518   3.644  0.00  0.00    +0.043 A 
ATOM     36  C   UNL     1       2.273  -5.369   4.537  0.00  0.00    +0.038 A 
ATOM     37 CL   UNL     1       0.012  -6.593   1.474  0.00  0.00    -0.083 Cl
ENDBRANCH  26  36
ENDBRANCH  25  27
ENDBRANCH  24  25
ENDBRANCH   1  24
TORSDOF 8
