REMARK  Name = ZINC20468246
REMARK  8 active torsions:
REMARK  status: ('A' for Active; 'I' for Inactive)
REMARK    1  A    between atoms: C_1  and  C_2
REMARK    2  A    between atoms: C_5  and  C_8
REMARK    3  A    between atoms: C_8  and  N_9
REMARK    4  A    between atoms: N_9  and  C_10
REMARK    5  A    between atoms: N_9  and  C_11
REMARK    6  A    between atoms: C_14  and  N_19
REMARK    7  A    between atoms: C_16  and  C_17
REMARK    8  A    between atoms: C_17  and  O_18
REMARK                            x       y       z     vdW  Elec       q    Type
REMARK                         _______ _______ _______ _____ _____    ______ ____
ROOT
ATOM      1  C   UNL     1      -1.225   1.755   0.017  0.00  0.00    +0.035 A 
ATOM      2  C   UNL     1      -0.013   1.076   0.008  0.00  0.00    +0.026 A 
ATOM      3  C   UNL     1       1.173   1.783   0.000  0.00  0.00    +0.034 A 
ATOM      4  C   UNL     1       1.155   3.166   0.007  0.00  0.00    +0.127 A 
ATOM      5  C   UNL     1      -0.049   3.845   0.022  0.00  0.00    +0.040 A 
ATOM      6  C   UNL     1      -1.239   3.144   0.029  0.00  0.00    +0.001 A 
ENDROOT
BRANCH   4   7
ATOM      7  N   UNL     1       2.428   3.921  -0.001  0.00  0.00    +0.056 N 
ATOM      8  O   UNL     1       3.490   3.324  -0.013  0.00  0.00    -0.126 OA
ATOM      9  O   UNL     1       2.414   5.139   0.006  0.00  0.00    -0.126 OA
ENDBRANCH   4   7
BRANCH   1  10
ATOM     10  N   UNL     1      -2.426   1.042   0.019  0.00  0.00    -0.328 N 
ATOM     11  C   UNL     1      -2.578   0.263  -1.216  0.00  0.00    +0.129 C 
BRANCH  10  12
ATOM     12  C   UNL     1      -2.523   0.178   1.203  0.00  0.00    +0.139 C 
BRANCH  12  17
ATOM     13  C   UNL     1      -7.873  -1.973   1.582  0.00  0.00    +0.044 C 
ATOM     14  C   UNL     1      -6.478  -1.412   1.483  0.00  0.00    -0.050 A 
ATOM     15  C   UNL     1      -5.507  -2.096   0.777  0.00  0.00    +0.003 A 
ATOM     16  C   UNL     1      -4.227  -1.582   0.686  0.00  0.00    +0.005 A 
ATOM     17  C   UNL     1      -3.919  -0.383   1.302  0.00  0.00    -0.030 A 
ATOM     18  C   UNL     1      -4.889   0.298   2.012  0.00  0.00    +0.005 A 
ATOM     19  C   UNL     1      -6.170  -0.214   2.099  0.00  0.00    +0.003 A 
ENDBRANCH  12  17
ENDBRANCH  10  12
ENDBRANCH   1  10
BRANCH   6  20
ATOM     20  C   UNL     1      -2.551   3.884   0.043  0.00  0.00    +0.193 C 
BRANCH  20  21
ATOM     21  O   UNL     1      -2.304   5.292   0.047  0.00  0.00    -0.390 OA
ATOM     22  H   UNL     1      -3.147   5.998   0.058  0.00  0.00    +0.210 HD
ENDBRANCH  20  21
ENDBRANCH   6  20
TORSDOF 6
