REMARK  Name = ZINC07265809
REMARK  9 active torsions:
REMARK  status: ('A' for Active; 'I' for Inactive)
REMARK    1  A    between atoms: C_1  and  C_2
REMARK    2  A    between atoms: C_2  and  C_3
REMARK    3  A    between atoms: C_3  and  N_4
REMARK    4  A    between atoms: N_4  and  C_5
REMARK    5  A    between atoms: C_5  and  C_6
REMARK    6  A    between atoms: N_8  and  C_9
REMARK    7  A    between atoms: C_14  and  C_15
REMARK    8  A    between atoms: C_16  and  C_18
REMARK    9  A    between atoms: C_19  and  C_27
REMARK                            x       y       z     vdW  Elec       q    Type
REMARK                         _______ _______ _______ _____ _____    ______ ____
ROOT
ATOM      1  N   UNL     1       0.865  -1.910   1.331  0.00  0.00    -0.286 N 
ATOM      2  C   UNL     1      -0.101  -2.536   2.033  0.00  0.00    +0.283 C 
ATOM      3  O   UNL     1      -0.982  -1.888   2.566  0.00  0.00    -0.267 OA
ENDROOT
BRANCH   2   4
ATOM      4  C   UNL     1      -0.091  -4.000   2.152  0.00  0.00    +0.194 A 
ATOM      5  C   UNL     1      -1.063  -4.743   2.741  0.00  0.00    +0.008 A 
ATOM      6  C   UNL     1      -0.633  -6.136   2.628  0.00  0.00    +0.024 A 
ATOM      7  C   UNL     1      -1.179  -7.359   3.027  0.00  0.00    +0.012 A 
ATOM      8  C   UNL     1      -0.506  -8.519   2.764  0.00  0.00    +0.001 A 
ATOM      9  C   UNL     1       0.715  -8.489   2.103  0.00  0.00    +0.004 A 
ATOM     10  C   UNL     1       1.270  -7.294   1.702  0.00  0.00    +0.047 A 
ATOM     11  C   UNL     1       0.604  -6.101   1.958  0.00  0.00    +0.136 A 
ATOM     12  O   UNL     1       0.884  -4.811   1.690  0.00  0.00    -0.450 OA
ATOM     13  C   UNL     1      -2.330  -4.235   3.381  0.00  0.00    +0.048 C 
ENDBRANCH   2   4
BRANCH   1  14
ATOM     14  C   UNL     1       0.923  -0.447   1.308  0.00  0.00    +0.108 C 
BRANCH  14  16
ATOM     15  C   UNL     1       0.253   1.601   0.043  0.00  0.00    +0.005 C 
ATOM     16  C   UNL     1       0.193   0.073   0.067  0.00  0.00    +0.016 C 
ENDBRANCH  14  16
ENDBRANCH   1  14
BRANCH   1  17
ATOM     17  C   UNL     1       1.858  -2.694   0.593  0.00  0.00    +0.204 C 
BRANCH  17  18
ATOM     18  C   UNL     1       2.981  -3.083   1.519  0.00  0.00    +0.235 C 
ATOM     19  O   UNL     1       2.955  -2.740   2.682  0.00  0.00    -0.274 OA
ATOM     20  N   UNL     1       4.015  -3.813   1.055  0.00  0.00    -0.284 N 
ATOM     21  H   UNL     1       3.998  -4.156   0.148  0.00  0.00    +0.155 HD
BRANCH  20  22
ATOM     22  C   UNL     1       5.112  -4.076   1.882  0.00  0.00    +0.036 A 
ATOM     23  C   UNL     1       5.410  -3.222   2.936  0.00  0.00    +0.023 A 
ATOM     24  C   UNL     1       6.494  -3.484   3.750  0.00  0.00    +0.002 A 
ATOM     25  C   UNL     1       7.283  -4.596   3.518  0.00  0.00    +0.000 A 
ATOM     26  C   UNL     1       6.989  -5.449   2.469  0.00  0.00    +0.005 A 
ATOM     27  C   UNL     1       5.903  -5.195   1.655  0.00  0.00    -0.029 A 
ATOM     28  C   UNL     1       5.579  -6.129   0.517  0.00  0.00    +0.045 C 
ENDBRANCH  20  22
ENDBRANCH  17  18
ENDBRANCH   1  17
TORSDOF 6
