REMARK  Name = ZINC12329347
REMARK  6 active torsions:
REMARK  status: ('A' for Active; 'I' for Inactive)
REMARK    1  A    between atoms: C_1  and  C_2
REMARK    2  A    between atoms: C_8  and  O_31
REMARK    3  A    between atoms: C_17  and  C_18
REMARK    4  A    between atoms: C_17  and  N_59
REMARK    5  A    between atoms: C_18  and  C_20
REMARK    6  A    between atoms: C_18  and  O_30
REMARK                            x       y       z     vdW  Elec       q    Type
REMARK                         _______ _______ _______ _____ _____    ______ ____
ROOT
ATOM      1  C   UNL     1       6.027 -10.250  -0.017  0.00  0.00    +0.044 C 
ATOM      2  C   UNL     1       6.010  -8.891  -0.668  0.00  0.00    -0.050 A 
ATOM      3  C   UNL     1       4.878  -8.458  -1.336  0.00  0.00    +0.007 A 
ATOM      4  C   UNL     1       4.864  -7.214  -1.931  0.00  0.00    +0.046 A 
ATOM      5  C   UNL     1       5.984  -6.391  -1.863  0.00  0.00    +0.127 A 
ATOM      6  C   UNL     1       7.114  -6.827  -1.193  0.00  0.00    +0.023 A 
ATOM      7  C   UNL     1       7.123  -8.077  -0.598  0.00  0.00    +0.013 A 
ATOM      8  C   UNL     1       8.347  -5.965  -1.089  0.00  0.00    +0.152 C 
ATOM      9  C   UNL     1       8.297  -4.864  -2.151  0.00  0.00    +0.084 C 
ATOM     10  C   UNL     1       6.914  -4.206  -2.099  0.00  0.00    +0.110 C 
ATOM     11  O   UNL     1       5.933  -5.174  -2.465  0.00  0.00    -0.485 OA
ATOM     12  C   UNL     1       6.871  -3.029  -3.075  0.00  0.00    +0.029 C 
ATOM     13  C   UNL     1       5.512  -2.333  -2.972  0.00  0.00    -0.075 C 
ATOM     14  C   UNL     1       5.288  -2.986  -0.649  0.00  0.00    -0.075 C 
ATOM     15  C   UNL     1       6.641  -3.701  -0.681  0.00  0.00    +0.029 C 
ATOM     16  N   UNL     1       5.327  -1.845  -1.589  0.00  0.00    +0.382 N 
ATOM     17  H   UNL     1       6.116  -1.236  -1.342  0.00  0.00    -0.082 HD
ENDROOT
BRANCH   8  18
ATOM     18  O   UNL     1       9.509  -6.770  -1.294  0.00  0.00    -0.387 OA
ATOM     19  H   UNL     1       9.608  -7.488  -0.654  0.00  0.00    +0.210 HD
ENDBRANCH   8  18
BRANCH  16  20
ATOM     20  C   UNL     1       4.073  -1.069  -1.492  0.00  0.00    -0.042 C 
BRANCH  20  21
ATOM     21  C   UNL     1       4.231   0.223  -2.296  0.00  0.00    +0.128 C 
BRANCH  21  22
ATOM     22  C   UNL     1       2.974   1.046  -2.176  0.00  0.00    -0.017 A 
ATOM     23  C   UNL     1       2.804   1.894  -1.097  0.00  0.00    +0.010 A 
ATOM     24  C   UNL     1       1.652   2.649  -0.983  0.00  0.00    +0.050 A 
ATOM     25  C   UNL     1       0.663   2.558  -1.951  0.00  0.00    +0.162 A 
ATOM     26  C   UNL     1       0.835   1.708  -3.037  0.00  0.00    +0.162 A 
ATOM     27  C   UNL     1       1.992   0.952  -3.145  0.00  0.00    +0.055 A 
ATOM     28  O   UNL     1      -0.120   1.610  -4.002  0.00  0.00    -0.485 OA
ATOM     29  C   UNL     1      -1.424   2.097  -3.669  0.00  0.00    +0.270 C 
ATOM     30  C   UNL     1      -1.268   3.468  -2.998  0.00  0.00    +0.270 C 
ATOM     31  O   UNL     1      -0.470   3.301  -1.820  0.00  0.00    -0.485 OA
ENDBRANCH  21  22
BRANCH  21  32
ATOM     32  O   UNL     1       5.338   0.969  -1.787  0.00  0.00    -0.389 OA
ATOM     33  H   UNL     1       5.250   1.221  -0.858  0.00  0.00    +0.210 HD
ENDBRANCH  21  32
ENDBRANCH  20  21
ENDBRANCH  16  20
TORSDOF 5
