REMARK  Name = ZINC06727877
REMARK  8 active torsions:
REMARK  status: ('A' for Active; 'I' for Inactive)
REMARK    1  A    between atoms: C_1  and  C_2
REMARK    2  A    between atoms: C_4  and  C_30
REMARK    3  A    between atoms: C_9  and  C_11
REMARK    4  A    between atoms: C_14  and  N_17
REMARK    5  A    between atoms: C_18  and  C_20
REMARK    6  A    between atoms: C_20  and  O_21
REMARK    7  A    between atoms: O_21  and  C_22
REMARK    8  A    between atoms: C_26  and  C_28
REMARK                            x       y       z     vdW  Elec       q    Type
REMARK                         _______ _______ _______ _____ _____    ______ ____
ROOT
ATOM      1  C   UNL     1       1.742  -1.811  -0.040  0.00  0.00    +0.037 A 
ATOM      2  C   UNL     1       0.816  -2.838   0.153  0.00  0.00    +0.015 A 
ATOM      3  C   UNL     1       1.233  -4.151   0.142  0.00  0.00    +0.024 A 
ATOM      4  C   UNL     1       2.577  -4.453  -0.051  0.00  0.00    +0.034 A 
ATOM      5  C   UNL     1       3.502  -3.432  -0.238  0.00  0.00    +0.024 A 
ATOM      6  C   UNL     1       3.091  -2.118  -0.234  0.00  0.00    +0.015 A 
ENDROOT
BRANCH   1  15
ATOM      7  C   UNL     1       0.933   5.522  -0.239  0.00  0.00    +0.044 C 
ATOM      8  C   UNL     1       0.616   4.053  -0.126  0.00  0.00    -0.048 A 
ATOM      9  C   UNL     1      -0.692   3.646   0.093  0.00  0.00    +0.010 A 
ATOM     10  C   UNL     1      -0.998   2.305   0.204  0.00  0.00    -0.006 A 
ATOM     11  C   UNL     1       0.005   1.355   0.087  0.00  0.00    +0.159 A 
ATOM     12  C   UNL     1       1.330   1.763  -0.135  0.00  0.00    +0.110 A 
ATOM     13  C   UNL     1       1.626   3.125  -0.240  0.00  0.00    +0.035 A 
ATOM     14  N   UNL     1       2.080   0.633  -0.200  0.00  0.00    -0.209 NA
ATOM     15  C   UNL     1       1.297  -0.402  -0.034  0.00  0.00    +0.228 A 
ATOM     16  O   UNL     1       0.025   0.005   0.143  0.00  0.00    -0.435 OA
ATOM     17  C   UNL     1      -2.421   1.873   0.447  0.00  0.00    +0.047 C 
ENDBRANCH   1  15
BRANCH   4  18
ATOM     18  N   UNL     1       2.998  -5.784  -0.056  0.00  0.00    -0.283 N 
ATOM     19  C   UNL     1       4.215  -6.108   0.424  0.00  0.00    +0.255 C 
ATOM     20  O   UNL     1       4.906  -5.260   0.948  0.00  0.00    -0.272 OA
ATOM     21  H   UNL     1       2.414  -6.476  -0.405  0.00  0.00    +0.155 HD
BRANCH  19  22
ATOM     22  C   UNL     1       4.717  -7.525   0.310  0.00  0.00    +0.324 C 
BRANCH  22  23
ATOM     23  O   UNL     1       6.021  -7.615   0.887  0.00  0.00    -0.483 OA
BRANCH  23  24
ATOM     24  C   UNL     1       6.622  -8.834   0.866  0.00  0.00    +0.122 A 
ATOM     25  C   UNL     1       5.967  -9.922   0.307  0.00  0.00    +0.047 A 
ATOM     26  C   UNL     1       6.581 -11.159   0.282  0.00  0.00    +0.024 A 
ATOM     27  C   UNL     1       7.844 -11.316   0.824  0.00  0.00    +0.044 A 
ATOM     28  C   UNL     1       8.497 -10.234   1.387  0.00  0.00    -0.029 A 
ATOM     29  C   UNL     1       7.888  -8.994   1.409  0.00  0.00    +0.050 A 
ATOM     30  C   UNL     1       9.873 -10.408   1.976  0.00  0.00    +0.045 C 
ATOM     31 CL   UNL     1       8.611 -12.873   0.798  0.00  0.00    -0.083 Cl
ENDBRANCH  23  24
ENDBRANCH  22  23
ENDBRANCH  19  22
ENDBRANCH   4  18
TORSDOF 5
