REMARK  Name = ZINC12660647
REMARK  12 active torsions:
REMARK  status: ('A' for Active; 'I' for Inactive)
REMARK    1  A    between atoms: C_1  and  C_2
REMARK    2  A    between atoms: N_6  and  O_7
REMARK    3  A    between atoms: O_7  and  C_8
REMARK    4  A    between atoms: C_8  and  C_9
REMARK    5  A    between atoms: N_11  and  C_12
REMARK    6  A    between atoms: C_12  and  C_13
REMARK    7  A    between atoms: C_13  and  C_14
REMARK    8  A    between atoms: C_14  and  C_15
REMARK    9  A    between atoms: C_15  and  C_16
REMARK   10  A    between atoms: C_28  and  C_37
REMARK   11  A    between atoms: C_33  and  C_34
REMARK   12  A    between atoms: C_33  and  O_36
REMARK                            x       y       z     vdW  Elec       q    Type
REMARK                         _______ _______ _______ _____ _____    ______ ____
ROOT
ATOM      1  C   UNL     1      -2.418   2.582   6.710  0.00  0.00    +0.016 C 
ATOM      2  C   UNL     1      -1.141   2.959   5.957  0.00  0.00    -0.007 C 
ATOM      3  C   UNL     1      -1.540   3.480   4.588  0.00  0.00    +0.017 C 
ATOM      4  C   UNL     1      -1.829   2.345   3.613  0.00  0.00    +0.059 C 
ATOM      5  C   UNL     1      -0.585   1.483   3.530  0.00  0.00    +0.080 C 
ATOM      6  N   UNL     1      -0.073   1.130   2.393  0.00  0.00    -0.089 NA
ATOM      7  C   UNL     1       0.016   1.072   4.811  0.00  0.00    +0.026 C 
ATOM      8  C   UNL     1      -0.253   1.753   5.919  0.00  0.00    -0.062 C 
ATOM      9  C   UNL     1       0.360   1.264   7.218  0.00  0.00    +0.031 C 
ATOM     10  C   UNL     1       1.018   2.451   7.925  0.00  0.00    +0.008 C 
ATOM     11  C   UNL     1      -0.016   3.567   8.113  0.00  0.00    -0.003 C 
ATOM     12  C   UNL     1      -0.461   4.084   6.747  0.00  0.00    +0.002 C 
ATOM     13  C   UNL     1      -1.476   5.214   6.958  0.00  0.00    +0.005 C 
ATOM     14  C   UNL     1      -0.788   6.363   7.688  0.00  0.00    +0.011 C 
ATOM     15  C   UNL     1      -0.321   5.914   9.076  0.00  0.00    +0.011 C 
ATOM     16  C   UNL     1       0.558   4.657   8.969  0.00  0.00    +0.002 C 
ATOM     17  C   UNL     1       1.891   5.214   8.397  0.00  0.00    +0.008 C 
ATOM     18  C   UNL     1       2.066   6.565   9.128  0.00  0.00    +0.049 C 
ATOM     19  C   UNL     1       0.662   7.002   9.586  0.00  0.00    +0.132 C 
ATOM     20  C   UNL     1      -1.497   5.709  10.033  0.00  0.00    +0.015 C 
ENDROOT
BRANCH  19  21
ATOM     21  C   UNL     1       0.321   8.307   8.998  0.00  0.00    -0.070 C 
ATOM     22  C   UNL     1       0.050   9.349   8.530  0.00  0.00    +0.007 C 
ENDBRANCH  19  21
BRANCH  19  23
ATOM     23  O   UNL     1       0.612   7.078  11.012  0.00  0.00    -0.376 OA
ATOM     24  H   UNL     1       1.205   7.741  11.392  0.00  0.00    +0.211 HD
ENDBRANCH  19  23
BRANCH   6  25
ATOM     25  O   UNL     1      -0.682   1.547   1.184  0.00  0.00    -0.384 OA
BRANCH  25  26
ATOM     26  C   UNL     1      -0.013   1.086   0.008  0.00  0.00    +0.358 C 
BRANCH  26  27
ATOM     27  C   UNL     1      -0.742   1.585  -1.213  0.00  0.00    +0.253 C 
ATOM     28  O   UNL     1      -1.736   2.268  -1.088  0.00  0.00    -0.272 OA
ATOM     29  N   UNL     1      -0.288   1.272  -2.443  0.00  0.00    -0.312 N 
ATOM     30  H   UNL     1       0.507   0.726  -2.543  0.00  0.00    +0.149 HD
BRANCH  29  31
ATOM     31  C   UNL     1      -0.997   1.758  -3.630  0.00  0.00    +0.104 C 
BRANCH  31  32
ATOM     32  C   UNL     1      -0.281   1.264  -4.889  0.00  0.00    +0.019 C 
BRANCH  32  33
ATOM     33  C   UNL     1      -1.021   1.771  -6.128  0.00  0.00    +0.013 C 
BRANCH  33  34
ATOM     34  C   UNL     1      -0.305   1.278  -7.387  0.00  0.00    +0.125 C 
BRANCH  34  35
ATOM     35  C   UNL     1      -1.034   1.777  -8.608  0.00  0.00    +0.356 C 
ATOM     36  O   UNL     1      -2.024   2.457  -8.484  0.00  0.00    -0.246 OA
ATOM     37  O   UNL     1      -0.582   1.465  -9.833  0.00  0.00    -0.246 OA
ENDBRANCH  34  35
ENDBRANCH  33  34
ENDBRANCH  32  33
ENDBRANCH  31  32
ENDBRANCH  29  31
ENDBRANCH  26  27
ENDBRANCH  25  26
ENDBRANCH   6  25
TORSDOF 10
