REMARK  Name = ZINC16769406
REMARK  9 active torsions:
REMARK  status: ('A' for Active; 'I' for Inactive)
REMARK    1  A    between atoms: C_1  and  C_2
REMARK    2  A    between atoms: C_10  and  C_11
REMARK    3  A    between atoms: C_11  and  O_13
REMARK    4  A    between atoms: O_13  and  C_14
REMARK    5  A    between atoms: C_14  and  C_16
REMARK    6  A    between atoms: C_14  and  C_17
REMARK    7  A    between atoms: N_22  and  C_23
REMARK    8  A    between atoms: C_23  and  C_24
REMARK    9  A    between atoms: C_23  and  C_25
REMARK                            x       y       z     vdW  Elec       q    Type
REMARK                         _______ _______ _______ _____ _____    ______ ____
ROOT
ATOM      1  O   UNL     1      -4.183  -0.702   0.039  0.00  0.00    -0.447 OA
ENDROOT
BRANCH   1   2
ATOM      2  C   UNL     1      -3.594   0.511   0.039  0.00  0.00    +0.376 C 
ATOM      3  O   UNL     1      -4.276   1.518   0.051  0.00  0.00    -0.241 OA
BRANCH   2  13
ATOM      4  C   UNL     1      -1.994   3.178   0.047  0.00  0.00    +0.048 C 
ATOM      5  C   UNL     1      -1.429   1.780   0.031  0.00  0.00    +0.010 A 
ATOM      6  C   UNL     1      -0.017   1.403   0.010  0.00  0.00    +0.025 A 
ATOM      7  C   UNL     1       1.182   2.120   0.002  0.00  0.00    +0.027 A 
ATOM      8  C   UNL     1       2.373   1.449  -0.012  0.00  0.00    +0.019 A 
ATOM      9  C   UNL     1       2.397   0.060  -0.020  0.00  0.00    +0.019 A 
ATOM     10  C   UNL     1       1.225  -0.665  -0.013  0.00  0.00    +0.048 A 
ATOM     11  C   UNL     1       0.002  -0.004   0.002  0.00  0.00    +0.136 A 
ATOM     12  O   UNL     1      -1.276  -0.429   0.012  0.00  0.00    -0.448 OA
ATOM     13  C   UNL     1      -2.130   0.616   0.026  0.00  0.00    +0.216 A 
ATOM     14 BR   UNL     1       3.997   2.417  -0.022  0.00  0.00    -0.050 Br
ENDBRANCH   2  13
ENDBRANCH   1   2
BRANCH   1  15
ATOM     15  C   UNL     1      -5.635  -0.730   0.052  0.00  0.00    +0.259 C 
ATOM     16  C   UNL     1      -6.131  -0.748   1.500  0.00  0.00    +0.062 C 
BRANCH  15  17
ATOM     17  C   UNL     1      -6.120  -1.967  -0.660  0.00  0.00    +0.261 C 
ATOM     18  O   UNL     1      -5.324  -2.792  -1.052  0.00  0.00    -0.271 OA
ATOM     19  N   UNL     1      -7.440  -2.155  -0.860  0.00  0.00    -0.237 N 
ATOM     20  C   UNL     1      -7.874  -3.261  -1.497  0.00  0.00    +0.306 C 
ATOM     21  O   UNL     1      -7.075  -4.088  -1.890  0.00  0.00    -0.252 OA
ATOM     22  N   UNL     1      -9.193  -3.449  -1.697  0.00  0.00    -0.297 N 
ATOM     23  H   UNL     1      -8.077  -1.495  -0.546  0.00  0.00    +0.159 HD
ATOM     24  H   UNL     1      -9.830  -2.789  -1.383  0.00  0.00    +0.151 HD
BRANCH  22  25
ATOM     25  C   UNL     1      -9.665  -4.651  -2.389  0.00  0.00    +0.068 C 
ATOM     26  C   UNL     1      -9.803  -5.797  -1.385  0.00  0.00    +0.027 C 
ATOM     27  C   UNL     1     -11.024  -4.369  -3.032  0.00  0.00    +0.027 C 
ENDBRANCH  22  25
ENDBRANCH  15  17
ENDBRANCH   1  15
TORSDOF 5
