REMARK  Name = ZINC15118046
REMARK  8 active torsions:
REMARK  status: ('A' for Active; 'I' for Inactive)
REMARK    1  A    between atoms: C_1  and  C_2
REMARK    2  A    between atoms: C_3  and  C_17
REMARK    3  A    between atoms: C_4  and  O_16
REMARK    4  A    between atoms: C_5  and  C_15
REMARK    5  A    between atoms: C_6  and  O_14
REMARK    6  A    between atoms: C_7  and  C_8
REMARK    7  A    between atoms: N_10  and  C_11
REMARK    8  A    between atoms: C_11  and  C_12
REMARK                            x       y       z     vdW  Elec       q    Type
REMARK                         _______ _______ _______ _____ _____    ______ ____
ROOT
ATOM      1  C   UNL     1      -0.013   1.086   0.008  0.00  0.00    +0.045 C 
ATOM      2  C   UNL     1      -0.718   1.572   1.248  0.00  0.00    -0.028 A 
ATOM      3  C   UNL     1      -2.077   1.788   1.227  0.00  0.00    -0.005 A 
ATOM      4  C   UNL     1      -2.733   2.231   2.371  0.00  0.00    +0.126 A 
ATOM      5  C   UNL     1      -2.022   2.470   3.538  0.00  0.00    +0.033 A 
ATOM      6  C   UNL     1      -0.654   2.261   3.570  0.00  0.00    +0.136 A 
ATOM      7  C   UNL     1       0.009   1.808   2.419  0.00  0.00    +0.082 A 
ATOM      8  C   UNL     1      -2.739   2.955   4.771  0.00  0.00    +0.051 C 
ATOM      9  C   UNL     1      -2.857   1.539  -0.038  0.00  0.00    +0.048 C 
ENDROOT
BRANCH   7  10
ATOM     10  C   UNL     1       1.464   1.583   2.444  0.00  0.00    +0.248 C 
ATOM     11  O   UNL     1       2.224   2.487   2.154  0.00  0.00    -0.270 OA
ATOM     12  N   UNL     1       1.953   0.376   2.788  0.00  0.00    -0.301 N 
ATOM     13  H   UNL     1       1.347  -0.345   3.020  0.00  0.00    +0.150 HD
BRANCH  12  14
ATOM     14  C   UNL     1       3.401   0.151   2.814  0.00  0.00    +0.229 C 
BRANCH  14  15
ATOM     15  C   UNL     1       3.682  -1.270   3.227  0.00  0.00    +0.373 C 
ATOM     16  O   UNL     1       2.767  -2.019   3.476  0.00  0.00    -0.245 OA
ATOM     17  O   UNL     1       4.949  -1.704   3.320  0.00  0.00    -0.245 OA
ENDBRANCH  14  15
ENDBRANCH  12  14
ENDBRANCH   7  10
BRANCH   6  18
ATOM     18  O   UNL     1       0.043   2.493   4.710  0.00  0.00    -0.506 OA
ATOM     19  H   UNL     1       0.378   3.397   4.789  0.00  0.00    +0.292 HD
ENDBRANCH   6  18
BRANCH   4  20
ATOM     20  O   UNL     1      -4.075   2.436   2.343  0.00  0.00    -0.506 OA
ATOM     21  H   UNL     1      -4.330   3.332   2.083  0.00  0.00    +0.292 HD
ENDBRANCH   4  20
TORSDOF 5
