REMARK  Name = ZINC13980115
REMARK  14 active torsions:
REMARK  status: ('A' for Active; 'I' for Inactive)
REMARK    1  A    between atoms: C_1  and  C_2
REMARK    2  A    between atoms: C_2  and  C_3
REMARK    3  A    between atoms: C_2  and  C_4
REMARK    4  A    between atoms: C_9  and  O_10
REMARK    5  A    between atoms: O_10  and  C_11
REMARK    6  A    between atoms: C_11  and  C_12
REMARK    7  A    between atoms: N_14  and  N_15
REMARK    8  A    between atoms: N_15  and  C_16
REMARK    9  A    between atoms: C_16  and  N_18
REMARK   10  A    between atoms: C_19  and  C_21
REMARK   11  A    between atoms: C_24  and  C_28
REMARK   12  A    between atoms: C_28  and  C_29
REMARK   13  A    between atoms: C_28  and  C_30
REMARK   14  A    between atoms: C_28  and  C_31
REMARK                            x       y       z     vdW  Elec       q    Type
REMARK                         _______ _______ _______ _____ _____    ______ ____
ROOT
ATOM      1  N   UNL     1       3.562   2.309   0.034  0.00  0.00    -0.245 N 
ATOM      2  H   UNL     1       4.428   1.875  -0.000  0.00  0.00    +0.172 HD
ENDROOT
BRANCH   1   5
ATOM      3  C   UNL     1       4.605   4.433   0.298  0.00  0.00    +0.267 C 
ATOM      4  O   UNL     1       5.689   3.890   0.256  0.00  0.00    -0.271 OA
ATOM      5  N   UNL     1       3.479   3.699   0.193  0.00  0.00    -0.232 N 
ATOM      6  H   UNL     1       2.612   4.133   0.227  0.00  0.00    +0.173 HD
BRANCH   3   7
ATOM      7  C   UNL     1       4.516   5.927   0.469  0.00  0.00    +0.326 C 
BRANCH   7   8
ATOM      8  O   UNL     1       5.833   6.476   0.557  0.00  0.00    -0.482 OA
BRANCH   8  14
ATOM      9  C   UNL     1       7.179   8.421   0.806  0.00  0.00    -0.003 A 
ATOM     10  C   UNL     1       7.277   9.790   0.966  0.00  0.00    +0.007 A 
ATOM     11  C   UNL     1       6.132  10.562   1.034  0.00  0.00    +0.001 A 
ATOM     12  C   UNL     1       4.887   9.967   0.942  0.00  0.00    +0.004 A 
ATOM     13  C   UNL     1       4.785   8.600   0.777  0.00  0.00    +0.046 A 
ATOM     14  C   UNL     1       5.932   7.822   0.714  0.00  0.00    +0.125 A 
BRANCH   9  16
ATOM     15  C   UNL     1       9.276   8.031  -0.458  0.00  0.00    +0.012 C 
ATOM     16  C   UNL     1       8.427   7.580   0.732  0.00  0.00    +0.016 C 
ATOM     17  C   UNL     1       9.231   7.744   2.023  0.00  0.00    +0.012 C 
ENDBRANCH   9  16
ENDBRANCH   8  14
ENDBRANCH   7   8
ENDBRANCH   3   7
ENDBRANCH   1   5
BRANCH   1  18
ATOM     18  C   UNL     1       2.436   1.575  -0.072  0.00  0.00    +0.153 C 
ATOM     19  S   UNL     1       2.537  -0.123  -0.266  0.00  0.00    -0.017 S 
BRANCH  18  20
ATOM     20  N   UNL     1       1.232   2.178  -0.025  0.00  0.00    -0.263 N 
ATOM     21  C   UNL     1       0.106   1.444  -0.130  0.00  0.00    +0.250 C 
ATOM     22  O   UNL     1       0.177   0.239  -0.268  0.00  0.00    -0.270 OA
ATOM     23  H   UNL     1       1.175   3.140   0.085  0.00  0.00    +0.157 HD
BRANCH  21  24
ATOM     24  C   UNL     1      -1.214   2.106  -0.085  0.00  0.00    +0.038 A 
ATOM     25  C   UNL     1      -1.300   3.490   0.079  0.00  0.00    +0.013 A 
ATOM     26  C   UNL     1      -2.535   4.102   0.115  0.00  0.00    +0.006 A 
ATOM     27  C   UNL     1      -3.689   3.347   0.001  0.00  0.00    -0.028 A 
ATOM     28  C   UNL     1      -3.612   1.974  -0.156  0.00  0.00    +0.022 A 
ATOM     29  C   UNL     1      -2.382   1.349  -0.200  0.00  0.00    +0.028 A 
ATOM     30 BR   UNL     1      -5.195   0.951  -0.312  0.00  0.00    -0.050 Br
BRANCH  27  31
ATOM     31  C   UNL     1      -5.036   4.022   0.048  0.00  0.00    -0.012 C 
ATOM     32  C   UNL     1      -4.844   5.531   0.210  0.00  0.00    +0.015 C 
ATOM     33  C   UNL     1      -5.792   3.741  -1.252  0.00  0.00    +0.015 C 
ATOM     34  C   UNL     1      -5.838   3.479   1.232  0.00  0.00    +0.015 C 
ENDBRANCH  27  31
ENDBRANCH  21  24
ENDBRANCH  18  20
ENDBRANCH   1  18
TORSDOF 9
