REMARK  Name = ZINC26371850
REMARK  13 active torsions:
REMARK  status: ('A' for Active; 'I' for Inactive)
REMARK    1  A    between atoms: C_1  and  C_2
REMARK    2  A    between atoms: C_4  and  C_33
REMARK    3  A    between atoms: C_5  and  N_9
REMARK    4  A    between atoms: C_6  and  C_8
REMARK    5  A    between atoms: C_10  and  C_12
REMARK    6  A    between atoms: C_12  and  N_13
REMARK    7  A    between atoms: N_13  and  C_14
REMARK    8  A    between atoms: N_13  and  C_15
REMARK    9  A    between atoms: C_15  and  C_17
REMARK   10  A    between atoms: C_15  and  C_18
REMARK   11  A    between atoms: N_20  and  C_21
REMARK   12  A    between atoms: C_21  and  C_23
REMARK   13  A    between atoms: C_21  and  C_24
REMARK                            x       y       z     vdW  Elec       q    Type
REMARK                         _______ _______ _______ _____ _____    ______ ____
ROOT
ATOM      1  N   UNL     1       1.027   1.791   0.846  0.00  0.00    +0.391 N 
ATOM      2  C   UNL     1       2.102   1.365  -0.060  0.00  0.00    -0.094 C 
ATOM      3  H   UNL     1       0.067   1.503   0.392  0.00  0.00    -0.080 HD
ENDROOT
BRANCH   1   4
ATOM      4  C   UNL     1       1.027   3.251   1.013  0.00  0.00    +0.016 C 
ATOM      5  C   UNL     1       2.186   3.659   1.924  0.00  0.00    -0.004 C 
BRANCH   4   6
ATOM      6  C   UNL     1      -0.276   3.686   1.632  0.00  0.00    +0.200 C 
ATOM      7  O   UNL     1      -1.044   2.858   2.074  0.00  0.00    -0.278 OA
ATOM      8  N   UNL     1      -0.588   4.996   1.695  0.00  0.00    -0.307 N 
ATOM      9  H   UNL     1       0.109   5.747   1.294  0.00  0.00    +0.149 HD
BRANCH   8  10
ATOM     10  C   UNL     1      -1.855   5.419   2.296  0.00  0.00    +0.136 C 
ATOM     11  C   UNL     1      -1.685   5.537   3.812  0.00  0.00    +0.036 C 
BRANCH  10  12
ATOM     12  C   UNL     1      -2.258   6.756   1.730  0.00  0.00    +0.126 A 
ATOM     13  C   UNL     1      -3.509   7.105   1.403  0.00  0.00    +0.055 A 
ATOM     14  C   UNL     1      -3.432   8.482   0.899  0.00  0.00    +0.020 A 
ATOM     15  C   UNL     1      -4.365   9.395   0.410  0.00  0.00    +0.011 A 
ATOM     16  C   UNL     1      -3.954  10.636   0.009  0.00  0.00    +0.001 A 
ATOM     17  C   UNL     1      -2.615  10.990   0.085  0.00  0.00    +0.004 A 
ATOM     18  C   UNL     1      -1.677  10.100   0.565  0.00  0.00    +0.047 A 
ATOM     19  C   UNL     1      -2.075   8.835   0.978  0.00  0.00    +0.135 A 
ATOM     20  O   UNL     1      -1.414   7.774   1.485  0.00  0.00    -0.458 OA
ENDBRANCH  10  12
ENDBRANCH   8  10
ENDBRANCH   4   6
ENDBRANCH   1   4
BRANCH   1  21
ATOM     21  C   UNL     1       1.133   1.113   2.145  0.00  0.00    +0.020 C 
BRANCH  21  23
ATOM     22  N   UNL     1       0.930  -1.189   3.026  0.00  0.00    -0.287 N 
ATOM     23  C   UNL     1       0.884  -0.362   1.963  0.00  0.00    +0.201 C 
ATOM     24  O   UNL     1       0.642  -0.805   0.860  0.00  0.00    -0.278 OA
ATOM     25  H   UNL     1       1.078  -0.779   4.036  0.00  0.00    +0.155 HD
BRANCH  22  30
ATOM     26  C   UNL     1       0.361  -6.786   2.291  0.00  0.00    +0.044 C 
ATOM     27  C   UNL     1       0.512  -5.299   2.486  0.00  0.00    -0.050 A 
ATOM     28  C   UNL     1       1.631  -4.798   3.125  0.00  0.00    +0.008 A 
ATOM     29  C   UNL     1       1.773  -3.436   3.305  0.00  0.00    -0.029 A 
ATOM     30  C   UNL     1       0.789  -2.570   2.845  0.00  0.00    +0.039 A 
ATOM     31  C   UNL     1      -0.336  -3.077   2.209  0.00  0.00    -0.029 A 
ATOM     32  C   UNL     1      -0.469  -4.440   2.026  0.00  0.00    +0.008 A 
ATOM     33  C   UNL     1      -1.409  -2.142   1.713  0.00  0.00    +0.045 C 
ATOM     34  C   UNL     1       2.993  -2.890   4.002  0.00  0.00    +0.045 C 
ENDBRANCH  22  30
ENDBRANCH  21  23
ENDBRANCH   1  21
TORSDOF 7
