REMARK  Name = ZINC06276897
REMARK  5 active torsions:
REMARK  status: ('A' for Active; 'I' for Inactive)
REMARK    1  A    between atoms: C_4  and  N_7
REMARK    2  A    between atoms: N_7  and  C_8
REMARK    3  A    between atoms: C_8  and  N_10
REMARK    4  A    between atoms: N_10  and  N_11
REMARK    5  A    between atoms: N_11  and  C_12
REMARK                            x       y       z     vdW  Elec       q    Type
REMARK                         _______ _______ _______ _____ _____    ______ ____
ROOT
ATOM      1  N   UNL     1       2.363   5.244  -0.124  0.00  0.00    -0.248 N 
ATOM      2  H   UNL     1       1.517   5.718  -0.138  0.00  0.00    +0.172 HD
ENDROOT
BRANCH   1   3
ATOM      3  C   UNL     1       3.520   5.925  -0.244  0.00  0.00    +0.151 C 
ATOM      4  S   UNL     1       3.496   7.627  -0.423  0.00  0.00    -0.017 S 
BRANCH   3   5
ATOM      5  N   UNL     1       4.695   5.265  -0.224  0.00  0.00    -0.296 N 
ATOM      6  H   UNL     1       4.707   4.295  -0.205  0.00  0.00    +0.154 HD
BRANCH   5  10
ATOM      7  C   UNL     1       8.277   7.392  -0.244  0.00  0.00    +0.000 A 
ATOM      8  C   UNL     1       7.222   7.825   0.538  0.00  0.00    +0.002 A 
ATOM      9  C   UNL     1       6.033   7.122   0.547  0.00  0.00    +0.023 A 
ATOM     10  C   UNL     1       5.898   5.979  -0.231  0.00  0.00    +0.033 A 
ATOM     11  C   UNL     1       6.961   5.544  -1.011  0.00  0.00    +0.023 A 
ATOM     12  C   UNL     1       8.146   6.255  -1.020  0.00  0.00    +0.002 A 
ENDBRANCH   5  10
ENDBRANCH   3   5
ENDBRANCH   1   3
BRANCH   1  13
ATOM     13  N   UNL     1       2.382   3.850   0.023  0.00  0.00    -0.262 N 
ATOM     14  H   UNL     1       3.228   3.384   0.118  0.00  0.00    +0.170 HD
BRANCH  13  15
ATOM     15  C   UNL     1       1.182   3.131   0.032  0.00  0.00    +0.081 A 
ATOM     16  C   UNL     1       0.124   3.532  -0.775  0.00  0.00    +0.066 A 
ATOM     17  C   UNL     1      -1.060   2.820  -0.763  0.00  0.00    +0.042 A 
ATOM     18  C   UNL     1      -1.195   1.712   0.055  0.00  0.00    +0.044 A 
ATOM     19  C   UNL     1      -0.141   1.307   0.855  0.00  0.00    +0.042 A 
ATOM     20  C   UNL     1       1.046   2.015   0.848  0.00  0.00    +0.066 A 
ATOM     21 CL   UNL     1       2.365   1.510   1.857  0.00  0.00    -0.081 Cl
ATOM     22 CL   UNL     1      -2.687   0.824   0.072  0.00  0.00    -0.083 Cl
ATOM     23 CL   UNL     1       0.290   4.927  -1.795  0.00  0.00    -0.081 Cl
ENDBRANCH  13  15
ENDBRANCH   1  13
TORSDOF 5
