REMARK  Name = ZINC23630705
REMARK  7 active torsions:
REMARK  status: ('A' for Active; 'I' for Inactive)
REMARK    1  A    between atoms: C_1  and  C_2
REMARK    2  A    between atoms: C_5  and  S_8
REMARK    3  A    between atoms: N_6  and  N_7
REMARK    4  A    between atoms: S_8  and  C_9
REMARK    5  A    between atoms: C_9  and  C_10
REMARK    6  A    between atoms: N_15  and  C_16
REMARK    7  A    between atoms: C_22  and  C_24
REMARK                            x       y       z     vdW  Elec       q    Type
REMARK                         _______ _______ _______ _____ _____    ______ ____
ROOT
ATOM      1  C   UNL     1       1.302   4.950  -4.513  0.00  0.00    +0.231 C 
ATOM      2  O   UNL     1       2.126   5.654  -3.969  0.00  0.00    -0.274 OA
ATOM      3  N   UNL     1       1.037   3.722  -4.025  0.00  0.00    -0.239 N 
ATOM      4  C   UNL     1       1.689   3.276  -2.933  0.00  0.00    +0.306 C 
ATOM      5  O   UNL     1       2.515   3.981  -2.389  0.00  0.00    -0.252 OA
ATOM      6  N   UNL     1       1.424   2.047  -2.446  0.00  0.00    -0.296 N 
ATOM      7  H   UNL     1       0.289   3.084  -4.519  0.00  0.00    +0.159 HD
ATOM      8  H   UNL     1       0.676   1.409  -2.939  0.00  0.00    +0.151 HD
ENDROOT
BRANCH   6   9
ATOM      9  C   UNL     1       2.133   1.562  -1.259  0.00  0.00    +0.077 C 
ATOM     10  C   UNL     1       1.417   2.055  -0.000  0.00  0.00    +0.022 C 
ATOM     11  C   UNL     1      -0.019   1.526   0.010  0.00  0.00    +0.002 C 
ATOM     12  C   UNL     1       0.002  -0.004   0.002  0.00  0.00    +0.000 C 
ATOM     13  C   UNL     1       0.718  -0.497  -1.257  0.00  0.00    +0.005 C 
ATOM     14  C   UNL     1       2.154   0.032  -1.268  0.00  0.00    +0.006 C 
ATOM     15  C   UNL     1       2.870  -0.461  -2.526  0.00  0.00    +0.009 C 
ENDBRANCH   6   9
BRANCH   1  16
ATOM     16  C   UNL     1       0.573   5.450  -5.734  0.00  0.00    +0.173 C 
BRANCH  16  17
ATOM     17  S   UNL     1       1.144   7.119  -6.137  0.00  0.00    -0.075 S 
BRANCH  17  22
ATOM     18  C   UNL     1      -1.123   9.360 -10.389  0.00  0.00    +0.090 C 
ATOM     19  C   UNL     1      -0.757   8.386  -9.299  0.00  0.00    +0.148 A 
ATOM     20  N   UNL     1      -1.259   7.196  -9.126  0.00  0.00    -0.132 NA
ATOM     21  N   UNL     1      -0.724   6.636  -8.101  0.00  0.00    -0.121 NA
ATOM     22  C   UNL     1       0.157   7.445  -7.560  0.00  0.00    +0.209 A 
ATOM     23  N   UNL     1       0.158   8.590  -8.304  0.00  0.00    -0.228 N 
BRANCH  23  24
ATOM     24  N   UNL     1       0.919   9.706  -8.099  0.00  0.00    -0.295 N 
ATOM     25  H   UNL     1       1.624   9.744  -7.255  0.00  0.00    +0.163 HD
ATOM     26  H   UNL     1       0.827  10.566  -8.778  0.00  0.00    +0.163 HD
ENDBRANCH  23  24
ENDBRANCH  17  22
ENDBRANCH  16  17
ENDBRANCH   1  16
TORSDOF 5
