REMARK  Name = ZINC65577758
REMARK  4 active torsions:
REMARK  status: ('A' for Active; 'I' for Inactive)
REMARK    1  A    between atoms: C_1  and  C_2
REMARK    2  A    between atoms: C_2  and  C_16
REMARK    3  A    between atoms: N_5  and  C_9
REMARK    4  A    between atoms: C_9  and  C_10
REMARK                            x       y       z     vdW  Elec       q    Type
REMARK                         _______ _______ _______ _____ _____    ______ ____
ROOT
ATOM      1  C   UNL     1      -0.019   1.526   0.010  0.00  0.00    +0.047 C 
ATOM      2  C   UNL     1       0.002  -0.004   0.002  0.00  0.00    +0.136 C 
ATOM      3  C   UNL     1       0.815  -0.520  -1.169  0.00  0.00    +0.251 C 
ATOM      4  O   UNL     1       0.595  -0.342  -2.348  0.00  0.00    -0.272 OA
ATOM      5  N   UNL     1       1.833  -1.217  -0.627  0.00  0.00    -0.215 N 
ATOM      6  C   UNL     1       1.777  -1.214   0.710  0.00  0.00    +0.310 C 
ATOM      7  O   UNL     1       2.586  -1.776   1.421  0.00  0.00    -0.252 OA
ATOM      8  N   UNL     1       0.724  -0.519   1.178  0.00  0.00    -0.281 N 
ATOM      9  H   UNL     1       0.487  -0.383   2.109  0.00  0.00    +0.152 HD
ENDROOT
BRANCH   2  10
ATOM     10  C   UNL     1      -1.401  -0.551  -0.040  0.00  0.00    +0.003 A 
ATOM     11  C   UNL     1      -1.863  -1.350   0.990  0.00  0.00    +0.010 A 
ATOM     12  C   UNL     1      -3.149  -1.853   0.953  0.00  0.00    +0.039 A 
ATOM     13  C   UNL     1      -3.978  -1.557  -0.117  0.00  0.00    +0.125 A 
ATOM     14  C   UNL     1      -3.516  -0.757  -1.148  0.00  0.00    +0.058 A 
ATOM     15  C   UNL     1      -2.229  -0.250  -1.107  0.00  0.00    +0.049 A 
ATOM     16 CL   UNL     1      -1.651   0.758  -2.396  0.00  0.00    -0.083 Cl
ATOM     17  F   UNL     1      -5.235  -2.049  -0.154  0.00  0.00    -0.205 F 
ENDBRANCH   2  10
BRANCH   5  18
ATOM     18  C   UNL     1       2.871  -1.896  -1.406  0.00  0.00    +0.214 C 
BRANCH  18  19
ATOM     19  C   UNL     1       4.020  -0.950  -1.644  0.00  0.00    +0.238 C 
ATOM     20  O   UNL     1       3.975   0.180  -1.206  0.00  0.00    -0.274 OA
ATOM     21  N   UNL     1       5.097  -1.360  -2.343  0.00  0.00    -0.239 N 
ATOM     22  C   UNL     1       6.124  -0.513  -2.555  0.00  0.00    +0.303 C 
ATOM     23  O   UNL     1       6.079   0.619  -2.117  0.00  0.00    -0.253 OA
ATOM     24  N   UNL     1       7.201  -0.923  -3.255  0.00  0.00    -0.313 N 
ATOM     25  H   UNL     1       5.133  -2.264  -2.693  0.00  0.00    +0.159 HD
ATOM     26  H   UNL     1       7.237  -1.827  -3.605  0.00  0.00    +0.146 HD
ATOM     27  H   UNL     1       7.940  -0.314  -3.408  0.00  0.00    +0.146 HD
ENDBRANCH  18  19
ENDBRANCH   5  18
TORSDOF 3
