REMARK  Name = ZINC00537699
REMARK  8 active torsions:
REMARK  status: ('A' for Active; 'I' for Inactive)
REMARK    1  A    between atoms: C_1  and  C_2
REMARK    2  A    between atoms: C_5  and  C_19
REMARK    3  A    between atoms: C_6  and  N_8
REMARK    4  A    between atoms: N_11  and  C_12
REMARK    5  A    between atoms: C_12  and  C_14
REMARK    6  A    between atoms: C_12  and  C_15
REMARK    7  A    between atoms: C_15  and  O_17
REMARK    8  A    between atoms: O_17  and  C_18
REMARK                            x       y       z     vdW  Elec       q    Type
REMARK                         _______ _______ _______ _____ _____    ______ ____
ROOT
ATOM      1  N   UNL     1      -4.649   0.435  -0.467  0.00  0.00    -0.269 N 
ATOM      2  C   UNL     1      -3.638   1.326  -0.463  0.00  0.00    +0.305 C 
ATOM      3  O   UNL     1      -3.810   2.444  -0.909  0.00  0.00    -0.252 OA
ATOM      4  N   UNL     1      -2.434   0.977   0.034  0.00  0.00    -0.286 N 
ATOM      5  H   UNL     1      -4.490  -0.480  -0.188  0.00  0.00    +0.156 HD
ATOM      6  H   UNL     1      -2.297   0.085   0.389  0.00  0.00    +0.151 HD
ENDROOT
BRANCH   1  12
ATOM      7  C   UNL     1      -7.982   3.998  -1.079  0.00  0.00    +0.044 C 
ATOM      8  C   UNL     1      -7.570   2.552  -1.181  0.00  0.00    -0.049 A 
ATOM      9  C   UNL     1      -8.458   1.614  -1.677  0.00  0.00    +0.004 A 
ATOM     10  C   UNL     1      -8.084   0.286  -1.771  0.00  0.00    +0.005 A 
ATOM     11  C   UNL     1      -6.820  -0.107  -1.376  0.00  0.00    -0.029 A 
ATOM     12  C   UNL     1      -5.928   0.831  -0.873  0.00  0.00    +0.038 A 
ATOM     13  C   UNL     1      -6.307   2.164  -0.779  0.00  0.00    +0.027 A 
ATOM     14  C   UNL     1      -6.411  -1.553  -1.486  0.00  0.00    +0.045 C 
ENDBRANCH   1  12
BRANCH   4  15
ATOM     15  C   UNL     1      -1.335   1.945   0.038  0.00  0.00    +0.180 C 
ATOM     16  C   UNL     1      -1.433   2.823   1.287  0.00  0.00    +0.040 C 
BRANCH  15  17
ATOM     17  C   UNL     1      -0.019   1.211   0.042  0.00  0.00    +0.327 C 
ATOM     18  O   UNL     1      -0.002   0.003   0.042  0.00  0.00    -0.249 OA
BRANCH  17  19
ATOM     19  O   UNL     1       1.134   1.899   0.041  0.00  0.00    -0.467 OA
ATOM     20  C   UNL     1       2.363   1.126   0.038  0.00  0.00    +0.280 C 
ENDBRANCH  17  19
ENDBRANCH  15  17
ENDBRANCH   4  15
TORSDOF 4
