REMARK  Name = ZINC64711976
REMARK  8 active torsions:
REMARK  status: ('A' for Active; 'I' for Inactive)
REMARK    1  A    between atoms: C_1  and  C_2
REMARK    2  A    between atoms: C_2  and  C_3
REMARK    3  A    between atoms: C_6  and  C_9
REMARK    4  A    between atoms: C_9  and  N_10
REMARK    5  A    between atoms: C_11  and  C_13
REMARK    6  A    between atoms: N_18  and  S_20
REMARK    7  A    between atoms: S_20  and  C_23
REMARK    8  A    between atoms: C_27  and  C_30
REMARK                            x       y       z     vdW  Elec       q    Type
REMARK                         _______ _______ _______ _____ _____    ______ ____
ROOT
ATOM      1  C   UNL     1       4.263   0.268  -7.522  0.00  0.00    +0.091 C 
ATOM      2  C   UNL     1       5.224   1.122  -6.692  0.00  0.00    +0.015 C 
ATOM      3  C   UNL     1       5.661   2.341  -7.508  0.00  0.00    +0.018 C 
ATOM      4  C   UNL     1       6.396   1.870  -8.767  0.00  0.00    +0.109 C 
ATOM      5  N   UNL     1       5.531   0.933  -9.497  0.00  0.00    -0.178 NA
ATOM      6  C   UNL     1       4.981  -0.226  -8.781  0.00  0.00    +0.122 C 
ENDROOT
BRANCH   1   8
ATOM      7  N   UNL     1       3.149  -0.719  -5.546  0.00  0.00    -0.311 N 
ATOM      8  C   UNL     1       3.808  -0.914  -6.705  0.00  0.00    +0.218 C 
ATOM      9  O   UNL     1       4.034  -2.041  -7.092  0.00  0.00    -0.275 OA
ATOM     10  H   UNL     1       2.969   0.182  -5.236  0.00  0.00    +0.149 HD
BRANCH   7  11
ATOM     11  C   UNL     1       2.707  -1.868  -4.752  0.00  0.00    +0.139 C 
BRANCH  11  15
ATOM     12  C   UNL     1       0.707  -0.490  -1.238  0.00  0.00    -0.048 A 
ATOM     13  C   UNL     1      -0.011  -0.719  -2.397  0.00  0.00    +0.004 A 
ATOM     14  C   UNL     1       0.636  -1.164  -3.534  0.00  0.00    +0.005 A 
ATOM     15  C   UNL     1       2.002  -1.381  -3.513  0.00  0.00    -0.030 A 
ATOM     16  C   UNL     1       2.720  -1.152  -2.354  0.00  0.00    +0.005 A 
ATOM     17  C   UNL     1       2.073  -0.702  -1.218  0.00  0.00    +0.004 A 
BRANCH  12  19
ATOM     18  C   UNL     1      -0.019   1.526   0.010  0.00  0.00    +0.009 C 
ATOM     19  C   UNL     1       0.002  -0.004   0.002  0.00  0.00    +0.032 C 
ENDBRANCH  12  19
ENDBRANCH  11  15
ENDBRANCH   7  11
ENDBRANCH   1   8
BRANCH   5  20
ATOM     20  S   UNL     1       5.183   1.179 -11.097  0.00  0.00    +0.063 S 
ATOM     21  O   UNL     1       3.932   0.535 -11.299  0.00  0.00    -0.155 OA
ATOM     22  O   UNL     1       5.314   2.581 -11.286  0.00  0.00    -0.155 OA
BRANCH  20  23
ATOM     23  C   UNL     1       6.490   0.302 -11.999  0.00  0.00    +0.301 C 
ATOM     24  C   UNL     1       6.269   0.428 -13.490  0.00  0.00    +0.027 C 
ATOM     25  C   UNL     1       6.476  -0.746 -14.039  0.00  0.00    +0.007 C 
ATOM     26  C   UNL     1       6.847  -1.724 -12.947  0.00  0.00    +0.174 C 
ATOM     27  O   UNL     1       6.433  -1.108 -11.712  0.00  0.00    -0.340 OA
BRANCH  26  28
ATOM     28  C   UNL     1       6.110  -3.049 -13.152  0.00  0.00    +0.185 C 
ATOM     29  C   UNL     1       6.519  -4.061 -12.096  0.00  0.00    +0.025 C 
ATOM     30  C   UNL     1       7.069  -5.054 -12.798  0.00  0.00    +0.132 C 
ATOM     31  N   UNL     1       7.045  -4.777 -14.121  0.00  0.00    -0.162 NA
ATOM     32  N   UNL     1       6.530  -3.690 -14.410  0.00  0.00    -0.177 NA
ENDBRANCH  26  28
ENDBRANCH  20  23
ENDBRANCH   5  20
TORSDOF 7
