REMARK  Name = ZINC08190753
REMARK  7 active torsions:
REMARK  status: ('A' for Active; 'I' for Inactive)
REMARK    1  A    between atoms: C_1  and  C_2
REMARK    2  A    between atoms: C_7  and  O_8
REMARK    3  A    between atoms: O_8  and  C_9
REMARK    4  A    between atoms: C_9  and  C_11
REMARK    5  A    between atoms: C_9  and  C_12
REMARK    6  A    between atoms: N_14  and  C_15
REMARK    7  A    between atoms: C_18  and  C_21
REMARK                            x       y       z     vdW  Elec       q    Type
REMARK                         _______ _______ _______ _____ _____    ______ ____
ROOT
ATOM      1  C   UNL     1      -0.733   0.006   4.675  0.00  0.00    +0.258 C 
ATOM      2  O   UNL     1      -1.062   1.158   4.488  0.00  0.00    -0.271 OA
ATOM      3  N   UNL     1      -1.085  -0.619   5.817  0.00  0.00    -0.282 N 
ATOM      4  H   UNL     1      -0.761  -1.514   6.000  0.00  0.00    +0.155 HD
ENDROOT
BRANCH   3   5
ATOM      5  C   UNL     1      -1.917   0.024   6.736  0.00  0.00    +0.034 A 
ATOM      6  C   UNL     1      -2.907   0.891   6.288  0.00  0.00    +0.024 A 
ATOM      7  C   UNL     1      -3.729   1.527   7.192  0.00  0.00    +0.015 A 
ATOM      8  C   UNL     1      -3.567   1.300   8.561  0.00  0.00    +0.037 A 
ATOM      9  C   UNL     1      -2.571   0.428   9.008  0.00  0.00    +0.015 A 
ATOM     10  C   UNL     1      -1.756  -0.208   8.098  0.00  0.00    +0.024 A 
BRANCH   8  11
ATOM     11  C   UNL     1      -4.446   1.980   9.533  0.00  0.00    +0.228 A 
ATOM     12  N   UNL     1      -5.410   2.809   9.221  0.00  0.00    -0.209 NA
ATOM     13  C   UNL     1      -6.004   3.238  10.365  0.00  0.00    +0.110 A 
ATOM     14  C   UNL     1      -7.061   4.111  10.634  0.00  0.00    +0.031 A 
ATOM     15  C   UNL     1      -7.436   4.347  11.938  0.00  0.00    +0.002 A 
ATOM     16  C   UNL     1      -6.771   3.725  12.984  0.00  0.00    +0.004 A 
ATOM     17  C   UNL     1      -5.724   2.862  12.733  0.00  0.00    +0.048 A 
ATOM     18  C   UNL     1      -5.333   2.611  11.427  0.00  0.00    +0.156 A 
ATOM     19  O   UNL     1      -4.377   1.834  10.870  0.00  0.00    -0.435 OA
ENDBRANCH   8  11
ENDBRANCH   3   5
BRANCH   1  20
ATOM     20  C   UNL     1       0.070  -0.728   3.632  0.00  0.00    +0.256 C 
ATOM     21  C   UNL     1       1.403  -1.175   4.235  0.00  0.00    +0.062 C 
BRANCH  20  22
ATOM     22  O   UNL     1       0.315   0.139   2.523  0.00  0.00    -0.480 OA
BRANCH  22  29
ATOM     23  C   UNL     1       0.549   1.830   0.273  0.00  0.00    +0.047 C 
ATOM     24  C   UNL     1       0.665   0.331   0.178  0.00  0.00    -0.007 A 
ATOM     25  C   UNL     1       0.901  -0.268  -1.045  0.00  0.00    +0.027 A 
ATOM     26  C   UNL     1       1.008  -1.644  -1.133  0.00  0.00    +0.041 A 
ATOM     27  C   UNL     1       0.878  -2.424   0.003  0.00  0.00    +0.023 A 
ATOM     28  C   UNL     1       0.643  -1.829   1.227  0.00  0.00    +0.047 A 
ATOM     29  C   UNL     1       0.541  -0.449   1.318  0.00  0.00    +0.125 A 
ATOM     30 CL   UNL     1       1.303  -2.394  -2.670  0.00  0.00    -0.084 Cl
ENDBRANCH  22  29
ENDBRANCH  20  22
ENDBRANCH   1  20
TORSDOF 5
