REMARK  Name = ZINC06631718
REMARK  15 active torsions:
REMARK  status: ('A' for Active; 'I' for Inactive)
REMARK    1  A    between atoms: C_1  and  C_2
REMARK    2  A    between atoms: C_2  and  C_3
REMARK    3  A    between atoms: C_3  and  C_5
REMARK    4  A    between atoms: C_3  and  N_13
REMARK    5  A    between atoms: N_7  and  C_8
REMARK    6  A    between atoms: N_13  and  C_14
REMARK    7  A    between atoms: C_14  and  C_15
REMARK    8  A    between atoms: C_15  and  C_16
REMARK    9  A    between atoms: C_19  and  O_24
REMARK   10  A    between atoms: C_20  and  O_22
REMARK   11  A    between atoms: O_22  and  C_23
REMARK   12  A    between atoms: O_24  and  C_25
REMARK   13  A    between atoms: C_26  and  C_28
REMARK   14  A    between atoms: C_29  and  N_36
REMARK   15  A    between atoms: C_30  and  C_33
REMARK                            x       y       z     vdW  Elec       q    Type
REMARK                         _______ _______ _______ _____ _____    ______ ____
ROOT
ATOM      1  N   UNL     1      -3.951   4.912  -1.329  0.00  0.00    -0.285 N 
ATOM      2  C   UNL     1      -4.933   3.996  -1.207  0.00  0.00    +0.257 C 
ATOM      3  O   UNL     1      -6.096   4.351  -1.176  0.00  0.00    -0.269 OA
ENDROOT
BRANCH   2   4
ATOM      4  C   UNL     1      -4.599   2.573  -1.114  0.00  0.00    +0.115 A 
ATOM      5  C   UNL     1      -5.446   1.464  -1.113  0.00  0.00    +0.076 A 
ATOM      6  C   UNL     1      -4.749   0.260  -1.011  0.00  0.00    +0.155 A 
ATOM      7  N   UNL     1      -3.438   0.281  -0.919  0.00  0.00    -0.203 NA
ATOM      8  S   UNL     1      -3.004   1.796  -0.963  0.00  0.00    +0.019 S 
BRANCH   6   9
ATOM      9  C   UNL     1      -5.476  -1.023  -0.999  0.00  0.00    +0.262 C 
ATOM     10  O   UNL     1      -6.689  -1.035  -1.084  0.00  0.00    -0.269 OA
ATOM     11  N   UNL     1      -4.796  -2.182  -0.894  0.00  0.00    -0.324 N 
ATOM     12  H   UNL     1      -3.828  -2.172  -0.827  0.00  0.00    +0.145 HD
ATOM     13  H   UNL     1      -5.274  -3.026  -0.887  0.00  0.00    +0.145 HD
ENDBRANCH   6   9
BRANCH   5  14
ATOM     14  N   UNL     1      -6.829   1.549  -1.207  0.00  0.00    -0.355 N 
ATOM     15  H   UNL     1      -7.257   2.416  -1.278  0.00  0.00    +0.142 HD
ATOM     16  H   UNL     1      -7.366   0.742  -1.201  0.00  0.00    +0.142 HD
ENDBRANCH   5  14
ENDBRANCH   2   4
BRANCH   1  17
ATOM     17  C   UNL     1      -4.275   6.340  -1.301  0.00  0.00    +0.162 C 
BRANCH  17  18
ATOM     18  C   UNL     1      -4.950   6.678   0.003  0.00  0.00    +0.234 C 
ATOM     19  O   UNL     1      -5.141   5.810   0.829  0.00  0.00    -0.274 OA
ATOM     20  N   UNL     1      -5.341   7.943   0.253  0.00  0.00    -0.311 N 
ATOM     21  H   UNL     1      -5.187   8.637  -0.407  0.00  0.00    +0.149 HD
BRANCH  20  22
ATOM     22  C   UNL     1      -5.997   8.271   1.521  0.00  0.00    +0.073 C 
ATOM     23  C   UNL     1      -7.519   8.056   1.400  0.00  0.00    +0.022 C 
ATOM     24  C   UNL     1      -8.133   9.207   2.235  0.00  0.00    +0.002 C 
ATOM     25  C   UNL     1      -7.191  10.396   1.922  0.00  0.00    +0.002 C 
ATOM     26  C   UNL     1      -5.788   9.759   1.853  0.00  0.00    +0.022 C 
ENDBRANCH  20  22
ENDBRANCH  17  18
BRANCH  17  28
ATOM     27  C   UNL     1      -4.482   6.460  -3.788  0.00  0.00    +0.006 C 
ATOM     28  C   UNL     1      -5.215   6.673  -2.462  0.00  0.00    +0.028 C 
ENDBRANCH  17  28
ENDBRANCH   1  17
BRANCH   1  29
ATOM     29  C   UNL     1      -2.561   4.479  -1.488  0.00  0.00    +0.113 C 
BRANCH  29  30
ATOM     30  C   UNL     1      -1.888   4.410  -0.116  0.00  0.00    +0.054 C 
BRANCH  30  31
ATOM     31  C   UNL     1      -0.457   3.965  -0.280  0.00  0.00    -0.042 A 
ATOM     32  C   UNL     1      -0.147   2.618  -0.251  0.00  0.00    +0.007 A 
ATOM     33  C   UNL     1       1.165   2.204  -0.396  0.00  0.00    +0.049 A 
ATOM     34  C   UNL     1       2.169   3.140  -0.582  0.00  0.00    +0.161 A 
ATOM     35  C   UNL     1       1.856   4.495  -0.617  0.00  0.00    +0.162 A 
ATOM     36  C   UNL     1       0.540   4.903  -0.466  0.00  0.00    +0.053 A 
BRANCH  35  37
ATOM     37  O   UNL     1       2.838   5.418  -0.800  0.00  0.00    -0.491 OA
ATOM     38  C   UNL     1       2.443   6.791  -0.825  0.00  0.00    +0.277 C 
ENDBRANCH  35  37
BRANCH  34  39
ATOM     39  O   UNL     1       3.459   2.735  -0.731  0.00  0.00    -0.491 OA
ATOM     40  C   UNL     1       3.706   1.328  -0.684  0.00  0.00    +0.277 C 
ENDBRANCH  34  39
ENDBRANCH  30  31
ENDBRANCH  29  30
ENDBRANCH   1  29
TORSDOF 12
