REMARK  Name = ZINC37629053
REMARK  7 active torsions:
REMARK  status: ('A' for Active; 'I' for Inactive)
REMARK    1  A    between atoms: C_1  and  C_2
REMARK    2  A    between atoms: C_4  and  N_18
REMARK    3  A    between atoms: C_7  and  N_8
REMARK    4  A    between atoms: C_9  and  C_11
REMARK    5  A    between atoms: C_11  and  C_13
REMARK    6  A    between atoms: C_11  and  N_17
REMARK    7  A    between atoms: C_13  and  C_14
REMARK                            x       y       z     vdW  Elec       q    Type
REMARK                         _______ _______ _______ _____ _____    ______ ____
ROOT
ATOM      1  N   UNL     1       0.025  -0.015   2.417  0.00  0.00    -0.287 N 
ATOM      2  C   UNL     1      -0.057  -0.694   3.578  0.00  0.00    +0.203 C 
ATOM      3  O   UNL     1      -0.040  -1.907   3.573  0.00  0.00    -0.277 OA
ATOM      4  H   UNL     1       0.077   0.954   2.425  0.00  0.00    +0.155 HD
ENDROOT
BRANCH   1  11
ATOM      5  C   UNL     1      -1.265   1.183   0.181  0.00  0.00    +0.046 C 
ATOM      6  C   UNL     1      -0.584  -0.158   0.084  0.00  0.00    -0.027 A 
ATOM      7  C   UNL     1      -0.569  -0.841  -1.117  0.00  0.00    +0.038 A 
ATOM      8  C   UNL     1       0.056  -2.071  -1.206  0.00  0.00    +0.127 A 
ATOM      9  C   UNL     1       0.667  -2.622  -0.095  0.00  0.00    +0.034 A 
ATOM     10  C   UNL     1       0.656  -1.944   1.109  0.00  0.00    +0.026 A 
ATOM     11  C   UNL     1       0.034  -0.706   1.201  0.00  0.00    +0.036 A 
BRANCH   8  12
ATOM     12  N   UNL     1       0.070  -2.800  -2.494  0.00  0.00    +0.056 N 
ATOM     13  O   UNL     1      -0.465  -2.320  -3.466  0.00  0.00    -0.126 OA
ATOM     14  O   UNL     1       0.616  -3.876  -2.574  0.00  0.00    -0.126 OA
ENDBRANCH   8  12
ENDBRANCH   1  11
BRANCH   2  15
ATOM     15  C   UNL     1      -0.169   0.052   4.882  0.00  0.00    +0.022 C 
BRANCH  15  16
ATOM     16  N   UNL     1      -0.712  -0.842   5.913  0.00  0.00    +0.386 N 
ATOM     17  H   UNL     1      -0.098  -1.633   6.030  0.00  0.00    -0.089 HD
ATOM     18  H   UNL     1      -0.787  -0.342   6.786  0.00  0.00    -0.089 HD
ATOM     19  H   UNL     1      -1.626  -1.164   5.631  0.00  0.00    -0.089 HD
ENDBRANCH  15  16
BRANCH  15  20
ATOM     20  C   UNL     1       1.216   0.542   5.310  0.00  0.00    +0.088 C 
BRANCH  20  21
ATOM     21  C   UNL     1       1.088   1.392   6.548  0.00  0.00    +0.209 C 
ATOM     22  O   UNL     1      -0.003   1.587   7.039  0.00  0.00    -0.276 OA
ATOM     23  N   UNL     1       2.187   1.935   7.109  0.00  0.00    -0.329 N 
ATOM     24  H   UNL     1       3.060   1.779   6.716  0.00  0.00    +0.145 HD
ATOM     25  H   UNL     1       2.105   2.482   7.905  0.00  0.00    +0.145 HD
ENDBRANCH  20  21
ENDBRANCH  15  20
ENDBRANCH   2  15
TORSDOF 6
