REMARK  Name = ZINC63282082
REMARK  8 active torsions:
REMARK  status: ('A' for Active; 'I' for Inactive)
REMARK    1  A    between atoms: C_1  and  O_2
REMARK    2  A    between atoms: O_2  and  C_3
REMARK    3  A    between atoms: C_5  and  C_13
REMARK    4  A    between atoms: C_7  and  O_11
REMARK    5  A    between atoms: C_8  and  O_9
REMARK    6  A    between atoms: O_9  and  C_10
REMARK    7  A    between atoms: O_11  and  C_12
REMARK    8  A    between atoms: C_16  and  C_23
REMARK                            x       y       z     vdW  Elec       q    Type
REMARK                         _______ _______ _______ _____ _____    ______ ____
ROOT
ATOM      1  C   UNL     1      -4.858   0.236   0.038  0.00  0.00    +0.125 C 
ATOM      2  N   UNL     1      -6.082  -0.206   0.051  0.00  0.00    -0.173 NA
ATOM      3  N   UNL     1      -7.179   0.625  -0.023  0.00  0.00    -0.206 N 
ATOM      4  C   UNL     1      -8.616   0.693  -0.376  0.00  0.00    +0.202 C 
ATOM      5  N   UNL     1      -8.800   2.006  -1.038  0.00  0.00    -0.231 NA
ATOM      6  N   UNL     1      -7.504   2.703  -0.955  0.00  0.00    -0.224 NA
ATOM      7  C   UNL     1      -6.862   2.070   0.214  0.00  0.00    +0.240 C 
ATOM      8  S   UNL     1      -5.041   2.013   0.043  0.00  0.00    -0.063 S 
ATOM      9  H   UNL     1      -9.087   1.890  -1.998  0.00  0.00    +0.143 HD
ATOM     10  H   UNL     1      -7.635   3.692  -0.804  0.00  0.00    +0.144 HD
ENDROOT
BRANCH   4  11
ATOM     11  C   UNL     1      -9.475   0.610   0.888  0.00  0.00    +0.141 C 
ATOM     12  C   UNL     1      -9.168  -0.662   1.645  0.00  0.00    +0.010 C 
ATOM     13  C   UNL     1     -10.324  -1.362   1.688  0.00  0.00    -0.004 A 
ATOM     14  C   UNL     1     -10.680  -2.661   2.272  0.00  0.00    +0.010 A 
ATOM     15  C   UNL     1     -11.950  -3.110   2.150  0.00  0.00    +0.001 A 
ATOM     16  C   UNL     1     -12.933  -2.367   1.482  0.00  0.00    +0.002 A 
ATOM     17  C   UNL     1     -12.682  -1.166   0.919  0.00  0.00    +0.026 A 
ATOM     18  C   UNL     1     -11.381  -0.597   0.987  0.00  0.00    +0.043 A 
ATOM     19  N   UNL     1     -10.896   0.533   0.529  0.00  0.00    -0.375 N 
ATOM     20  H   UNL     1     -11.392   1.205   0.036  0.00  0.00    +0.160 HD
ENDBRANCH   4  11
BRANCH   1  23
ATOM     21  C   UNL     1      -1.201  -0.638   0.010  0.00  0.00    +0.166 A 
ATOM     22  C   UNL     1      -2.371   0.100   0.019  0.00  0.00    +0.060 A 
ATOM     23  C   UNL     1      -3.606  -0.551   0.027  0.00  0.00    +0.016 A 
ATOM     24  C   UNL     1      -3.657  -1.945   0.026  0.00  0.00    +0.060 A 
ATOM     25  C   UNL     1      -2.484  -2.679   0.016  0.00  0.00    +0.166 A 
ATOM     26  C   UNL     1      -1.254  -2.028   0.003  0.00  0.00    +0.204 A 
BRANCH  21  28
ATOM     27  C   UNL     1      -0.017   1.425   0.010  0.00  0.00    +0.277 C 
ATOM     28  O   UNL     1       0.002  -0.004   0.002  0.00  0.00    -0.491 OA
ENDBRANCH  21  28
BRANCH  26  29
ATOM     29  O   UNL     1      -0.102  -2.752  -0.011  0.00  0.00    -0.488 OA
ATOM     30  C   UNL     1       0.459  -3.104   1.255  0.00  0.00    +0.277 C 
ENDBRANCH  26  29
BRANCH  25  31
ATOM     31  O   UNL     1      -2.532  -4.038   0.015  0.00  0.00    -0.491 OA
ATOM     32  C   UNL     1      -3.828  -4.641   0.024  0.00  0.00    +0.277 C 
ENDBRANCH  25  31
ENDBRANCH   1  23
TORSDOF 5
