REMARK  Name = ZINC50654143
REMARK  4 active torsions:
REMARK  status: ('A' for Active; 'I' for Inactive)
REMARK    1  A    between atoms: C_4  and  N_10
REMARK    2  A    between atoms: C_6  and  N_7
REMARK    3  A    between atoms: N_10  and  S_11
REMARK    4  A    between atoms: S_11  and  C_14
REMARK                            x       y       z     vdW  Elec       q    Type
REMARK                         _______ _______ _______ _____ _____    ______ ____
ROOT
ATOM      1  S   UNL     1       5.043   0.194  -0.046  0.00  0.00    +0.092 S 
ATOM      2  O   UNL     1       5.097   0.881  -1.288  0.00  0.00    -0.148 OA
ATOM      3  O   UNL     1       5.122   0.868   1.202  0.00  0.00    -0.148 OA
ENDROOT
BRANCH   1   4
ATOM      4  C   UNL     1       6.352  -0.986  -0.066  0.00  0.00    +0.115 A 
ATOM      5  C   UNL     1       6.888  -1.471   1.120  0.00  0.00    +0.046 A 
ATOM      6  C   UNL     1       7.912  -2.395   1.071  0.00  0.00    +0.086 A 
ATOM      7  N   UNL     1       8.386  -2.819  -0.085  0.00  0.00    -0.350 N 
ATOM      8  C   UNL     1       7.903  -2.379  -1.237  0.00  0.00    +0.095 A 
ATOM      9  C   UNL     1       6.866  -1.452  -1.262  0.00  0.00    +0.070 A 
ATOM     10  N   UNL     1       8.432  -2.853  -2.432  0.00  0.00    -0.345 N 
ATOM     11  H   UNL     1       9.153  -3.502  -2.420  0.00  0.00    +0.144 HD
ATOM     12  H   UNL     1       8.082  -2.534  -3.278  0.00  0.00    +0.144 HD
ATOM     13  H   UNL     1       9.107  -3.468  -0.092  0.00  0.00    +0.166 HD
ENDBRANCH   1   4
BRANCH   1  14
ATOM     14  N   UNL     1       3.620  -0.654  -0.037  0.00  0.00    -0.095 NA
BRANCH  14  18
ATOM     15  C   UNL     1      -0.017   1.378   0.010  0.00  0.00    +0.035 A 
ATOM     16  C   UNL     1       1.170   2.089   0.002  0.00  0.00    +0.042 A 
ATOM     17  C   UNL     1       2.379   1.419  -0.013  0.00  0.00    +0.148 A 
ATOM     18  C   UNL     1       2.400   0.028  -0.021  0.00  0.00    +0.112 A 
ATOM     19  C   UNL     1       1.207  -0.681  -0.013  0.00  0.00    +0.062 A 
ATOM     20  C   UNL     1       0.002  -0.004   0.002  0.00  0.00    +0.128 A 
ATOM     21  F   UNL     1       3.537   2.113  -0.021  0.00  0.00    -0.203 F 
BRANCH  20  22
ATOM     22  N   UNL     1      -1.270  -0.760   0.011  0.00  0.00    +0.056 N 
ATOM     23  O   UNL     1      -2.325  -0.169   0.024  0.00  0.00    -0.126 OA
ATOM     24  O   UNL     1      -1.255  -1.969   0.004  0.00  0.00    -0.126 OA
ENDBRANCH  20  22
ENDBRANCH  14  18
ENDBRANCH   1  14
TORSDOF 4
