REMARK  Name = ZINC02435225
REMARK  5 active torsions:
REMARK  status: ('A' for Active; 'I' for Inactive)
REMARK    1  A    between atoms: C_1  and  C_2
REMARK    2  A    between atoms: C_5  and  C_7
REMARK    3  A    between atoms: N_8  and  N_9
REMARK    4  A    between atoms: C_10  and  C_12
REMARK    5  A    between atoms: N_14  and  C_15
REMARK                            x       y       z     vdW  Elec       q    Type
REMARK                         _______ _______ _______ _____ _____    ______ ____
ROOT
ATOM      1  N   UNL     1      -3.540   2.451   0.010  0.00  0.00    -0.199 N 
ATOM      2  C   UNL     1      -4.763   1.886   0.020  0.00  0.00    +0.318 C 
ATOM      3  O   UNL     1      -4.873   0.676   0.010  0.00  0.00    -0.263 OA
ATOM      4  H   UNL     1      -3.453   3.417   0.018  0.00  0.00    +0.178 HD
ENDROOT
BRANCH   2   5
ATOM      5  C   UNL     1      -5.981   2.744   0.042  0.00  0.00    +0.305 C 
ATOM      6  O   UNL     1      -5.871   3.954   0.051  0.00  0.00    -0.265 OA
ATOM      7  N   UNL     1      -7.205   2.179   0.051  0.00  0.00    -0.276 N 
ATOM      8  H   UNL     1      -7.294   1.216  -0.022  0.00  0.00    +0.155 HD
BRANCH   7   9
ATOM      9  C   UNL     1      -8.344   2.980   0.167  0.00  0.00    +0.054 A 
ATOM     10  C   UNL     1      -8.371   4.239  -0.418  0.00  0.00    +0.044 A 
ATOM     11  C   UNL     1      -9.501   5.027  -0.305  0.00  0.00    +0.043 A 
ATOM     12  C   UNL     1     -10.601   4.566   0.397  0.00  0.00    +0.021 A 
ATOM     13  C   UNL     1     -10.575   3.315   0.985  0.00  0.00    +0.023 A 
ATOM     14  C   UNL     1      -9.450   2.520   0.872  0.00  0.00    +0.062 A 
ATOM     15 CL   UNL     1      -9.419   0.949   1.610  0.00  0.00    -0.082 Cl
ATOM     16 CL   UNL     1      -9.539   6.600  -1.040  0.00  0.00    -0.083 Cl
ENDBRANCH   7   9
ENDBRANCH   2   5
BRANCH   1  18
ATOM     17  C   UNL     1      -1.213   2.191  -0.020  0.00  0.00    +0.176 C 
ATOM     18  N   UNL     1      -2.395   1.644  -0.011  0.00  0.00    -0.184 NA
BRANCH  17  23
ATOM     19  C   UNL     1       1.716  -1.870  -0.100  0.00  0.00    +0.086 C 
ATOM     20  C   UNL     1       1.275  -0.429  -0.079  0.00  0.00    +0.103 A 
ATOM     21  C   UNL     1       2.094   0.644  -0.082  0.00  0.00    +0.045 A 
ATOM     22  C   UNL     1       1.276   1.788  -0.058  0.00  0.00    +0.051 A 
ATOM     23  C   UNL     1      -0.016   1.347  -0.042  0.00  0.00    +0.148 A 
ATOM     24  O   UNL     1       0.002  -0.001  -0.054  0.00  0.00    -0.459 OA
ENDBRANCH  17  23
ENDBRANCH   1  18
TORSDOF 4
