REMARK  Name = ZINC35357493
REMARK  5 active torsions:
REMARK  status: ('A' for Active; 'I' for Inactive)
REMARK    1  A    between atoms: C_1  and  C_2
REMARK    2  A    between atoms: C_6  and  N_9
REMARK    3  A    between atoms: C_7  and  C_8
REMARK    4  A    between atoms: N_9  and  S_10
REMARK    5  A    between atoms: S_10  and  C_13
REMARK                            x       y       z     vdW  Elec       q    Type
REMARK                         _______ _______ _______ _____ _____    ______ ____
ROOT
ATOM      1  S   UNL     1       0.073  -4.452   2.378  0.00  0.00    +0.094 S 
ATOM      2  O   UNL     1      -1.169  -4.871   1.830  0.00  0.00    -0.148 OA
ATOM      3  O   UNL     1       1.321  -4.838   1.818  0.00  0.00    -0.148 OA
ENDROOT
BRANCH   1   4
ATOM      4  C   UNL     1       0.088  -4.986   4.057  0.00  0.00    +0.146 A 
ATOM      5  C   UNL     1       1.285  -5.179   4.729  0.00  0.00    +0.144 A 
ATOM      6  N   UNL     1       1.258  -5.580   5.990  0.00  0.00    -0.224 NA
ATOM      7  C   UNL     1       0.112  -5.795   6.606  0.00  0.00    +0.223 A 
ATOM      8  N   UNL     1      -1.046  -5.622   5.998  0.00  0.00    -0.224 NA
ATOM      9  C   UNL     1      -1.096  -5.216   4.739  0.00  0.00    +0.144 A 
ATOM     10 CL   UNL     1       0.127  -6.322   8.260  0.00  0.00    -0.041 Cl
ENDBRANCH   1   4
BRANCH   1  11
ATOM     11  N   UNL     1       0.051  -2.796   2.390  0.00  0.00    -0.097 NA
BRANCH  11  17
ATOM     12  C   UNL     1      -0.018   1.503   0.010  0.00  0.00    +0.044 C 
ATOM     13  C   UNL     1       0.002  -0.004   0.002  0.00  0.00    -0.046 A 
ATOM     14  C   UNL     1       0.006  -0.688  -1.200  0.00  0.00    +0.004 A 
ATOM     15  C   UNL     1       0.024  -2.071  -1.212  0.00  0.00    +0.002 A 
ATOM     16  C   UNL     1       0.039  -2.773  -0.023  0.00  0.00    +0.027 A 
ATOM     17  C   UNL     1       0.036  -2.089   1.186  0.00  0.00    +0.077 A 
ATOM     18  C   UNL     1       0.023  -0.700   1.194  0.00  0.00    -0.023 A 
ATOM     19  C   UNL     1       0.025   0.046   2.504  0.00  0.00    +0.046 C 
ENDBRANCH  11  17
ENDBRANCH   1  11
TORSDOF 3
