REMARK  Name = ZINC37393971
REMARK  6 active torsions:
REMARK  status: ('A' for Active; 'I' for Inactive)
REMARK    1  A    between atoms: C_1  and  C_2
REMARK    2  A    between atoms: C_8  and  N_10
REMARK    3  A    between atoms: N_10  and  S_11
REMARK    4  A    between atoms: S_11  and  C_14
REMARK    5  A    between atoms: C_17  and  N_23
REMARK    6  A    between atoms: C_18  and  N_20
REMARK                            x       y       z     vdW  Elec       q    Type
REMARK                         _______ _______ _______ _____ _____    ______ ____
ROOT
ATOM      1  S   UNL     1       1.137   0.484   4.409  0.00  0.00    +0.059 S 
ATOM      2  O   UNL     1       0.493   1.026   5.554  0.00  0.00    -0.153 OA
ATOM      3  O   UNL     1       2.044  -0.607   4.490  0.00  0.00    -0.153 OA
ENDROOT
BRANCH   1   4
ATOM      4  C   UNL     1       2.013   1.811   3.649  0.00  0.00    +0.108 A 
ATOM      5  C   UNL     1       3.099   1.544   2.834  0.00  0.00    +0.030 A 
ATOM      6  C   UNL     1       3.787   2.582   2.237  0.00  0.00    +0.027 A 
ATOM      7  C   UNL     1       3.387   3.894   2.454  0.00  0.00    +0.055 A 
ATOM      8  C   UNL     1       2.296   4.159   3.272  0.00  0.00    +0.149 A 
ATOM      9  C   UNL     1       1.609   3.116   3.863  0.00  0.00    +0.063 A 
BRANCH   8  10
ATOM     10  N   UNL     1       1.868   5.556   3.507  0.00  0.00    +0.058 N 
ATOM     11  O   UNL     1       2.694   6.430   3.627  0.00  0.00    -0.126 OA
ATOM     12  O   UNL     1       0.691   5.823   3.579  0.00  0.00    -0.126 OA
ENDBRANCH   8  10
BRANCH   7  13
ATOM     13  N   UNL     1       4.081   4.946   1.851  0.00  0.00    -0.356 N 
ATOM     14  H   UNL     1       4.913   4.773   1.383  0.00  0.00    +0.142 HD
ATOM     15  H   UNL     1       3.731   5.850   1.901  0.00  0.00    +0.142 HD
ENDBRANCH   7  13
ENDBRANCH   1   4
BRANCH   1  16
ATOM     16  N   UNL     1      -0.062   0.026   3.363  0.00  0.00    -0.187 NA
ATOM     17  H   UNL     1      -0.993   0.142   3.612  0.00  0.00    +0.148 HD
BRANCH  16  24
ATOM     18  C   UNL     1      -0.733   1.420   0.914  0.00  0.00    +0.009 C 
ATOM     19  C   UNL     1      -0.743  -0.107   1.018  0.00  0.00    +0.005 C 
ATOM     20  C   UNL     1      -0.383  -0.712  -0.341  0.00  0.00    +0.005 C 
ATOM     21  C   UNL     1      -0.393  -2.239  -0.237  0.00  0.00    +0.000 C 
ATOM     22  C   UNL     1       0.632  -2.685   0.807  0.00  0.00    +0.002 C 
ATOM     23  C   UNL     1       0.272  -2.080   2.166  0.00  0.00    +0.020 C 
ATOM     24  C   UNL     1       0.282  -0.553   2.062  0.00  0.00    +0.079 C 
ENDBRANCH  16  24
ENDBRANCH   1  16
TORSDOF 5
