REMARK  Name = ZINC66678764
REMARK  3 active torsions:
REMARK  status: ('A' for Active; 'I' for Inactive)
REMARK    1  A    between atoms: C_3  and  C_24
REMARK    2  A    between atoms: C_5  and  N_7
REMARK    3  A    between atoms: N_10  and  C_11
REMARK                            x       y       z     vdW  Elec       q    Type
REMARK                         _______ _______ _______ _____ _____    ______ ____
ROOT
ATOM      1  N   UNL     1       1.228  -2.086  -0.021  0.00  0.00    -0.269 N 
ATOM      2  C   UNL     1       0.073  -2.772   0.089  0.00  0.00    +0.304 C 
ATOM      3  O   UNL     1      -0.988  -2.179   0.102  0.00  0.00    -0.252 OA
ATOM      4  N   UNL     1       0.095  -4.117   0.183  0.00  0.00    -0.292 N 
ATOM      5  H   UNL     1       2.069  -2.561  -0.099  0.00  0.00    +0.156 HD
ATOM      6  H   UNL     1       0.942  -4.590   0.172  0.00  0.00    +0.151 HD
ENDROOT
BRANCH   4   7
ATOM      7  C   UNL     1      -1.160  -4.863   0.302  0.00  0.00    +0.106 C 
ATOM      8  C   UNL     1      -0.956  -6.279  -0.234  0.00  0.00    +0.027 C 
ATOM      9  C   UNL     1      -2.202  -7.105   0.107  0.00  0.00    +0.008 C 
ATOM     10  C   UNL     1      -2.238  -7.313   1.619  0.00  0.00    +0.054 C 
ATOM     11  C   UNL     1      -2.075  -6.001   2.343  0.00  0.00    +0.024 A 
ATOM     12  C   UNL     1      -1.582  -4.897   1.748  0.00  0.00    -0.008 A 
ATOM     13  C   UNL     1      -1.446  -3.707   2.490  0.00  0.00    +0.012 A 
ATOM     14  C   UNL     1      -1.815  -3.678   3.799  0.00  0.00    +0.070 A 
ATOM     15  C   UNL     1      -2.332  -4.845   4.387  0.00  0.00    +0.249 A 
ATOM     16  O   UNL     1      -2.673  -4.840   5.559  0.00  0.00    -0.268 OA
ATOM     17  N   UNL     1      -2.451  -5.962   3.655  0.00  0.00    -0.326 N 
ATOM     18  H   UNL     1      -2.810  -6.762   4.069  0.00  0.00    +0.169 HD
ENDBRANCH   4   7
BRANCH   1  23
ATOM     19  C   UNL     1       2.237   1.402   0.577  0.00  0.00    +0.002 A 
ATOM     20  C   UNL     1       1.195   2.089  -0.014  0.00  0.00    +0.010 A 
ATOM     21  C   UNL     1       0.150   1.388  -0.615  0.00  0.00    +0.004 A 
ATOM     22  C   UNL     1       0.162  -0.005  -0.617  0.00  0.00    +0.033 A 
ATOM     23  C   UNL     1       1.212  -0.686  -0.021  0.00  0.00    +0.035 A 
ATOM     24  C   UNL     1       2.249   0.021   0.576  0.00  0.00    +0.023 A 
BRANCH  21  25
ATOM     25  C   UNL     1      -0.970   2.124  -1.250  0.00  0.00    +0.091 A 
ATOM     26  C   UNL     1      -0.975   3.538  -1.250  0.00  0.00    +0.035 A 
ATOM     27  C   UNL     1      -2.021   4.180  -1.844  0.00  0.00    +0.073 A 
ATOM     28  C   UNL     1      -3.039   3.391  -2.423  0.00  0.00    +0.265 A 
ATOM     29  O   UNL     1      -3.994   3.921  -2.966  0.00  0.00    -0.266 OA
ATOM     30  N   UNL     1      -2.946   2.049  -2.373  0.00  0.00    -0.243 N 
ATOM     31  H   UNL     1      -3.648   1.512  -2.773  0.00  0.00    +0.192 HD
ATOM     32  N   UNL     1      -1.952   1.460  -1.814  0.00  0.00    -0.171 NA
ENDBRANCH  21  25
ENDBRANCH   1  23
TORSDOF 3
