REMARK  Name = ZINC08783479
REMARK  10 active torsions:
REMARK  status: ('A' for Active; 'I' for Inactive)
REMARK    1  A    between atoms: C_1  and  C_2
REMARK    2  A    between atoms: C_2  and  C_3
REMARK    3  A    between atoms: C_2  and  C_4
REMARK    4  A    between atoms: C_7  and  C_10
REMARK    5  A    between atoms: C_13  and  C_24
REMARK    6  A    between atoms: C_19  and  N_23
REMARK    7  A    between atoms: C_20  and  C_21
REMARK    8  A    between atoms: C_24  and  C_25
REMARK    9  A    between atoms: C_24  and  C_26
REMARK   10  A    between atoms: C_24  and  C_27
REMARK                            x       y       z     vdW  Elec       q    Type
REMARK                         _______ _______ _______ _____ _____    ______ ____
ROOT
ATOM      1  C   UNL     1       3.297  -1.850  -4.323  0.00  0.00    +0.101 C 
ATOM      2  C   UNL     1       4.542  -1.032  -4.555  0.00  0.00    +0.050 A 
ATOM      3  C   UNL     1       4.668   0.224  -5.009  0.00  0.00    +0.049 A 
ATOM      4  N   UNL     1       5.989   0.517  -5.042  0.00  0.00    -0.277 N 
ATOM      5  H   UNL     1       6.379   1.358  -5.328  0.00  0.00    +0.189 HD
ATOM      6  N   UNL     1       6.697  -0.608  -4.591  0.00  0.00    -0.135 NA
ATOM      7  C   UNL     1       5.835  -1.538  -4.299  0.00  0.00    +0.245 A 
ATOM      8  O   UNL     1       6.036  -2.799  -3.829  0.00  0.00    -0.421 OA
ATOM      9  C   UNL     1       4.991  -3.650  -3.868  0.00  0.00    +0.201 C 
ATOM     10  C   UNL     1       3.711  -3.281  -4.091  0.00  0.00    +0.098 C 
ENDROOT
BRANCH   1  14
ATOM     11  C   UNL     1       1.222  -0.378  -0.892  0.00  0.00    -0.045 A 
ATOM     12  C   UNL     1       0.527  -0.650  -2.055  0.00  0.00    +0.004 A 
ATOM     13  C   UNL     1       1.199  -1.126  -3.166  0.00  0.00    +0.005 A 
ATOM     14  C   UNL     1       2.565  -1.330  -3.113  0.00  0.00    -0.035 A 
ATOM     15  C   UNL     1       3.260  -1.057  -1.949  0.00  0.00    +0.005 A 
ATOM     16  C   UNL     1       2.589  -0.577  -0.840  0.00  0.00    +0.004 A 
BRANCH  11  18
ATOM     17  C   UNL     1      -0.194   1.465  -0.028  0.00  0.00    +0.012 C 
ATOM     18  C   UNL     1       0.490   0.141   0.319  0.00  0.00    +0.013 C 
ATOM     19  C   UNL     1      -0.564  -0.879   0.754  0.00  0.00    +0.012 C 
ENDBRANCH  11  18
ENDBRANCH   1  14
BRANCH   3  20
ATOM     20  C   UNL     1       3.543   1.143  -5.409  0.00  0.00    +0.004 C 
ATOM     21  C   UNL     1       4.121   2.441  -5.975  0.00  0.00    +0.017 C 
ATOM     22  C   UNL     1       2.682   0.461  -6.474  0.00  0.00    +0.017 C 
ATOM     23  C   UNL     1       2.683   1.460  -4.183  0.00  0.00    +0.017 C 
ENDBRANCH   3  20
BRANCH   9  24
ATOM     24  N   UNL     1       5.245  -4.983  -3.666  0.00  0.00    -0.328 N 
ATOM     25  H   UNL     1       6.152  -5.285  -3.502  0.00  0.00    +0.145 HD
ATOM     26  H   UNL     1       4.517  -5.624  -3.686  0.00  0.00    +0.145 HD
ENDBRANCH   9  24
BRANCH  10  27
ATOM     27  C   UNL     1       2.700  -4.296  -4.110  0.00  0.00    +0.101 C 
ATOM     28  N   UNL     1       1.899  -5.101  -4.124  0.00  0.00    -0.191 NA
ENDBRANCH  10  27
TORSDOF 5
