REMARK  Name = ZINC35415708
REMARK  4 active torsions:
REMARK  status: ('A' for Active; 'I' for Inactive)
REMARK    1  A    between atoms: C_1  and  C_2
REMARK    2  A    between atoms: N_6  and  O_7
REMARK    3  A    between atoms: C_19  and  C_27
REMARK    4  A    between atoms: C_24  and  O_26
REMARK                            x       y       z     vdW  Elec       q    Type
REMARK                         _______ _______ _______ _____ _____    ______ ____
ROOT
ATOM      1  C   UNL     1      -0.019   1.520   0.010  0.00  0.00    +0.012 C 
ATOM      2  C   UNL     1       0.002  -0.004   0.002  0.00  0.00    -0.025 C 
ATOM      3  C   UNL     1      -1.435  -0.522   0.189  0.00  0.00    +0.013 C 
ATOM      4  C   UNL     1      -2.044   0.033   1.477  0.00  0.00    +0.055 C 
ATOM      5  C   UNL     1      -1.127  -0.269   2.639  0.00  0.00    +0.058 C 
ATOM      6  N   UNL     1      -1.586  -0.776   3.722  0.00  0.00    -0.097 NA
ATOM      7  C   UNL     1       0.346   0.043   2.498  0.00  0.00    +0.058 C 
ATOM      8  C   UNL     1       0.846  -0.523   1.171  0.00  0.00    +0.001 C 
ATOM      9  C   UNL     1       2.314  -0.155   0.967  0.00  0.00    +0.005 C 
ATOM     10  C   UNL     1       2.828  -0.860  -0.290  0.00  0.00    +0.004 C 
ATOM     11  C   UNL     1       2.035  -0.392  -1.511  0.00  0.00    -0.004 C 
ATOM     12  C   UNL     1       0.545  -0.567  -1.304  0.00  0.00    -0.001 C 
ATOM     13  C   UNL     1      -0.238  -0.118  -2.526  0.00  0.00    +0.005 C 
ATOM     14  C   UNL     1       0.156   1.250  -3.045  0.00  0.00    +0.010 C 
ATOM     15  C   UNL     1       1.640   1.496  -3.132  0.00  0.00    -0.003 C 
ATOM     16  C   UNL     1       2.436   1.024  -1.906  0.00  0.00    +0.001 C 
ATOM     17  C   UNL     1       3.889   0.946  -2.461  0.00  0.00    +0.007 C 
ATOM     18  C   UNL     1       3.731   0.478  -3.922  0.00  0.00    +0.032 C 
ATOM     19  C   UNL     1       2.278   0.784  -4.333  0.00  0.00    +0.121 C 
ATOM     20  C   UNL     1       1.863   3.007  -3.300  0.00  0.00    +0.014 C 
ENDROOT
BRANCH   6  21
ATOM     21  O   UNL     1      -2.968  -1.061   3.840  0.00  0.00    -0.409 OA
ATOM     22  H   UNL     1      -3.220  -1.441   4.692  0.00  0.00    +0.328 HD
ENDBRANCH   6  21
BRANCH  19  23
ATOM     23  O   UNL     1       2.259   1.641  -5.476  0.00  0.00    -0.391 OA
ATOM     24  H   UNL     1       2.649   1.249  -6.269  0.00  0.00    +0.210 HD
ENDBRANCH  19  23
TORSDOF 2
