REMARK  Name = ZINC54911956
REMARK  11 active torsions:
REMARK  status: ('A' for Active; 'I' for Inactive)
REMARK    1  A    between atoms: C_1  and  C_2
REMARK    2  A    between atoms: C_2  and  C_3
REMARK    3  A    between atoms: C_3  and  C_4
REMARK    4  A    between atoms: C_4  and  N_5
REMARK    5  A    between atoms: C_6  and  N_27
REMARK    6  A    between atoms: C_7  and  N_14
REMARK    7  A    between atoms: N_14  and  C_15
REMARK    8  A    between atoms: C_16  and  C_18
REMARK    9  A    between atoms: C_22  and  O_24
REMARK   10  A    between atoms: O_24  and  C_25
REMARK   11  A    between atoms: C_25  and  C_26
REMARK                            x       y       z     vdW  Elec       q    Type
REMARK                         _______ _______ _______ _____ _____    ______ ____
ROOT
ATOM      1  N   UNL     1       1.546  -2.024   3.391  0.00  0.00    -0.280 N 
ATOM      2  C   UNL     1       2.783  -2.483   3.002  0.00  0.00    +0.127 A 
ATOM      3  C   UNL     1       3.895  -2.134   3.742  0.00  0.00    +0.140 A 
ATOM      4  C   UNL     1       3.728  -1.315   4.874  0.00  0.00    +0.277 A 
ATOM      5  O   UNL     1       4.693  -0.990   5.545  0.00  0.00    -0.266 OA
ATOM      6  N   UNL     1       2.494  -0.891   5.212  0.00  0.00    -0.273 N 
ATOM      7  H   UNL     1       2.377  -0.327   5.992  0.00  0.00    +0.173 HD
ATOM      8  C   UNL     1       1.423  -1.238   4.476  0.00  0.00    +0.331 A 
ATOM      9  O   UNL     1       0.321  -0.837   4.801  0.00  0.00    -0.246 OA
ENDROOT
BRANCH   3  10
ATOM     10  N   UNL     1       5.176  -2.589   3.369  0.00  0.00    -0.263 N 
ATOM     11  C   UNL     1       5.760  -2.171   2.092  0.00  0.00    +0.139 C 
ATOM     12  C   UNL     1       5.865  -3.409   4.188  0.00  0.00    +0.251 C 
ATOM     13  O   UNL     1       6.935  -3.864   3.833  0.00  0.00    -0.270 OA
BRANCH  12  14
ATOM     14  C   UNL     1       5.318  -3.755   5.518  0.00  0.00    +0.041 A 
ATOM     15  C   UNL     1       3.937  -3.785   5.721  0.00  0.00    +0.013 A 
ATOM     16  C   UNL     1       3.431  -4.109   6.963  0.00  0.00    +0.004 A 
ATOM     17  C   UNL     1       4.287  -4.403   8.008  0.00  0.00    +0.046 A 
ATOM     18  C   UNL     1       5.661  -4.375   7.816  0.00  0.00    +0.121 A 
ATOM     19  C   UNL     1       6.180  -4.058   6.572  0.00  0.00    +0.058 A 
BRANCH  18  20
ATOM     20  O   UNL     1       6.497  -4.664   8.847  0.00  0.00    -0.492 OA
BRANCH  20  21
ATOM     21  C   UNL     1       5.893  -4.987  10.101  0.00  0.00    +0.225 C 
ATOM     22  C   UNL     1       6.985  -5.281  11.132  0.00  0.00    +0.048 C 
ENDBRANCH  20  21
ENDBRANCH  18  20
ENDBRANCH  12  14
ENDBRANCH   3  10
BRANCH   2  23
ATOM     23  N   UNL     1       2.910  -3.282   1.891  0.00  0.00    -0.343 N 
ATOM     24  H   UNL     1       2.146  -3.436   1.315  0.00  0.00    +0.144 HD
ATOM     25  H   UNL     1       3.764  -3.692   1.683  0.00  0.00    +0.144 HD
ENDBRANCH   2  23
BRANCH   1  26
ATOM     26  C   UNL     1       0.358  -2.387   2.616  0.00  0.00    +0.128 C 
BRANCH  26  27
ATOM     27  C   UNL     1       0.125  -1.345   1.520  0.00  0.00    +0.021 C 
BRANCH  27  29
ATOM     28  C   UNL     1      -1.349  -0.682  -0.385  0.00  0.00    +0.004 C 
ATOM     29  C   UNL     1      -1.116  -1.724   0.711  0.00  0.00    -0.002 C 
ENDBRANCH  27  29
ENDBRANCH  26  27
ENDBRANCH   1  26
TORSDOF 8
