REMARK  Name = ZINC19292521
REMARK  6 active torsions:
REMARK  status: ('A' for Active; 'I' for Inactive)
REMARK    1  A    between atoms: C_12  and  C_13
REMARK    2  A    between atoms: C_13  and  N_14
REMARK    3  A    between atoms: N_14  and  C_15
REMARK    4  A    between atoms: C_15  and  C_16
REMARK    5  A    between atoms: C_16  and  N_17
REMARK    6  A    between atoms: N_25  and  C_26
REMARK                            x       y       z     vdW  Elec       q    Type
REMARK                         _______ _______ _______ _____ _____    ______ ____
ROOT
ATOM      1  N   UNL     1      -1.667  -1.118  -1.363  0.00  0.00    -0.280 N 
ATOM      2  C   UNL     1      -2.432  -0.276  -2.086  0.00  0.00    +0.303 C 
ATOM      3  O   UNL     1      -2.813   0.770  -1.597  0.00  0.00    -0.253 OA
ATOM      4  N   UNL     1      -2.774  -0.593  -3.350  0.00  0.00    -0.296 N 
ATOM      5  H   UNL     1      -2.470  -1.428  -3.740  0.00  0.00    +0.151 HD
ENDROOT
BRANCH   4   6
ATOM      6  C   UNL     1      -3.606   0.322  -4.136  0.00  0.00    +0.074 C 
ATOM      7  C   UNL     1      -5.082   0.063  -3.826  0.00  0.00    +0.022 C 
ATOM      8  C   UNL     1      -5.950   1.019  -4.647  0.00  0.00    +0.002 C 
ATOM      9  C   UNL     1      -5.694   0.789  -6.137  0.00  0.00    +0.000 C 
ATOM     10  C   UNL     1      -4.218   1.048  -6.447  0.00  0.00    +0.002 C 
ATOM     11  C   UNL     1      -3.349   0.092  -5.626  0.00  0.00    +0.022 C 
ENDBRANCH   4   6
BRANCH   1  12
ATOM     12  C   UNL     1      -1.294  -0.772   0.011  0.00  0.00    +0.150 C 
BRANCH  12  24
ATOM     13  C   UNL     1      -0.016   1.353   0.009  0.00  0.00    +0.020 A 
ATOM     14  C   UNL     1       1.258   2.070   0.001  0.00  0.00    +0.003 A 
ATOM     15  C   UNL     1       1.300   3.469   0.006  0.00  0.00    +0.059 A 
ATOM     16  C   UNL     1       2.517   4.118  -0.001  0.00  0.00    +0.163 A 
ATOM     17  C   UNL     1       3.707   3.383  -0.012  0.00  0.00    +0.164 A 
ATOM     18  C   UNL     1       3.674   1.999  -0.020  0.00  0.00    +0.075 A 
ATOM     19  C   UNL     1       2.457   1.331  -0.013  0.00  0.00    +0.053 A 
ATOM     20  N   UNL     1       2.406  -0.049  -0.021  0.00  0.00    -0.322 N 
ATOM     21  H   UNL     1       3.232  -0.557  -0.031  0.00  0.00    +0.169 HD
ATOM     22  C   UNL     1       1.229  -0.697  -0.013  0.00  0.00    +0.254 A 
ATOM     23  O   UNL     1       1.223  -1.917  -0.020  0.00  0.00    -0.268 OA
ATOM     24  C   UNL     1       0.002  -0.004   0.002  0.00  0.00    +0.035 A 
ATOM     25  O   UNL     1       4.911   4.016  -0.011  0.00  0.00    -0.485 OA
ATOM     26  C   UNL     1       4.913   5.399  -0.380  0.00  0.00    +0.270 C 
ATOM     27  C   UNL     1       3.776   6.100   0.374  0.00  0.00    +0.270 C 
ATOM     28  O   UNL     1       2.541   5.480   0.002  0.00  0.00    -0.485 OA
ENDBRANCH  12  24
ENDBRANCH   1  12
BRANCH   1  29
ATOM     29  C   UNL     1      -1.207  -2.378  -1.952  0.00  0.00    +0.125 C 
BRANCH  29  30
ATOM     30  C   UNL     1      -2.234  -3.477  -1.670  0.00  0.00    +0.103 C 
BRANCH  30  31
ATOM     31  N   UNL     1      -1.774  -4.741  -2.260  0.00  0.00    -0.297 NA
ATOM     32  C   UNL     1      -1.752  -4.660  -3.728  0.00  0.00    +0.112 C 
ATOM     33  C   UNL     1      -1.211  -5.973  -4.298  0.00  0.00    +0.175 C 
ATOM     34  O   UNL     1      -2.015  -7.059  -3.828  0.00  0.00    -0.377 OA
ATOM     35  C   UNL     1      -2.057  -7.167  -2.402  0.00  0.00    +0.175 C 
ATOM     36  C   UNL     1      -2.607  -5.866  -1.812  0.00  0.00    +0.112 C 
ENDBRANCH  30  31
ENDBRANCH  29  30
ENDBRANCH   1  29
TORSDOF 6
