REMARK  Name = ZINC57928793
REMARK  4 active torsions:
REMARK  status: ('A' for Active; 'I' for Inactive)
REMARK    1  A    between atoms: C_1  and  C_2
REMARK    2  A    between atoms: C_2  and  C_3
REMARK    3  A    between atoms: N_7  and  C_15
REMARK    4  A    between atoms: C_15  and  C_16
REMARK                            x       y       z     vdW  Elec       q    Type
REMARK                         _______ _______ _______ _____ _____    ______ ____
ROOT
ATOM      1  C   UNL     1       0.883  -0.548  -1.111  0.00  0.00    +0.157 C 
ATOM      2  C   UNL     1       0.934  -2.055  -1.101  0.00  0.00    +0.240 C 
ATOM      3  O   UNL     1       1.870  -2.620  -0.575  0.00  0.00    -0.273 OA
ATOM      4  N   UNL     1      -0.046  -2.780  -1.670  0.00  0.00    -0.264 N 
ATOM      5  C   UNL     1      -1.063  -2.160  -2.405  0.00  0.00    +0.058 A 
ATOM      6  C   UNL     1      -2.175  -2.878  -2.816  0.00  0.00    +0.025 A 
ATOM      7  C   UNL     1      -3.175  -2.248  -3.534  0.00  0.00    +0.002 A 
ATOM      8  C   UNL     1      -3.072  -0.905  -3.845  0.00  0.00    +0.002 A 
ATOM      9  C   UNL     1      -1.964  -0.181  -3.443  0.00  0.00    +0.025 A 
ATOM     10  C   UNL     1      -0.959  -0.806  -2.727  0.00  0.00    +0.049 A 
ATOM     11  N   UNL     1       0.186  -0.099  -2.325  0.00  0.00    -0.331 N 
ATOM     12  H   UNL     1       0.508   0.663  -2.831  0.00  0.00    +0.147 HD
ENDROOT
BRANCH   1  14
ATOM     13  C   UNL     1       0.182   1.474   0.177  0.00  0.00    +0.006 C 
ATOM     14  C   UNL     1       0.130  -0.054   0.125  0.00  0.00    +0.028 C 
ENDBRANCH   1  14
BRANCH   4  15
ATOM     15  C   UNL     1      -0.050  -4.237  -1.517  0.00  0.00    +0.151 C 
BRANCH  15  16
ATOM     16  C   UNL     1       0.592  -4.870  -2.724  0.00  0.00    +0.005 A 
ATOM     17  C   UNL     1      -0.196  -5.372  -3.743  0.00  0.00    +0.008 A 
ATOM     18  C   UNL     1       0.393  -5.954  -4.851  0.00  0.00    +0.000 A 
ATOM     19  C   UNL     1       1.771  -6.033  -4.941  0.00  0.00    +0.003 A 
ATOM     20  C   UNL     1       2.560  -5.531  -3.924  0.00  0.00    +0.038 A 
ATOM     21  C   UNL     1       1.972  -4.944  -2.816  0.00  0.00    +0.128 A 
ATOM     22  F   UNL     1       2.743  -4.449  -1.824  0.00  0.00    -0.205 F 
ENDBRANCH  15  16
ENDBRANCH   4  15
TORSDOF 3
