REMARK  Name = ZINC07746405
REMARK  7 active torsions:
REMARK  status: ('A' for Active; 'I' for Inactive)
REMARK    1  A    between atoms: C_1  and  C_2
REMARK    2  A    between atoms: C_3  and  C_21
REMARK    3  A    between atoms: C_4  and  C_13
REMARK    4  A    between atoms: N_9  and  C_10
REMARK    5  A    between atoms: C_10  and  C_11
REMARK    6  A    between atoms: C_21  and  O_23
REMARK    7  A    between atoms: O_23  and  C_24
REMARK                            x       y       z     vdW  Elec       q    Type
REMARK                         _______ _______ _______ _____ _____    ______ ____
ROOT
ATOM      1  C   UNL     1       0.240   0.148   2.468  0.00  0.00    +0.061 C 
ATOM      2  C   UNL     1       0.127  -0.653   1.197  0.00  0.00    +0.024 C 
ATOM      3  C   UNL     1       0.356  -1.984   1.228  0.00  0.00    +0.078 C 
ATOM      4  C   UNL     1       0.232  -2.752  -0.073  0.00  0.00    +0.144 C 
ATOM      5  N   UNL     1      -0.130  -1.978  -1.272  0.00  0.00    -0.288 N 
ATOM      6  C   UNL     1      -0.333  -0.652  -1.143  0.00  0.00    +0.307 C 
ATOM      7  O   UNL     1      -0.636  -0.005  -2.126  0.00  0.00    -0.252 OA
ATOM      8  N   UNL     1      -0.205  -0.022   0.032  0.00  0.00    -0.255 N 
ATOM      9  H   UNL     1      -0.225  -2.413  -2.134  0.00  0.00    +0.151 HD
ENDROOT
BRANCH   4  10
ATOM     10  C   UNL     1      -0.807  -3.826   0.119  0.00  0.00    -0.020 A 
ATOM     11  C   UNL     1      -2.151  -3.507   0.048  0.00  0.00    +0.009 A 
ATOM     12  C   UNL     1      -3.106  -4.491   0.219  0.00  0.00    +0.041 A 
ATOM     13  C   UNL     1      -2.718  -5.796   0.472  0.00  0.00    +0.158 A 
ATOM     14  C   UNL     1      -1.371  -6.114   0.548  0.00  0.00    +0.159 A 
ATOM     15  C   UNL     1      -0.417  -5.127   0.372  0.00  0.00    +0.047 A 
ATOM     16  F   UNL     1      -0.990  -7.386   0.796  0.00  0.00    -0.202 F 
ATOM     17  F   UNL     1      -3.651  -6.757   0.644  0.00  0.00    -0.202 F 
ENDBRANCH   4  10
BRANCH   3  18
ATOM     18  C   UNL     1       0.700  -2.639   2.434  0.00  0.00    +0.339 C 
ATOM     19  O   UNL     1       0.793  -2.002   3.467  0.00  0.00    -0.245 OA
BRANCH  18  20
ATOM     20  O   UNL     1       0.923  -3.970   2.439  0.00  0.00    -0.465 OA
ATOM     21  C   UNL     1       1.266  -4.565   3.692  0.00  0.00    +0.280 C 
ENDBRANCH  18  20
ENDBRANCH   3  18
BRANCH   8  22
ATOM     22  C   UNL     1      -0.440   1.423   0.071  0.00  0.00    +0.141 C 
BRANCH  22  23
ATOM     23  C   UNL     1       0.876   2.149  -0.042  0.00  0.00    -0.015 C 
ATOM     24  C   UNL     1       1.050   3.046  -0.981  0.00  0.00    +0.005 C 
ENDBRANCH  22  23
ENDBRANCH   8  22
TORSDOF 5
