REMARK  Name = ZINC50265337
REMARK  7 active torsions:
REMARK  status: ('A' for Active; 'I' for Inactive)
REMARK    1  A    between atoms: C_1  and  C_2
REMARK    2  A    between atoms: C_2  and  N_3
REMARK    3  A    between atoms: C_5  and  S_9
REMARK    4  A    between atoms: C_7  and  C_8
REMARK    5  A    between atoms: S_9  and  N_12
REMARK    6  A    between atoms: C_15  and  C_20
REMARK    7  A    between atoms: C_16  and  N_19
REMARK                            x       y       z     vdW  Elec       q    Type
REMARK                         _______ _______ _______ _____ _____    ______ ____
ROOT
ATOM      1  S   UNL     1       0.893  -1.758  -4.880  0.00  0.00    +0.117 S 
ATOM      2  O   UNL     1      -0.343  -1.228  -5.342  0.00  0.00    -0.145 OA
ATOM      3  O   UNL     1       2.125  -1.504  -5.542  0.00  0.00    -0.145 OA
ENDROOT
BRANCH   1   4
ATOM      4  N   UNL     1       0.714  -3.403  -4.829  0.00  0.00    -0.110 NA
ATOM      5  C   UNL     1       0.547  -4.083  -5.946  0.00  0.00    +0.153 A 
ATOM      6  C   UNL     1       0.388  -5.488  -5.906  0.00  0.00    +0.053 A 
ATOM      7  C   UNL     1       0.217  -6.173  -7.066  0.00  0.00    -0.025 A 
ATOM      8  C   UNL     1       0.201  -5.477  -8.291  0.00  0.00    +0.044 A 
ATOM      9  C   UNL     1       0.354  -4.131  -8.314  0.00  0.00    +0.107 A 
ATOM     10  N   UNL     1       0.522  -3.430  -7.153  0.00  0.00    -0.343 N 
ATOM     11  C   UNL     1       0.046  -7.670  -7.043  0.00  0.00    +0.046 C 
ATOM     12  H   UNL     1       0.627  -2.466  -7.183  0.00  0.00    +0.167 HD
BRANCH   8  13
ATOM     13  N   UNL     1       0.025  -6.181  -9.493  0.00  0.00    -0.357 N 
ATOM     14  H   UNL     1      -0.086  -7.145  -9.479  0.00  0.00    +0.142 HD
ATOM     15  H   UNL     1       0.013  -5.704 -10.338  0.00  0.00    +0.142 HD
ENDBRANCH   8  13
ENDBRANCH   1   4
BRANCH   1  18
ATOM     16  N   UNL     1       0.688  -0.476  -1.203  0.00  0.00    -0.334 N 
ATOM     17  C   UNL     1       0.098  -0.834  -2.386  0.00  0.00    +0.134 A 
ATOM     18  C   UNL     1       1.089  -1.203  -3.219  0.00  0.00    +0.197 A 
ATOM     19  N   UNL     1       2.252  -1.075  -2.564  0.00  0.00    -0.328 N 
ATOM     20  C   UNL     1       2.020  -0.635  -1.357  0.00  0.00    +0.085 A 
ATOM     21  C   UNL     1       3.065  -0.355  -0.308  0.00  0.00    +0.084 C 
ATOM     22  H   UNL     1       3.128  -1.274  -2.930  0.00  0.00    +0.168 HD
BRANCH  16  24
ATOM     23  C   UNL     1      -0.019   1.526   0.010  0.00  0.00    +0.027 C 
ATOM     24  C   UNL     1       0.002  -0.004   0.002  0.00  0.00    +0.119 C 
ENDBRANCH  16  24
ENDBRANCH   1  18
TORSDOF 4
