REMARK  Name = ZINC02962387
REMARK  12 active torsions:
REMARK  status: ('A' for Active; 'I' for Inactive)
REMARK    1  A    between atoms: C_1  and  C_2
REMARK    2  A    between atoms: C_2  and  O_3
REMARK    3  A    between atoms: O_3  and  C_4
REMARK    4  A    between atoms: C_9  and  N_10
REMARK    5  A    between atoms: N_10  and  C_11
REMARK    6  A    between atoms: C_12  and  C_26
REMARK    7  A    between atoms: C_13  and  N_25
REMARK    8  A    between atoms: C_14  and  C_16
REMARK    9  A    between atoms: C_16  and  C_18
REMARK   10  A    between atoms: N_28  and  C_29
REMARK   11  A    between atoms: C_29  and  C_30
REMARK   12  A    between atoms: C_30  and  C_31
REMARK                            x       y       z     vdW  Elec       q    Type
REMARK                         _______ _______ _______ _____ _____    ______ ____
ROOT
ATOM      1  C   UNL     1      -5.165  -2.106  -0.040  0.00  0.00    +0.084 A 
ATOM      2  C   UNL     1      -6.386  -1.432  -0.112  0.00  0.00    +0.086 A 
ATOM      3  C   UNL     1      -7.545  -2.199  -0.202  0.00  0.00    +0.057 A 
ATOM      4  C   UNL     1      -7.355  -3.580  -0.210  0.00  0.00    +0.082 A 
ATOM      5  S   UNL     1      -5.584  -3.731  -0.100  0.00  0.00    -0.068 S 
ENDROOT
BRANCH   2   6
ATOM      6  C   UNL     1      -6.446   0.032  -0.093  0.00  0.00    +0.248 C 
ATOM      7  O   UNL     1      -6.400   0.657  -1.137  0.00  0.00    -0.270 OA
ATOM      8  N   UNL     1      -6.552   0.688   1.080  0.00  0.00    -0.311 N 
ATOM      9  H   UNL     1      -6.589   0.190   1.912  0.00  0.00    +0.149 HD
BRANCH   8  10
ATOM     10  C   UNL     1      -6.612   2.151   1.099  0.00  0.00    +0.109 C 
BRANCH  10  11
ATOM     11  C   UNL     1      -6.730   2.638   2.545  0.00  0.00    +0.054 C 
BRANCH  11  12
ATOM     12  C   UNL     1      -6.792   4.144   2.564  0.00  0.00    -0.046 A 
ATOM     13  C   UNL     1      -5.626   4.882   2.648  0.00  0.00    +0.004 A 
ATOM     14  C   UNL     1      -5.682   6.263   2.666  0.00  0.00    +0.000 A 
ATOM     15  C   UNL     1      -6.904   6.906   2.599  0.00  0.00    +0.000 A 
ATOM     16  C   UNL     1      -8.070   6.168   2.514  0.00  0.00    +0.000 A 
ATOM     17  C   UNL     1      -8.013   4.787   2.491  0.00  0.00    +0.004 A 
ENDBRANCH  11  12
ENDBRANCH  10  11
ENDBRANCH   8  10
ENDBRANCH   2   6
BRANCH   3  18
ATOM     18  N   UNL     1      -8.805  -1.628  -0.277  0.00  0.00    -0.356 N 
ATOM     19  H   UNL     1      -8.901  -0.662  -0.269  0.00  0.00    +0.142 HD
ATOM     20  H   UNL     1      -9.591  -2.192  -0.339  0.00  0.00    +0.142 HD
ENDBRANCH   3  18
BRANCH   1  21
ATOM     21  N   UNL     1      -3.906  -1.563   0.053  0.00  0.00    -0.306 N 
ATOM     22  H   UNL     1      -3.799  -0.607   0.179  0.00  0.00    +0.153 HD
BRANCH  21  28
ATOM     23  C   UNL     1      -1.588  -2.010   0.581  0.00  0.00    +0.142 A 
ATOM     24  C   UNL     1      -0.477  -2.834   0.498  0.00  0.00    +0.047 A 
ATOM     25  C   UNL     1      -0.552  -4.026  -0.199  0.00  0.00    +0.004 A 
ATOM     26  C   UNL     1      -1.733  -4.400  -0.813  0.00  0.00    +0.002 A 
ATOM     27  C   UNL     1      -2.845  -3.584  -0.734  0.00  0.00    +0.027 A 
ATOM     28  C   UNL     1      -2.780  -2.388  -0.033  0.00  0.00    +0.074 A 
BRANCH  23  29
ATOM     29  O   UNL     1      -1.516  -0.837   1.266  0.00  0.00    -0.490 OA
BRANCH  29  31
ATOM     30  C   UNL     1      -0.374   0.831   2.591  0.00  0.00    +0.048 C 
ATOM     31  C   UNL     1      -0.262  -0.514   1.870  0.00  0.00    +0.226 C 
ENDBRANCH  29  31
ENDBRANCH  23  29
ENDBRANCH  21  28
ENDBRANCH   1  21
BRANCH   4  32
ATOM     32  C   UNL     1      -8.322  -4.601  -0.290  0.00  0.00    +0.202 C 
ATOM     33  O   UNL     1      -9.491  -4.320  -0.489  0.00  0.00    -0.286 OA
BRANCH  32  34
ATOM     34  C   UNL     1      -7.918  -6.016  -0.132  0.00  0.00    +0.023 A 
ATOM     35  C   UNL     1      -6.761  -6.340   0.578  0.00  0.00    +0.013 A 
ATOM     36  C   UNL     1      -6.389  -7.660   0.721  0.00  0.00    +0.021 A 
ATOM     37  C   UNL     1      -7.162  -8.664   0.162  0.00  0.00    +0.041 A 
ATOM     38  C   UNL     1      -8.311  -8.349  -0.544  0.00  0.00    +0.021 A 
ATOM     39  C   UNL     1      -8.696  -7.033  -0.688  0.00  0.00    +0.013 A 
ATOM     40 CL   UNL     1      -6.688 -10.324   0.346  0.00  0.00    -0.084 Cl
ENDBRANCH  32  34
ENDBRANCH   4  32
TORSDOF 11
