REMARK  Name = ZINC05315854
REMARK  5 active torsions:
REMARK  status: ('A' for Active; 'I' for Inactive)
REMARK    1  A    between atoms: C_6  and  C_7
REMARK    2  A    between atoms: C_7  and  C_9
REMARK    3  A    between atoms: C_7  and  O_26
REMARK    4  A    between atoms: C_9  and  N_24
REMARK    5  A    between atoms: C_16  and  N_21
REMARK                            x       y       z     vdW  Elec       q    Type
REMARK                         _______ _______ _______ _____ _____    ______ ____
ROOT
ATOM      1  C   UNL     1      -2.019  -1.185  -1.246  0.00  0.00    +0.144 C 
ATOM      2  C   UNL     1      -3.143  -0.487  -1.703  0.00  0.00    +0.122 C 
ATOM      3  C   UNL     1      -3.715   0.621  -0.898  0.00  0.00    +0.264 C 
ATOM      4  O   UNL     1      -3.212   0.931   0.164  0.00  0.00    -0.268 OA
ATOM      5  N   UNL     1      -4.798   1.281  -1.356  0.00  0.00    -0.279 N 
ATOM      6  C   UNL     1      -5.369   0.922  -2.570  0.00  0.00    +0.057 A 
ATOM      7  C   UNL     1      -6.486   1.607  -3.038  0.00  0.00    +0.058 A 
ATOM      8  C   UNL     1      -7.056   1.255  -4.244  0.00  0.00    +0.128 A 
ATOM      9  C   UNL     1      -6.521   0.220  -4.995  0.00  0.00    +0.034 A 
ATOM     10  C   UNL     1      -5.414  -0.467  -4.544  0.00  0.00    +0.027 A 
ATOM     11  C   UNL     1      -4.828  -0.122  -3.328  0.00  0.00    +0.053 A 
ATOM     12  N   UNL     1      -3.713  -0.812  -2.882  0.00  0.00    -0.307 N 
ATOM     13  H   UNL     1      -5.180   2.006  -0.837  0.00  0.00    +0.155 HD
ATOM     14  H   UNL     1      -3.344  -1.533  -3.416  0.00  0.00    +0.152 HD
ENDROOT
BRANCH   8  15
ATOM     15  N   UNL     1      -8.245   1.985  -4.737  0.00  0.00    +0.056 N 
ATOM     16  O   UNL     1      -8.714   2.888  -4.084  0.00  0.00    -0.126 OA
ATOM     17  O   UNL     1      -8.747   1.679  -5.794  0.00  0.00    -0.126 OA
ENDBRANCH   8  15
BRANCH   1  18
ATOM     18  N   UNL     1      -1.411  -2.040  -2.035  0.00  0.00    -0.030 NA
ATOM     19  O   UNL     1      -0.498  -2.722  -1.606  0.00  0.00    -0.143 OA
ENDBRANCH   1  18
BRANCH   1  20
ATOM     20  C   UNL     1      -1.506  -0.955   0.152  0.00  0.00    +0.198 C 
BRANCH  20  26
ATOM     21  C   UNL     1      -0.253   1.204   0.340  0.00  0.00    +0.008 A 
ATOM     22  C   UNL     1       0.918   1.937   0.287  0.00  0.00    +0.022 A 
ATOM     23  C   UNL     1       2.114   1.309  -0.012  0.00  0.00    +0.059 A 
ATOM     24  C   UNL     1       2.138  -0.053  -0.258  0.00  0.00    +0.060 A 
ATOM     25  C   UNL     1       0.965  -0.785  -0.205  0.00  0.00    +0.028 A 
ATOM     26  C   UNL     1      -0.229  -0.157   0.094  0.00  0.00    -0.012 A 
ATOM     27 CL   UNL     1       3.638  -0.842  -0.634  0.00  0.00    -0.082 Cl
ATOM     28 CL   UNL     1       3.585   2.229  -0.079  0.00  0.00    -0.082 Cl
ENDBRANCH  20  26
BRANCH  20  29
ATOM     29  O   UNL     1      -1.253  -2.213   0.780  0.00  0.00    -0.381 OA
ATOM     30  H   UNL     1      -0.418  -2.623   0.517  0.00  0.00    +0.211 HD
ENDBRANCH  20  29
ENDBRANCH   1  20
TORSDOF 5
