REMARK  Name = ZINC43460982
REMARK  4 active torsions:
REMARK  status: ('A' for Active; 'I' for Inactive)
REMARK    1  A    between atoms: C_8  and  C_11
REMARK    2  A    between atoms: C_11  and  C_12
REMARK    3  A    between atoms: C_12  and  C_18
REMARK    4  A    between atoms: C_18  and  N_19
REMARK                            x       y       z     vdW  Elec       q    Type
REMARK                         _______ _______ _______ _____ _____    ______ ____
ROOT
ATOM      1  C   UNL     1      -3.874   4.601   0.074  0.00  0.00    +0.079 C 
ENDROOT
BRANCH   1   9
ATOM      2  C   UNL     1      -5.620   3.771   4.697  0.00  0.00    +0.046 A 
ATOM      3  C   UNL     1      -6.611   4.419   5.415  0.00  0.00    +0.038 A 
ATOM      4  C   UNL     1      -7.290   5.480   4.835  0.00  0.00    +0.128 A 
ATOM      5  N   UNL     1      -7.013   5.886   3.615  0.00  0.00    -0.233 NA
ATOM      6  C   UNL     1      -6.070   5.298   2.883  0.00  0.00    +0.178 A 
ATOM      7  C   UNL     1      -5.339   4.221   3.413  0.00  0.00    +0.086 A 
ATOM      8  N   UNL     1      -4.449   3.838   2.431  0.00  0.00    -0.340 N 
ATOM      9  C   UNL     1      -4.641   4.666   1.370  0.00  0.00    +0.110 A 
ATOM     10  N   UNL     1      -5.595   5.513   1.630  0.00  0.00    -0.213 NA
ATOM     11  H   UNL     1      -3.806   3.114   2.487  0.00  0.00    +0.167 HD
ATOM     12 BR   UNL     1      -7.037   3.860   7.171  0.00  0.00    -0.049 Br
ENDBRANCH   1   9
BRANCH   1  13
ATOM     13  C   UNL     1      -4.851   4.414  -1.088  0.00  0.00    -0.038 C 
ATOM     14  C   UNL     1      -4.067   4.208  -2.385  0.00  0.00    +0.005 C 
ATOM     15  C   UNL     1      -3.188   5.432  -2.650  0.00  0.00    +0.000 C 
ATOM     16  C   UNL     1      -4.070   6.675  -2.779  0.00  0.00    +0.000 C 
ATOM     17  C   UNL     1      -4.854   6.882  -1.482  0.00  0.00    +0.000 C 
ATOM     18  C   UNL     1      -5.733   5.658  -1.217  0.00  0.00    +0.005 C 
BRANCH  13  19
ATOM     19  C   UNL     1      -5.731   3.191  -0.823  0.00  0.00    -0.079 C 
BRANCH  19  20
ATOM     20  N   UNL     1      -4.879   2.014  -0.601  0.00  0.00    +0.378 N 
ATOM     21  H   UNL     1      -5.456   1.224  -0.354  0.00  0.00    -0.090 HD
ATOM     22  H   UNL     1      -4.367   1.806  -1.445  0.00  0.00    -0.090 HD
ATOM     23  H   UNL     1      -4.231   2.205   0.148  0.00  0.00    -0.090 HD
ENDBRANCH  19  20
ENDBRANCH  13  19
ENDBRANCH   1  13
TORSDOF 4
