REMARK  Name = ZINC09127358
REMARK  8 active torsions:
REMARK  status: ('A' for Active; 'I' for Inactive)
REMARK    1  A    between atoms: C_3  and  O_26
REMARK    2  A    between atoms: C_6  and  C_7
REMARK    3  A    between atoms: C_10  and  S_13
REMARK    4  A    between atoms: N_11  and  N_12
REMARK    5  A    between atoms: S_13  and  C_14
REMARK    6  A    between atoms: C_14  and  C_15
REMARK    7  A    between atoms: N_17  and  C_18
REMARK    8  A    between atoms: O_26  and  C_27
REMARK                            x       y       z     vdW  Elec       q    Type
REMARK                         _______ _______ _______ _____ _____    ______ ____
ROOT
ATOM      1  C   UNL     1       3.660   3.145  -0.082  0.00  0.00    +0.182 A 
ATOM      2  N   UNL     1       3.763   1.845   0.070  0.00  0.00    -0.127 NA
ATOM      3  N   UNL     1       2.598   1.304   0.025  0.00  0.00    -0.121 NA
ATOM      4  C   UNL     1       1.680   2.224  -0.167  0.00  0.00    +0.209 A 
ATOM      5  N   UNL     1       2.323   3.428  -0.238  0.00  0.00    -0.224 N 
ENDROOT
BRANCH   1  11
ATOM      6  C   UNL     1       6.084   3.684  -0.267  0.00  0.00    +0.015 A 
ATOM      7  C   UNL     1       7.117   4.597  -0.274  0.00  0.00    +0.046 A 
ATOM      8  C   UNL     1       6.853   5.948  -0.087  0.00  0.00    +0.127 A 
ATOM      9  C   UNL     1       5.548   6.385   0.101  0.00  0.00    +0.046 A 
ATOM     10  C   UNL     1       4.510   5.479   0.103  0.00  0.00    +0.015 A 
ATOM     11  C   UNL     1       4.771   4.120  -0.084  0.00  0.00    +0.021 A 
BRANCH   8  12
ATOM     12  O   UNL     1       7.874   6.844  -0.088  0.00  0.00    -0.434 OA
BRANCH  12  13
ATOM     13  C   UNL     1       9.191   6.327  -0.287  0.00  0.00    +0.541 C 
ATOM     14  F   UNL     1       9.493   5.415   0.730  0.00  0.00    -0.166 F 
ATOM     15  F   UNL     1       9.256   5.681  -1.526  0.00  0.00    -0.166 F 
ENDBRANCH  12  13
ENDBRANCH   8  12
ENDBRANCH   1  11
BRANCH   5  16
ATOM     16  N   UNL     1       1.756   4.657  -0.426  0.00  0.00    -0.295 N 
ATOM     17  H   UNL     1       1.601   5.122   0.455  0.00  0.00    +0.163 HD
ATOM     18  H   UNL     1       2.319   5.224  -1.041  0.00  0.00    +0.163 HD
ENDBRANCH   5  16
BRANCH   4  19
ATOM     19  S   UNL     1      -0.056   1.957  -0.300  0.00  0.00    -0.075 S 
BRANCH  19  20
ATOM     20  C   UNL     1      -0.113   0.158  -0.109  0.00  0.00    +0.173 C 
BRANCH  20  21
ATOM     21  C   UNL     1      -1.542  -0.311  -0.192  0.00  0.00    +0.228 C 
ATOM     22  O   UNL     1      -2.435   0.491  -0.363  0.00  0.00    -0.275 OA
ATOM     23  N   UNL     1      -1.829  -1.623  -0.076  0.00  0.00    -0.283 N 
ATOM     24  H   UNL     1      -1.111  -2.273  -0.013  0.00  0.00    +0.155 HD
BRANCH  23  25
ATOM     25  C   UNL     1      -3.163  -2.049  -0.046  0.00  0.00    +0.069 A 
ATOM     26  C   UNL     1      -4.126  -1.369  -0.779  0.00  0.00    +0.027 A 
ATOM     27  C   UNL     1      -5.442  -1.791  -0.748  0.00  0.00    +0.017 A 
ATOM     28  C   UNL     1      -5.800  -2.890   0.013  0.00  0.00    +0.021 A 
ATOM     29  C   UNL     1      -4.844  -3.570   0.745  0.00  0.00    +0.055 A 
ATOM     30  C   UNL     1      -3.524  -3.156   0.713  0.00  0.00    +0.146 A 
ATOM     31  F   UNL     1      -2.589  -3.824   1.423  0.00  0.00    -0.204 F 
ATOM     32 BR   UNL     1      -7.602  -3.463   0.051  0.00  0.00    -0.050 Br
ENDBRANCH  23  25
ENDBRANCH  20  21
ENDBRANCH  19  20
ENDBRANCH   4  19
TORSDOF 8
