REMARK  Name = ZINC16431020
REMARK  4 active torsions:
REMARK  status: ('A' for Active; 'I' for Inactive)
REMARK    1  A    between atoms: C_6  and  N_7
REMARK    2  A    between atoms: C_8  and  C_9
REMARK    3  A    between atoms: C_11  and  N_15
REMARK    4  A    between atoms: C_19  and  C_21
REMARK                            x       y       z     vdW  Elec       q    Type
REMARK                         _______ _______ _______ _____ _____    ______ ____
ROOT
ATOM      1  C   UNL     1       2.378   1.444  -0.014  0.00  0.00    +0.031 A 
ATOM      2  C   UNL     1       1.174   2.113   0.002  0.00  0.00    +0.050 A 
ATOM      3  C   UNL     1      -0.017   1.401   0.010  0.00  0.00    +0.156 A 
ATOM      4  C   UNL     1       0.002  -0.004   0.002  0.00  0.00    +0.112 A 
ATOM      5  C   UNL     1       1.221  -0.680  -0.014  0.00  0.00    +0.059 A 
ATOM      6  C   UNL     1       2.409   0.044  -0.021  0.00  0.00    +0.066 A 
ATOM      7  N   UNL     1      -1.294  -0.412   0.013  0.00  0.00    -0.209 NA
ATOM      8  C   UNL     1      -2.067   0.645   0.026  0.00  0.00    +0.234 A 
ATOM      9  O   UNL     1      -1.320   1.765   0.030  0.00  0.00    -0.435 OA
ENDROOT
BRANCH   8  10
ATOM     10  C   UNL     1      -3.543   0.613   0.040  0.00  0.00    +0.113 A 
ATOM     11  C   UNL     1      -4.219  -0.611   0.035  0.00  0.00    +0.176 A 
ATOM     12  C   UNL     1      -5.602  -0.634   0.054  0.00  0.00    +0.197 A 
ATOM     13  C   UNL     1      -6.318   0.554   0.067  0.00  0.00    +0.199 A 
ATOM     14  C   UNL     1      -5.653   1.771   0.067  0.00  0.00    +0.197 A 
ATOM     15  C   UNL     1      -4.271   1.808   0.054  0.00  0.00    +0.176 A 
ATOM     16  F   UNL     1      -3.625   2.994   0.054  0.00  0.00    -0.201 F 
ATOM     17  F   UNL     1      -6.358   2.924   0.080  0.00  0.00    -0.199 F 
ATOM     18  F   UNL     1      -7.669   0.525   0.080  0.00  0.00    -0.199 F 
ATOM     19  F   UNL     1      -6.256  -1.816   0.054  0.00  0.00    -0.199 F 
ATOM     20  F   UNL     1      -3.523  -1.768   0.016  0.00  0.00    -0.201 F 
ENDBRANCH   8  10
BRANCH   6  21
ATOM     21  N   UNL     1       3.611  -0.612  -0.036  0.00  0.00    -0.255 NA
ATOM     22  C   UNL     1       4.558  -0.220  -0.842  0.00  0.00    +0.123 C 
BRANCH  22  23
ATOM     23  C   UNL     1       5.848  -0.925  -0.858  0.00  0.00    +0.042 A 
ATOM     24  C   UNL     1       6.867  -0.508  -1.720  0.00  0.00    +0.046 A 
ATOM     25  C   UNL     1       8.073  -1.174  -1.730  0.00  0.00    +0.127 A 
ATOM     26  C   UNL     1       8.283  -2.255  -0.889  0.00  0.00    +0.036 A 
ATOM     27  C   UNL     1       7.285  -2.677  -0.032  0.00  0.00    +0.054 A 
ATOM     28  C   UNL     1       6.066  -2.017  -0.004  0.00  0.00    +0.188 A 
ATOM     29  O   UNL     1       5.088  -2.428   0.842  0.00  0.00    -0.287 OA
BRANCH  25  30
ATOM     30  N   UNL     1       9.151  -0.732  -2.643  0.00  0.00    +0.056 N 
ATOM     31  O   UNL     1       8.971   0.218  -3.384  0.00  0.00    -0.126 OA
ATOM     32  O   UNL     1      10.219  -1.318  -2.654  0.00  0.00    -0.126 OA
ENDBRANCH  25  30
ENDBRANCH  22  23
ENDBRANCH   6  21
TORSDOF 4
