REMARK  Name = ZINC05414951
REMARK  10 active torsions:
REMARK  status: ('A' for Active; 'I' for Inactive)
REMARK    1  A    between atoms: C_1  and  C_2
REMARK    2  A    between atoms: C_5  and  N_9
REMARK    3  A    between atoms: C_6  and  C_8
REMARK    4  A    between atoms: C_10  and  S_14
REMARK    5  A    between atoms: S_14  and  C_15
REMARK    6  A    between atoms: C_15  and  C_17
REMARK    7  A    between atoms: C_15  and  C_18
REMARK    8  A    between atoms: N_20  and  C_21
REMARK    9  A    between atoms: C_26  and  C_31
REMARK   10  A    between atoms: C_28  and  C_30
REMARK                            x       y       z     vdW  Elec       q    Type
REMARK                         _______ _______ _______ _____ _____    ______ ____
ROOT
ATOM      1  S   UNL     1      -0.605   4.503   6.594  0.00  0.00    -0.072 S 
ENDROOT
BRANCH   1   3
ATOM      2  N   UNL     1      -1.057   6.160   8.793  0.00  0.00    -0.187 N 
ATOM      3  C   UNL     1      -1.540   5.317   7.845  0.00  0.00    +0.215 A 
ATOM      4  N   UNL     1      -2.839   5.228   8.034  0.00  0.00    -0.101 NA
ATOM      5  N   UNL     1      -3.199   5.947   9.035  0.00  0.00    -0.022 NA
ATOM      6  N   UNL     1      -2.179   6.546   9.548  0.00  0.00    -0.038 NA
BRANCH   2  11
ATOM      7  C   UNL     1       4.330   7.778   9.548  0.00  0.00    +0.044 C 
ATOM      8  C   UNL     1       2.900   7.348   9.348  0.00  0.00    -0.050 A 
ATOM      9  C   UNL     1       2.599   6.009   9.178  0.00  0.00    +0.005 A 
ATOM     10  C   UNL     1       1.288   5.612   8.999  0.00  0.00    +0.028 A 
ATOM     11  C   UNL     1       0.274   6.560   8.980  0.00  0.00    +0.073 A 
ATOM     12  C   UNL     1       0.579   7.903   9.151  0.00  0.00    -0.025 A 
ATOM     13  C   UNL     1       1.891   8.294   9.334  0.00  0.00    +0.008 A 
ATOM     14  C   UNL     1      -0.520   8.934   9.136  0.00  0.00    +0.046 C 
ENDBRANCH   2  11
ENDBRANCH   1   3
BRANCH   1  15
ATOM     15  C   UNL     1      -1.926   3.591   5.758  0.00  0.00    +0.137 C 
ATOM     16  C   UNL     1      -2.513   2.552   6.715  0.00  0.00    +0.029 C 
BRANCH  15  17
ATOM     17  C   UNL     1      -1.365   2.895   4.544  0.00  0.00    +0.226 C 
ATOM     18  O   UNL     1      -0.187   2.610   4.498  0.00  0.00    -0.275 OA
ATOM     19  N   UNL     1      -2.174   2.588   3.510  0.00  0.00    -0.311 N 
ATOM     20  H   UNL     1      -3.116   2.815   3.547  0.00  0.00    +0.149 HD
BRANCH  19  21
ATOM     21  C   UNL     1      -1.629   1.911   2.330  0.00  0.00    +0.076 C 
ATOM     22  C   UNL     1      -1.609   0.401   2.572  0.00  0.00    +0.022 C 
ATOM     23  C   UNL     1      -1.040  -0.306   1.340  0.00  0.00    +0.002 C 
ATOM     24  C   UNL     1      -1.916   0.005   0.124  0.00  0.00    +0.003 C 
ATOM     25  C   UNL     1      -1.936   1.515  -0.117  0.00  0.00    -0.009 C 
ATOM     26  C   UNL     1      -2.505   2.222   1.115  0.00  0.00    +0.009 C 
ATOM     27  C   UNL     1      -2.524   3.732   0.873  0.00  0.00    +0.009 C 
ATOM     28  C   UNL     1      -0.511   2.009  -0.376  0.00  0.00    +0.008 C 
ENDBRANCH  19  21
ENDBRANCH  15  17
ENDBRANCH   1  15
TORSDOF 5
