REMARK  Name = ZINC58949336
REMARK  11 active torsions:
REMARK  status: ('A' for Active; 'I' for Inactive)
REMARK    1  A    between atoms: C_1  and  C_2
REMARK    2  A    between atoms: C_2  and  O_3
REMARK    3  A    between atoms: O_3  and  C_4
REMARK    4  A    between atoms: C_4  and  C_6
REMARK    5  A    between atoms: C_7  and  N_26
REMARK    6  A    between atoms: C_9  and  C_25
REMARK    7  A    between atoms: C_10  and  C_22
REMARK    8  A    between atoms: C_11  and  C_13
REMARK    9  A    between atoms: C_16  and  N_19
REMARK   10  A    between atoms: N_19  and  C_20
REMARK   11  A    between atoms: N_19  and  C_21
REMARK                            x       y       z     vdW  Elec       q    Type
REMARK                         _______ _______ _______ _____ _____    ______ ____
ROOT
ATOM      1  C   UNL     1      -2.787  -2.393   0.011  0.00  0.00    +0.105 C 
ATOM      2  C   UNL     1      -2.940  -3.740  -0.087  0.00  0.00    +0.195 C 
ATOM      3  O   UNL     1      -4.158  -4.309  -0.077  0.00  0.00    -0.446 OA
ATOM      4  C   UNL     1      -5.246  -3.568  -0.343  0.00  0.00    +0.113 C 
ATOM      5  C   UNL     1      -5.230  -2.233  -0.262  0.00  0.00    +0.064 C 
ATOM      6  C   UNL     1      -3.983  -1.491   0.141  0.00  0.00    +0.099 C 
ATOM      7  C   UNL     1      -6.522  -4.261  -0.745  0.00  0.00    +0.087 C 
ENDROOT
BRANCH   6   8
ATOM      8  C   UNL     1      -4.109  -1.030   1.570  0.00  0.00    -0.035 A 
ATOM      9  C   UNL     1      -4.271  -1.958   2.583  0.00  0.00    +0.006 A 
ATOM     10  C   UNL     1      -4.386  -1.538   3.893  0.00  0.00    +0.023 A 
ATOM     11  C   UNL     1      -4.340  -0.183   4.194  0.00  0.00    +0.029 A 
ATOM     12  C   UNL     1      -4.178   0.746   3.175  0.00  0.00    +0.023 A 
ATOM     13  C   UNL     1      -4.058   0.320   1.867  0.00  0.00    +0.006 A 
BRANCH  11  14
ATOM     14  N   UNL     1      -4.458   0.244   5.519  0.00  0.00    -0.336 N 
ATOM     15  C   UNL     1      -4.629  -0.737   6.593  0.00  0.00    +0.129 C 
ATOM     16  C   UNL     1      -4.409   1.674   5.834  0.00  0.00    +0.129 C 
ENDBRANCH  11  14
ENDBRANCH   6   8
BRANCH   5  17
ATOM     17  C   UNL     1      -6.447  -1.481  -0.564  0.00  0.00    +0.242 C 
ATOM     18  O   UNL     1      -7.462  -2.071  -0.886  0.00  0.00    -0.271 OA
ATOM     19  N   UNL     1      -6.445  -0.136  -0.486  0.00  0.00    -0.325 N 
ATOM     20  H   UNL     1      -5.637   0.334  -0.230  0.00  0.00    +0.145 HD
ATOM     21  H   UNL     1      -7.253   0.363  -0.687  0.00  0.00    +0.145 HD
ENDBRANCH   5  17
BRANCH   2  22
ATOM     22  N   UNL     1      -1.830  -4.534  -0.198  0.00  0.00    -0.329 N 
ATOM     23  H   UNL     1      -0.945  -4.143  -0.130  0.00  0.00    +0.145 HD
ATOM     24  H   UNL     1      -1.929  -5.488  -0.345  0.00  0.00    +0.145 HD
ENDBRANCH   2  22
BRANCH   1  25
ATOM     25  C   UNL     1      -1.498  -1.839  -0.004  0.00  0.00    +0.341 C 
ATOM     26  O   UNL     1      -1.066  -1.329  -1.022  0.00  0.00    -0.245 OA
BRANCH  25  27
ATOM     27  O   UNL     1      -0.736  -1.872   1.111  0.00  0.00    -0.462 OA
BRANCH  27  29
ATOM     28  C   UNL     1       1.274  -1.419   2.375  0.00  0.00    +0.048 C 
ATOM     29  C   UNL     1       0.566  -1.289   1.025  0.00  0.00    +0.229 C 
ENDBRANCH  27  29
ENDBRANCH  25  27
ENDBRANCH   1  25
TORSDOF 7
