REMARK  Name = ZINC14382993
REMARK  8 active torsions:
REMARK  status: ('A' for Active; 'I' for Inactive)
REMARK    1  A    between atoms: C_4  and  C_7
REMARK    2  A    between atoms: C_7  and  N_8
REMARK    3  A    between atoms: C_9  and  N_36
REMARK    4  A    between atoms: C_10  and  N_17
REMARK    5  A    between atoms: N_17  and  C_18
REMARK    6  A    between atoms: C_18  and  C_19
REMARK    7  A    between atoms: C_25  and  C_27
REMARK    8  A    between atoms: C_28  and  C_29
REMARK                            x       y       z     vdW  Elec       q    Type
REMARK                         _______ _______ _______ _____ _____    ______ ____
ROOT
ATOM      1  N   UNL     1       7.054   0.838  -2.428  0.00  0.00    -0.276 N 
ATOM      2  C   UNL     1       6.234  -0.005  -1.713  0.00  0.00    +0.128 A 
ATOM      3  C   UNL     1       4.930  -0.186  -2.125  0.00  0.00    +0.140 A 
ATOM      4  C   UNL     1       4.474   0.509  -3.262  0.00  0.00    +0.277 A 
ATOM      5  O   UNL     1       3.325   0.371  -3.645  0.00  0.00    -0.266 OA
ATOM      6  N   UNL     1       5.316   1.327  -3.923  0.00  0.00    -0.273 N 
ATOM      7  H   UNL     1       4.994   1.821  -4.730  0.00  0.00    +0.173 HD
ATOM      8  C   UNL     1       6.586   1.487  -3.509  0.00  0.00    +0.331 A 
ATOM      9  O   UNL     1       7.325   2.231  -4.125  0.00  0.00    -0.246 OA
ENDROOT
BRANCH   3  10
ATOM     10  N   UNL     1       4.066  -1.047  -1.417  0.00  0.00    -0.256 N 
ATOM     11  C   UNL     1       3.599  -2.165  -2.005  0.00  0.00    +0.244 C 
ATOM     12  O   UNL     1       3.836  -2.380  -3.180  0.00  0.00    -0.270 OA
BRANCH  11  13
ATOM     13  C   UNL     1       2.806  -3.122  -1.232  0.00  0.00    +0.068 C 
ATOM     14  C   UNL     1       2.337  -4.241  -1.821  0.00  0.00    +0.016 C 
BRANCH  14  15
ATOM     15  C   UNL     1       1.540  -5.203  -1.044  0.00  0.00    +0.010 A 
ATOM     16  C   UNL     1       1.266  -4.960   0.306  0.00  0.00    +0.011 A 
ATOM     17  C   UNL     1       0.518  -5.865   1.028  0.00  0.00    +0.001 A 
ATOM     18  C   UNL     1       0.038  -7.014   0.421  0.00  0.00    +0.003 A 
ATOM     19  C   UNL     1       0.304  -7.264  -0.913  0.00  0.00    +0.039 A 
ATOM     20  C   UNL     1       1.047  -6.364  -1.653  0.00  0.00    +0.131 A 
ATOM     21  F   UNL     1       1.302  -6.605  -2.958  0.00  0.00    -0.205 F 
ENDBRANCH  14  15
ENDBRANCH  11  13
BRANCH  10  22
ATOM     22  C   UNL     1       3.678  -0.725  -0.041  0.00  0.00    +0.149 C 
BRANCH  22  23
ATOM     23  C   UNL     1       2.371   0.024  -0.050  0.00  0.00    -0.030 A 
ATOM     24  C   UNL     1       1.176  -0.670  -0.078  0.00  0.00    +0.005 A 
ATOM     25  C   UNL     1      -0.023   0.017  -0.087  0.00  0.00    +0.000 A 
ATOM     26  C   UNL     1      -0.028   1.399  -0.067  0.00  0.00    +0.000 A 
ATOM     27  C   UNL     1       1.167   2.094  -0.038  0.00  0.00    +0.000 A 
ATOM     28  C   UNL     1       2.366   1.406  -0.030  0.00  0.00    +0.005 A 
ENDBRANCH  22  23
ENDBRANCH  10  22
ENDBRANCH   3  10
BRANCH   2  29
ATOM     29  N   UNL     1       6.711  -0.663  -0.605  0.00  0.00    -0.343 N 
ATOM     30  H   UNL     1       6.153  -1.313  -0.150  0.00  0.00    +0.144 HD
ATOM     31  H   UNL     1       7.605  -0.478  -0.277  0.00  0.00    +0.144 HD
ENDBRANCH   2  29
BRANCH   1  32
ATOM     32  C   UNL     1       8.443   1.035  -2.005  0.00  0.00    +0.163 C 
BRANCH  32  36
ATOM     33  C   UNL     1       8.645   4.297   0.745  0.00  0.00    +0.000 A 
ATOM     34  C   UNL     1       8.442   3.012   1.212  0.00  0.00    +0.000 A 
ATOM     35  C   UNL     1       8.376   1.956   0.322  0.00  0.00    +0.005 A 
ATOM     36  C   UNL     1       8.514   2.186  -1.035  0.00  0.00    -0.028 A 
ATOM     37  C   UNL     1       8.722   3.470  -1.500  0.00  0.00    +0.005 A 
ATOM     38  C   UNL     1       8.783   4.527  -0.611  0.00  0.00    +0.000 A 
ENDBRANCH  32  36
ENDBRANCH   1  32
TORSDOF 8
