REMARK  Name = ZINC61882611
REMARK  7 active torsions:
REMARK  status: ('A' for Active; 'I' for Inactive)
REMARK    1  A    between atoms: C_1  and  C_2
REMARK    2  A    between atoms: C_2  and  C_3
REMARK    3  A    between atoms: C_2  and  N_4
REMARK    4  A    between atoms: C_6  and  N_9
REMARK    5  A    between atoms: N_9  and  S_10
REMARK    6  A    between atoms: S_10  and  C_13
REMARK    7  A    between atoms: C_17  and  N_20
REMARK                            x       y       z     vdW  Elec       q    Type
REMARK                         _______ _______ _______ _____ _____    ______ ____
ROOT
ATOM      1  S   UNL     1      -5.948  -0.924   1.160  0.00  0.00    +0.074 S 
ATOM      2  O   UNL     1      -6.310  -1.279  -0.168  0.00  0.00    -0.150 OA
ATOM      3  O   UNL     1      -6.718  -1.313   2.289  0.00  0.00    -0.150 OA
ENDROOT
BRANCH   1   4
ATOM      4  C   UNL     1      -5.846   0.834   1.202  0.00  0.00    +0.126 A 
ATOM      5  C   UNL     1      -6.152   1.571   0.072  0.00  0.00    +0.050 A 
ATOM      6  C   UNL     1      -6.074   2.952   0.101  0.00  0.00    +0.045 A 
ATOM      7  C   UNL     1      -5.689   3.600   1.260  0.00  0.00    +0.044 A 
ATOM      8  C   UNL     1      -5.381   2.863   2.396  0.00  0.00    +0.042 A 
ATOM      9  C   UNL     1      -5.466   1.476   2.365  0.00  0.00    +0.065 A 
ATOM     10 BR   UNL     1      -5.054   0.468   3.911  0.00  0.00    -0.046 Br
ATOM     11 CL   UNL     1      -6.459   3.872  -1.320  0.00  0.00    -0.083 Cl
BRANCH   8  12
ATOM     12  N   UNL     1      -4.991   3.515   3.568  0.00  0.00    -0.357 N 
ATOM     13  H   UNL     1      -4.935   4.483   3.590  0.00  0.00    +0.142 HD
ATOM     14  H   UNL     1      -4.776   2.999   4.361  0.00  0.00    +0.142 HD
ENDBRANCH   8  12
ENDBRANCH   1   4
BRANCH   1  15
ATOM     15  N   UNL     1      -4.418  -1.509   1.405  0.00  0.00    -0.213 N 
ATOM     16  H   UNL     1      -4.227  -2.055   2.184  0.00  0.00    +0.174 HD
BRANCH  15  19
ATOM     17  N   UNL     1      -1.468  -0.630  -0.381  0.00  0.00    -0.267 N 
ATOM     18  C   UNL     1      -2.139  -0.805   0.789  0.00  0.00    +0.133 A 
ATOM     19  C   UNL     1      -3.396  -1.214   0.484  0.00  0.00    +0.085 A 
ATOM     20  C   UNL     1      -3.495  -1.292  -0.913  0.00  0.00    +0.158 A 
ATOM     21  N   UNL     1      -2.346  -0.937  -1.429  0.00  0.00    -0.177 NA
BRANCH  17  23
ATOM     22  C   UNL     1      -0.017   1.336  -0.483  0.00  0.00    +0.032 C 
ATOM     23  C   UNL     1      -0.077  -0.192  -0.521  0.00  0.00    +0.101 C 
ATOM     24  C   UNL     1       0.756  -0.764   0.627  0.00  0.00    +0.032 C 
ENDBRANCH  17  23
ENDBRANCH  15  19
ENDBRANCH   1  15
TORSDOF 5
