REMARK  Name = ZINC10424805
REMARK  6 active torsions:
REMARK  status: ('A' for Active; 'I' for Inactive)
REMARK    1  A    between atoms: N_11  and  C_14
REMARK    2  A    between atoms: C_14  and  C_15
REMARK    3  A    between atoms: N_17  and  C_18
REMARK    4  A    between atoms: C_18  and  C_19
REMARK    5  A    between atoms: C_19  and  C_20
REMARK    6  A    between atoms: C_20  and  N_21
REMARK                            x       y       z     vdW  Elec       q    Type
REMARK                         _______ _______ _______ _____ _____    ______ ____
ROOT
ATOM      1  C   UNL     1      -4.440   4.260   3.117  0.00  0.00    +0.235 C 
ATOM      2  O   UNL     1      -5.102   4.699   2.201  0.00  0.00    -0.274 OA
ATOM      3  N   UNL     1      -3.335   3.531   2.861  0.00  0.00    -0.314 N 
ATOM      4  H   UNL     1      -2.805   3.180   3.594  0.00  0.00    +0.149 HD
ENDROOT
BRANCH   1   5
ATOM      5  C   UNL     1      -4.852   4.529   4.541  0.00  0.00    +0.240 C 
BRANCH   5  16
ATOM      6  C   UNL     1     -10.791   7.094   4.581  0.00  0.00    +0.001 A 
ATOM      7  C   UNL     1     -10.898   5.714   4.574  0.00  0.00    +0.001 A 
ATOM      8  C   UNL     1      -9.763   4.921   4.566  0.00  0.00    +0.014 A 
ATOM      9  C   UNL     1      -8.510   5.517   4.564  0.00  0.00    +0.053 A 
ATOM     10  C   UNL     1      -8.401   6.922   4.570  0.00  0.00    +0.053 A 
ATOM     11  C   UNL     1      -9.548   7.703   4.579  0.00  0.00    +0.014 A 
ATOM     12  C   UNL     1      -7.051   7.527   4.568  0.00  0.00    +0.271 A 
ATOM     13  O   UNL     1      -6.921   8.735   4.573  0.00  0.00    -0.266 OA
ATOM     14  N   UNL     1      -5.967   6.727   4.559  0.00  0.00    -0.260 N 
ATOM     15  H   UNL     1      -5.085   7.131   4.557  0.00  0.00    +0.190 HD
ATOM     16  N   UNL     1      -6.074   5.336   4.552  0.00  0.00    -0.240 N 
ATOM     17  C   UNL     1      -7.269   4.712   4.549  0.00  0.00    +0.274 A 
ATOM     18  O   UNL     1      -7.326   3.498   4.538  0.00  0.00    -0.266 OA
ENDBRANCH   5  16
ENDBRANCH   1   5
BRANCH   3  19
ATOM     19  C   UNL     1      -2.934   3.269   1.477  0.00  0.00    +0.106 C 
BRANCH  19  20
ATOM     20  C   UNL     1      -1.657   2.426   1.466  0.00  0.00    +0.038 C 
BRANCH  20  21
ATOM     21  C   UNL     1      -1.239   2.153   0.020  0.00  0.00    +0.119 C 
BRANCH  21  22
ATOM     22  N   UNL     1      -0.016   1.346   0.009  0.00  0.00    -0.224 N 
ATOM     23  C   UNL     1       0.002  -0.004   0.002  0.00  0.00    +0.246 C 
ATOM     24  O   UNL     1      -0.952  -0.753   0.007  0.00  0.00    -0.273 OA
ATOM     25  C   UNL     1       1.461  -0.382  -0.014  0.00  0.00    +0.113 C 
ATOM     26  C   UNL     1       1.804  -1.205  -1.263  0.00  0.00    +0.035 C 
ATOM     27  C   UNL     1       2.878  -2.208  -0.767  0.00  0.00    +0.003 C 
ATOM     28  C   UNL     1       2.390  -2.558   0.661  0.00  0.00    +0.003 C 
ATOM     29  C   UNL     1       1.831  -1.226   1.208  0.00  0.00    +0.035 C 
ATOM     30  N   UNL     1       2.171   0.899  -0.014  0.00  0.00    -0.285 N 
ATOM     31  C   UNL     1       1.222   1.856   0.000  0.00  0.00    +0.309 C 
ATOM     32  O   UNL     1       1.463   3.047   0.004  0.00  0.00    -0.252 OA
ATOM     33  H   UNL     1       3.132   1.032  -0.022  0.00  0.00    +0.151 HD
ENDBRANCH  21  22
ENDBRANCH  20  21
ENDBRANCH  19  20
ENDBRANCH   3  19
TORSDOF 6
