REMARK  Name = ZINC12774345
REMARK  10 active torsions:
REMARK  status: ('A' for Active; 'I' for Inactive)
REMARK    1  A    between atoms: C_1  and  C_2
REMARK    2  A    between atoms: C_8  and  C_10
REMARK    3  A    between atoms: C_12  and  C_27
REMARK    4  A    between atoms: N_17  and  C_21
REMARK    5  A    between atoms: C_18  and  C_19
REMARK    6  A    between atoms: C_18  and  O_20
REMARK    7  A    between atoms: C_21  and  C_23
REMARK    8  A    between atoms: C_21  and  C_24
REMARK    9  A    between atoms: C_24  and  O_25
REMARK   10  A    between atoms: O_25  and  C_26
REMARK                            x       y       z     vdW  Elec       q    Type
REMARK                         _______ _______ _______ _____ _____    ______ ____
ROOT
ATOM      1  C   UNL     1      -0.564   4.282   6.288  0.00  0.00    +0.150 C 
ATOM      2  C   UNL     1      -0.567   5.546   5.421  0.00  0.00    +0.120 C 
ATOM      3  N   UNL     1      -1.301   5.279   4.184  0.00  0.00    -0.319 N 
ATOM      4  C   UNL     1      -1.351   4.047   3.655  0.00  0.00    +0.136 C 
ATOM      5  S   UNL     1      -2.217   3.814   2.196  0.00  0.00    -0.019 S 
ATOM      6  N   UNL     1      -0.751   2.991   4.223  0.00  0.00    -0.279 N 
ATOM      7  C   UNL     1       0.010   3.126   5.466  0.00  0.00    +0.145 C 
ATOM      8  C   UNL     1       1.476   3.416   5.140  0.00  0.00    +0.064 C 
ATOM      9  H   UNL     1      -1.760   6.007   3.737  0.00  0.00    +0.148 HD
ENDROOT
BRANCH   1  17
ATOM     10  C   UNL     1      -7.075   2.579   8.131  0.00  0.00    +0.089 C 
ATOM     11  C   UNL     1      -5.912   3.538   8.120  0.00  0.00    +0.136 A 
ATOM     12  C   UNL     1      -4.711   3.345   7.528  0.00  0.00    +0.091 A 
ATOM     13  C   UNL     1      -3.992   4.535   7.817  0.00  0.00    +0.168 A 
ATOM     14  N   UNL     1      -4.799   5.289   8.515  0.00  0.00    -0.063 NA
ATOM     15  O   UNL     1      -5.867   4.750   8.691  0.00  0.00    -0.358 OA
ATOM     16  N   UNL     1      -2.687   4.839   7.430  0.00  0.00    -0.267 N 
ATOM     17  C   UNL     1      -1.974   3.953   6.706  0.00  0.00    +0.228 C 
ATOM     18  O   UNL     1      -2.468   2.890   6.392  0.00  0.00    -0.275 OA
ATOM     19  H   UNL     1      -2.292   5.689   7.681  0.00  0.00    +0.156 HD
ENDBRANCH   1  17
BRANCH   2  20
ATOM     20  C   UNL     1      -1.236   6.669   6.171  0.00  0.00    -0.007 A 
ATOM     21  C   UNL     1      -2.579   6.929   5.973  0.00  0.00    +0.007 A 
ATOM     22  C   UNL     1      -3.195   7.955   6.664  0.00  0.00    +0.002 A 
ATOM     23  C   UNL     1      -2.466   8.730   7.547  0.00  0.00    +0.021 A 
ATOM     24  C   UNL     1      -1.121   8.475   7.742  0.00  0.00    +0.060 A 
ATOM     25  C   UNL     1      -0.505   7.444   7.054  0.00  0.00    +0.064 A 
ATOM     26 CL   UNL     1       1.184   7.123   7.298  0.00  0.00    -0.082 Cl
ATOM     27 CL   UNL     1      -0.205   9.448   8.851  0.00  0.00    -0.082 Cl
ENDBRANCH   2  20
BRANCH   7  28
ATOM     28  O   UNL     1      -0.083   1.913   6.217  0.00  0.00    -0.371 OA
ATOM     29  H   UNL     1       0.263   1.137   5.755  0.00  0.00    +0.212 HD
ENDBRANCH   7  28
BRANCH   6  30
ATOM     30  C   UNL     1      -0.864   1.675   3.590  0.00  0.00    +0.100 C 
ATOM     31  C   UNL     1      -2.314   1.435   3.167  0.00  0.00    +0.030 C 
BRANCH  30  32
ATOM     32  C   UNL     1       0.042   1.622   2.358  0.00  0.00    +0.181 C 
BRANCH  32  33
ATOM     33  O   UNL     1      -0.436   2.542   1.375  0.00  0.00    -0.381 OA
ATOM     34  C   UNL     1       0.344   2.571   0.178  0.00  0.00    +0.194 C 
ENDBRANCH  32  33
ENDBRANCH  30  32
ENDBRANCH   6  30
TORSDOF 6
