REMARK  Name = ZINC15206347
REMARK  7 active torsions:
REMARK  status: ('A' for Active; 'I' for Inactive)
REMARK    1  A    between atoms: C_9  and  O_11
REMARK    2  A    between atoms: O_11  and  C_12
REMARK    3  A    between atoms: C_14  and  O_27
REMARK    4  A    between atoms: C_16  and  O_26
REMARK    5  A    between atoms: C_18  and  O_25
REMARK    6  A    between atoms: C_20  and  C_23
REMARK    7  A    between atoms: C_23  and  O_24
REMARK                            x       y       z     vdW  Elec       q    Type
REMARK                         _______ _______ _______ _____ _____    ______ ____
ROOT
ATOM      1  C   UNL     1       6.027   2.031  -0.044  0.00  0.00    +0.339 C 
ATOM      2  C   UNL     1       7.224   1.082   0.065  0.00  0.00    +0.214 C 
ATOM      3  C   UNL     1       8.519   1.897  -0.005  0.00  0.00    +0.180 C 
ATOM      4  C   UNL     1       8.533   2.704  -1.307  0.00  0.00    +0.177 C 
ATOM      5  C   UNL     1       7.286   3.589  -1.363  0.00  0.00    +0.179 C 
ATOM      6  O   UNL     1       6.117   2.772  -1.262  0.00  0.00    -0.331 OA
ENDROOT
BRANCH   4   7
ATOM      7  O   UNL     1       8.534   1.810  -2.422  0.00  0.00    -0.386 OA
ATOM      8  H   UNL     1       9.296   1.214  -2.448  0.00  0.00    +0.210 HD
ENDBRANCH   4   7
BRANCH   3   9
ATOM      9  O   UNL     1       8.583   2.788   1.110  0.00  0.00    -0.386 OA
ATOM     10  H   UNL     1       8.572   2.345   1.970  0.00  0.00    +0.210 HD
ENDBRANCH   3   9
BRANCH   2  11
ATOM     11  O   UNL     1       7.167   0.381   1.309  0.00  0.00    -0.383 OA
ATOM     12  H   UNL     1       6.369  -0.153   1.423  0.00  0.00    +0.210 HD
ENDBRANCH   2  11
BRANCH   1  13
ATOM     13  O   UNL     1       4.816   1.272  -0.037  0.00  0.00    -0.459 OA
BRANCH  13  22
ATOM     14  C   UNL     1       2.486   4.070  -0.001  0.00  0.00    +0.004 A 
ATOM     15  C   UNL     1       1.276   3.445   0.008  0.00  0.00    +0.010 A 
ATOM     16  C   UNL     1       1.216   2.042   0.001  0.00  0.00    +0.004 A 
ATOM     17  C   UNL     1      -0.016   1.361   0.009  0.00  0.00    +0.011 A 
ATOM     18  C   UNL     1       0.002  -0.004   0.002  0.00  0.00    +0.020 A 
ATOM     19  C   UNL     1       1.219  -0.683  -0.013  0.00  0.00    +0.111 A 
ATOM     20  N   UNL     1       2.364  -0.045  -0.020  0.00  0.00    -0.251 NA
ATOM     21  C   UNL     1       2.416   1.290  -0.014  0.00  0.00    +0.113 A 
ATOM     22  C   UNL     1       3.651   1.971  -0.022  0.00  0.00    +0.150 A 
ATOM     23  C   UNL     1       3.669   3.337  -0.016  0.00  0.00    +0.048 A 
ENDBRANCH  13  22
ENDBRANCH   1  13
BRANCH   5  24
ATOM     24  C   UNL     1       7.261   4.354  -2.688  0.00  0.00    +0.190 C 
BRANCH  24  25
ATOM     25  O   UNL     1       6.162   5.266  -2.691  0.00  0.00    -0.392 OA
ATOM     26  H   UNL     1       6.084   5.786  -3.503  0.00  0.00    +0.210 HD
ENDBRANCH  24  25
ENDBRANCH   5  24
TORSDOF 7
