REMARK  Name = ZINC21141407
REMARK  11 active torsions:
REMARK  status: ('A' for Active; 'I' for Inactive)
REMARK    1  A    between atoms: C_1  and  C_2
REMARK    2  A    between atoms: C_2  and  C_4
REMARK    3  A    between atoms: C_2  and  N_10
REMARK    4  A    between atoms: C_11  and  C_13
REMARK    5  A    between atoms: C_13  and  C_15
REMARK    6  A    between atoms: C_13  and  S_16
REMARK    7  A    between atoms: S_16  and  C_17
REMARK    8  A    between atoms: C_20  and  C_23
REMARK    9  A    between atoms: N_21  and  N_22
REMARK   10  A    between atoms: C_26  and  O_29
REMARK   11  A    between atoms: O_29  and  C_30
REMARK                            x       y       z     vdW  Elec       q    Type
REMARK                         _______ _______ _______ _____ _____    ______ ____
ROOT
ATOM      1  C   UNL     1       2.667   4.356   0.737  0.00  0.00    +0.209 A 
ATOM      2  N   UNL     1       3.731   3.719   0.303  0.00  0.00    -0.121 NA
ATOM      3  N   UNL     1       4.776   4.453   0.453  0.00  0.00    -0.127 NA
ATOM      4  C   UNL     1       4.442   5.603   0.991  0.00  0.00    +0.182 A 
ATOM      5  N   UNL     1       3.080   5.578   1.185  0.00  0.00    -0.224 N 
ENDROOT
BRANCH   4   6
ATOM      6  C   UNL     1       5.356   6.716   1.321  0.00  0.00    +0.021 A 
ATOM      7  C   UNL     1       4.929   7.747   2.160  0.00  0.00    +0.015 A 
ATOM      8  C   UNL     1       5.787   8.782   2.469  0.00  0.00    +0.046 A 
ATOM      9  C   UNL     1       7.070   8.804   1.939  0.00  0.00    +0.127 A 
ATOM     10  C   UNL     1       7.497   7.783   1.100  0.00  0.00    +0.046 A 
ATOM     11  C   UNL     1       6.647   6.743   0.790  0.00  0.00    +0.015 A 
BRANCH   9  12
ATOM     12  O   UNL     1       7.910   9.828   2.242  0.00  0.00    -0.434 OA
BRANCH  12  13
ATOM     13  C   UNL     1       7.407  10.845   3.110  0.00  0.00    +0.541 C 
ATOM     14  F   UNL     1       6.282  11.441   2.529  0.00  0.00    -0.166 F 
ATOM     15  F   UNL     1       7.051  10.276   4.338  0.00  0.00    -0.166 F 
ENDBRANCH  12  13
ENDBRANCH   9  12
ENDBRANCH   4   6
BRANCH   5  16
ATOM     16  N   UNL     1       2.304   6.568   1.716  0.00  0.00    -0.295 N 
ATOM     17  H   UNL     1       2.764   7.513   2.041  0.00  0.00    +0.163 HD
ATOM     18  H   UNL     1       1.219   6.421   1.820  0.00  0.00    +0.163 HD
ENDBRANCH   5  16
BRANCH   1  19
ATOM     19  S   UNL     1       1.012   3.748   0.734  0.00  0.00    -0.072 S 
BRANCH  19  20
ATOM     20  C   UNL     1       1.278   2.115   0.001  0.00  0.00    +0.137 C 
ATOM     21  C   UNL     1       1.767   2.275  -1.440  0.00  0.00    +0.029 C 
BRANCH  20  23
ATOM     22  N   UNL     1       0.002  -0.004   0.002  0.00  0.00    -0.308 N 
ATOM     23  C   UNL     1      -0.016   1.344   0.009  0.00  0.00    +0.227 C 
ATOM     24  O   UNL     1      -1.075   1.936   0.018  0.00  0.00    -0.275 OA
ATOM     25  H   UNL     1       0.962  -0.541  -0.010  0.00  0.00    +0.149 HD
BRANCH  22  27
ATOM     26  C   UNL     1      -1.773  -0.899  -1.423  0.00  0.00    +0.033 C 
ATOM     27  C   UNL     1      -1.256  -0.754   0.010  0.00  0.00    +0.100 C 
BRANCH  27  28
ATOM     28  C   UNL     1      -1.024  -2.120   0.601  0.00  0.00    -0.027 A 
ATOM     29  C   UNL     1       0.126  -2.821   0.289  0.00  0.00    +0.005 A 
ATOM     30  C   UNL     1       0.342  -4.073   0.834  0.00  0.00    +0.000 A 
ATOM     31  C   UNL     1      -0.596  -4.628   1.684  0.00  0.00    +0.000 A 
ATOM     32  C   UNL     1      -1.748  -3.929   1.993  0.00  0.00    +0.000 A 
ATOM     33  C   UNL     1      -1.962  -2.675   1.451  0.00  0.00    +0.005 A 
ENDBRANCH  27  28
ENDBRANCH  22  27
ENDBRANCH  20  23
ENDBRANCH  19  20
ENDBRANCH   1  19
TORSDOF 9
