REMARK  Name = ZINC38653534
REMARK  10 active torsions:
REMARK  status: ('A' for Active; 'I' for Inactive)
REMARK    1  A    between atoms: C_1  and  C_2
REMARK    2  A    between atoms: C_4  and  O_43
REMARK    3  A    between atoms: C_14  and  C_15
REMARK    4  A    between atoms: C_14  and  O_32
REMARK    5  A    between atoms: C_15  and  C_17
REMARK    6  A    between atoms: C_17  and  O_18
REMARK    7  A    between atoms: O_18  and  C_19
REMARK    8  A    between atoms: C_19  and  C_21
REMARK    9  A    between atoms: C_27  and  C_29
REMARK   10  A    between atoms: C_41  and  C_42
REMARK                            x       y       z     vdW  Elec       q    Type
REMARK                         _______ _______ _______ _____ _____    ______ ____
ROOT
ATOM      1  C   UNL     1       1.016   1.319  -0.343  0.00  0.00    +0.015 C 
ATOM      2  C   UNL     1       0.668  -0.167  -0.251  0.00  0.00    +0.009 C 
ATOM      3  C   UNL     1      -0.790  -0.375   0.058  0.00  0.00    +0.041 C 
ATOM      4  C   UNL     1      -1.068  -0.311   1.569  0.00  0.00    +0.120 C 
ATOM      5  C   UNL     1       0.083   0.302   2.337  0.00  0.00    +0.035 C 
ATOM      6  C   UNL     1       1.383  -0.479   2.167  0.00  0.00    -0.000 C 
ATOM      7  C   UNL     1       1.557  -0.934   0.748  0.00  0.00    +0.002 C 
ATOM      8  C   UNL     1       2.951  -0.770   0.126  0.00  0.00    +0.008 C 
ATOM      9  C   UNL     1       2.677  -0.926  -1.395  0.00  0.00    +0.043 C 
ATOM     10  C   UNL     1       1.143  -0.801  -1.579  0.00  0.00    +0.133 C 
ATOM     11  C   UNL     1       2.556   0.357   2.676  0.00  0.00    +0.008 C 
ATOM     12  C   UNL     1       2.365   0.613   4.179  0.00  0.00    +0.032 C 
ATOM     13  C   UNL     1       1.001   1.243   4.390  0.00  0.00    -0.056 C 
ATOM     14  C   UNL     1       0.923   2.384   5.058  0.00  0.00    +0.051 C 
ATOM     15  C   UNL     1      -0.373   3.047   5.267  0.00  0.00    +0.179 C 
ATOM     16  O   UNL     1      -0.452   4.070   5.920  0.00  0.00    -0.288 OA
ATOM     17  C   UNL     1      -1.571   2.445   4.659  0.00  0.00    +0.047 C 
ATOM     18  C   UNL     1      -1.473   1.303   3.999  0.00  0.00    -0.012 C 
ATOM     19  C   UNL     1      -0.204   0.538   3.819  0.00  0.00    +0.013 C 
ATOM     20  C   UNL     1      -0.360  -0.786   4.559  0.00  0.00    +0.020 C 
ENDROOT
BRANCH  10  21
ATOM     21  C   UNL     1       0.819   0.114  -2.725  0.00  0.00    +0.202 C 
ATOM     22  O   UNL     1       1.645   0.900  -3.124  0.00  0.00    -0.291 OA
BRANCH  21  23
ATOM     23  C   UNL     1      -0.538   0.052  -3.378  0.00  0.00    +0.309 C 
BRANCH  23  24
ATOM     24  O   UNL     1      -0.603   1.012  -4.435  0.00  0.00    -0.457 OA
BRANCH  24  25
ATOM     25  C   UNL     1      -1.753   1.085  -5.122  0.00  0.00    +0.312 C 
ATOM     26  O   UNL     1      -2.675   0.357  -4.837  0.00  0.00    -0.250 OA
BRANCH  25  27
ATOM     27  C   UNL     1      -1.895   2.074  -6.251  0.00  0.00    +0.116 C 
ATOM     28  C   UNL     1      -3.378   2.345  -6.513  0.00  0.00    +0.042 C 
ATOM     29  C   UNL     1      -4.025   1.136  -7.124  0.00  0.00    -0.030 C 
ATOM     30  C   UNL     1      -3.371   0.164  -7.674  0.00  0.00    -0.030 C 
ATOM     31  C   UNL     1      -1.874   0.105  -7.768  0.00  0.00    +0.042 C 
ATOM     32  C   UNL     1      -1.271   1.494  -7.526  0.00  0.00    +0.120 C 
BRANCH  32  33
ATOM     33  C   UNL     1       0.222   1.383  -7.354  0.00  0.00    +0.360 C 
ATOM     34  O   UNL     1       0.840   0.508  -7.936  0.00  0.00    -0.246 OA
ATOM     35  O   UNL     1       0.813   2.169  -6.633  0.00  0.00    -0.246 OA
ENDBRANCH  32  33
ENDBRANCH  25  27
ENDBRANCH  24  25
ENDBRANCH  23  24
ENDBRANCH  21  23
ENDBRANCH  10  21
BRANCH  10  36
ATOM     36  O   UNL     1       0.550  -2.082  -1.756  0.00  0.00    -0.380 OA
ATOM     37  H   UNL     1       0.812  -2.527  -2.573  0.00  0.00    +0.211 HD
ENDBRANCH  10  36
BRANCH   4  38
ATOM     38  O   UNL     1      -1.338  -1.642   2.027  0.00  0.00    -0.391 OA
ATOM     39  H   UNL     1      -2.100  -2.058   1.600  0.00  0.00    +0.210 HD
ENDBRANCH   4  38
TORSDOF 8
