REMARK  Name = ZINC28510273
REMARK  9 active torsions:
REMARK  status: ('A' for Active; 'I' for Inactive)
REMARK    1  A    between atoms: C_1  and  C_2
REMARK    2  A    between atoms: C_2  and  C_4
REMARK    3  A    between atoms: C_2  and  N_22
REMARK    4  A    between atoms: C_4  and  C_5
REMARK    5  A    between atoms: N_10  and  C_11
REMARK    6  A    between atoms: C_13  and  O_20
REMARK    7  A    between atoms: C_16  and  O_17
REMARK    8  A    between atoms: O_17  and  C_18
REMARK    9  A    between atoms: O_20  and  C_21
REMARK                            x       y       z     vdW  Elec       q    Type
REMARK                         _______ _______ _______ _____ _____    ______ ____
ROOT
ATOM      1  C   UNL     1      -2.231  -0.338   1.317  0.00  0.00    +0.049 A 
ATOM      2  C   UNL     1      -3.267   0.535   1.311  0.00  0.00    +0.071 A 
ATOM      3  S   UNL     1      -3.437   0.863   3.059  0.00  0.00    -0.060 S 
ATOM      4  C   UNL     1      -2.151  -0.166   3.608  0.00  0.00    +0.163 A 
ATOM      5  N   UNL     1      -1.698  -0.673   2.477  0.00  0.00    -0.230 NA
ATOM      6  N   UNL     1      -1.714  -0.399   4.904  0.00  0.00    -0.291 N 
ATOM      7  H   UNL     1      -0.811  -1.001   5.080  0.00  0.00    +0.154 HD
ENDROOT
BRANCH   6   8
ATOM      8  C   UNL     1      -2.425   0.131   5.988  0.00  0.00    +0.079 A 
ATOM      9  C   UNL     1      -3.805   0.255   5.921  0.00  0.00    +0.074 A 
ATOM     10  C   UNL     1      -4.506   0.775   6.998  0.00  0.00    +0.140 A 
ATOM     11  C   UNL     1      -3.826   1.183   8.137  0.00  0.00    +0.086 A 
ATOM     12  C   UNL     1      -2.450   1.066   8.204  0.00  0.00    +0.071 A 
ATOM     13  C   UNL     1      -1.746   0.541   7.133  0.00  0.00    +0.143 A 
ATOM     14 CL   UNL     1      -4.706   1.841   9.482  0.00  0.00    -0.080 Cl
BRANCH  13  15
ATOM     15  O   UNL     1      -0.391   0.427   7.199  0.00  0.00    -0.493 OA
ATOM     16  C   UNL     1       0.239   0.867   8.403  0.00  0.00    +0.277 C 
ENDBRANCH  13  15
BRANCH  10  17
ATOM     17  O   UNL     1      -5.859   0.890   6.935  0.00  0.00    -0.494 OA
ATOM     18  C   UNL     1      -6.493   0.451   5.732  0.00  0.00    +0.277 C 
ENDBRANCH  10  17
ENDBRANCH   6   8
BRANCH   1  19
ATOM     19  C   UNL     1      -1.704  -0.918   0.030  0.00  0.00    +0.039 C 
BRANCH  19  21
ATOM     20  C   UNL     1       0.357  -1.341  -1.317  0.00  0.00    -0.014 C 
ATOM     21  C   UNL     1      -0.202  -0.646  -0.074  0.00  0.00    -0.072 C 
BRANCH  21  22
ATOM     22  N   UNL     1       0.027   0.802  -0.178  0.00  0.00    +0.380 N 
ATOM     23  H   UNL     1      -0.375   1.301   0.715  0.00  0.00    -0.090 HD
ATOM     24  H   UNL     1      -0.480   1.190  -1.074  0.00  0.00    -0.090 HD
ATOM     25  H   UNL     1       1.107   0.998  -0.254  0.00  0.00    -0.090 HD
ENDBRANCH  21  22
ENDBRANCH  19  21
ENDBRANCH   1  19
TORSDOF 6
