REMARK  Name = ZINC02798272
REMARK  6 active torsions:
REMARK  status: ('A' for Active; 'I' for Inactive)
REMARK    1  A    between atoms: C_5  and  O_7
REMARK    2  A    between atoms: O_7  and  C_8
REMARK    3  A    between atoms: C_8  and  N_9
REMARK    4  A    between atoms: C_12  and  C_14
REMARK    5  A    between atoms: N_16  and  C_17
REMARK    6  A    between atoms: C_18  and  C_27
REMARK                            x       y       z     vdW  Elec       q    Type
REMARK                         _______ _______ _______ _____ _____    ______ ____
ROOT
ATOM      1  C   UNL     1      -0.976  -7.525  -0.037  0.00  0.00    +0.269 C 
ATOM      2  O   UNL     1      -0.373  -8.580  -0.047  0.00  0.00    -0.268 OA
ATOM      3  N   UNL     1      -2.324  -7.518  -0.030  0.00  0.00    -0.274 N 
ATOM      4  H   UNL     1      -2.805  -6.676  -0.022  0.00  0.00    +0.156 HD
ENDROOT
BRANCH   3   5
ATOM      5  C   UNL     1      -3.022  -8.715  -0.033  0.00  0.00    +0.085 A 
ATOM      6  C   UNL     1      -4.394  -8.900  -0.032  0.00  0.00    +0.068 A 
ATOM      7  C   UNL     1      -4.885 -10.272  -0.037  0.00  0.00    -0.023 A 
ATOM      8  C   UNL     1      -3.908 -11.202  -0.035  0.00  0.00    -0.004 A 
ATOM      9  S   UNL     1      -2.400 -10.274  -0.047  0.00  0.00    -0.077 S 
ATOM     10  C   UNL     1      -4.062 -12.691  -0.019  0.00  0.00    +0.043 C 
ATOM     11  C   UNL     1      -5.073 -13.103  -1.098  0.00  0.00    +0.005 C 
ATOM     12  C   UNL     1      -6.470 -13.095  -0.485  0.00  0.00    +0.001 C 
ATOM     13  C   UNL     1      -6.575 -11.999   0.574  0.00  0.00    +0.005 C 
ATOM     14  C   UNL     1      -6.364 -10.626  -0.056  0.00  0.00    +0.037 C 
BRANCH   6  15
ATOM     15  C   UNL     1      -5.317  -7.761  -0.027  0.00  0.00    +0.244 C 
ATOM     16  O   UNL     1      -5.701  -7.285  -1.079  0.00  0.00    -0.270 OA
ATOM     17  N   UNL     1      -5.739  -7.242   1.143  0.00  0.00    -0.325 N 
ATOM     18  H   UNL     1      -5.433  -7.621   1.981  0.00  0.00    +0.145 HD
ATOM     19  H   UNL     1      -6.350  -6.488   1.146  0.00  0.00    +0.145 HD
ENDBRANCH   6  15
ENDBRANCH   3   5
BRANCH   1  23
ATOM     20  N   UNL     1       0.184  -4.157  -0.023  0.00  0.00    -0.235 N 
ATOM     21  C   UNL     1       1.393  -4.759  -0.033  0.00  0.00    +0.113 A 
ATOM     22  C   UNL     1       1.175  -6.095  -0.040  0.00  0.00    +0.054 A 
ATOM     23  C   UNL     1      -0.232  -6.249  -0.034  0.00  0.00    +0.147 A 
ATOM     24  N   UNL     1      -0.751  -5.038  -0.018  0.00  0.00    -0.164 NA
BRANCH  20  25
ATOM     25  C   UNL     1      -0.030  -2.708  -0.013  0.00  0.00    +0.374 C 
BRANCH  25  26
ATOM     26  O   UNL     1       1.233  -2.040  -0.022  0.00  0.00    -0.467 OA
BRANCH  26  31
ATOM     27  C   UNL     1      -0.017   1.378   0.010  0.00  0.00    +0.004 A 
ATOM     28  C   UNL     1       1.170   2.087   0.002  0.00  0.00    +0.003 A 
ATOM     29  C   UNL     1       2.379   1.417  -0.013  0.00  0.00    +0.042 A 
ATOM     30  C   UNL     1       2.404   0.034  -0.022  0.00  0.00    +0.165 A 
ATOM     31  C   UNL     1       1.212  -0.680  -0.014  0.00  0.00    +0.158 A 
ATOM     32  C   UNL     1       0.002  -0.004   0.002  0.00  0.00    +0.049 A 
ATOM     33  F   UNL     1       3.585  -0.622  -0.038  0.00  0.00    -0.202 F 
ENDBRANCH  26  31
ENDBRANCH  25  26
ENDBRANCH  20  25
ENDBRANCH   1  23
TORSDOF 6
