REMARK  Name = ZINC15973671
REMARK  5 active torsions:
REMARK  status: ('A' for Active; 'I' for Inactive)
REMARK    1  A    between atoms: C_1  and  C_2
REMARK    2  A    between atoms: C_5  and  N_8
REMARK    3  A    between atoms: N_12  and  N_13
REMARK    4  A    between atoms: C_14  and  C_15
REMARK    5  A    between atoms: C_14  and  C_16
REMARK                            x       y       z     vdW  Elec       q    Type
REMARK                         _______ _______ _______ _____ _____    ______ ____
ROOT
ATOM      1  N   UNL     1       0.264  -4.147  -0.006  0.00  0.00    -0.295 N 
ATOM      2  C   UNL     1       0.144  -4.861   1.157  0.00  0.00    +0.150 C 
ATOM      3  N   UNL     1       0.283  -6.176   1.142  0.00  0.00    -0.307 N 
ATOM      4  C   UNL     1       0.311  -6.861   2.297  0.00  0.00    +0.221 C 
ATOM      5  N   UNL     1       0.321  -6.213   3.451  0.00  0.00    -0.113 NA
ATOM      6  N   UNL     1       0.329  -8.240   2.280  0.00  0.00    -0.368 N 
ATOM      7  S   UNL     1      -0.197  -4.028   2.671  0.00  0.00    -0.016 SA
ATOM      8  H   UNL     1       0.076  -4.571  -0.857  0.00  0.00    +0.154 HD
ATOM      9  H   UNL     1       0.405  -8.714   1.437  0.00  0.00    +0.159 HD
ATOM     10  H   UNL     1       0.267  -8.736   3.112  0.00  0.00    +0.159 HD
ATOM     11  H   UNL     1       0.365  -6.645   0.297  0.00  0.00    +0.171 HD
ENDROOT
BRANCH   1  16
ATOM     12  C   UNL     1       1.861   1.294   0.161  0.00  0.00    +0.044 C 
ATOM     13  C   UNL     1       1.437  -0.152   0.116  0.00  0.00    -0.050 A 
ATOM     14  C   UNL     1       1.894  -1.035   1.077  0.00  0.00    +0.005 A 
ATOM     15  C   UNL     1       1.507  -2.360   1.040  0.00  0.00    +0.023 A 
ATOM     16  C   UNL     1       0.657  -2.805   0.035  0.00  0.00    +0.033 A 
ATOM     17  C   UNL     1       0.200  -1.916  -0.928  0.00  0.00    +0.023 A 
ATOM     18  C   UNL     1       0.587  -0.591  -0.882  0.00  0.00    +0.005 A 
ENDBRANCH   1  16
BRANCH   5  19
ATOM     19  N   UNL     1       0.349  -6.928   4.655  0.00  0.00    -0.156 NA
ATOM     20  C   UNL     1       0.359  -6.294   5.784  0.00  0.00    +0.035 C 
ATOM     21  C   UNL     1       0.339  -4.787   5.802  0.00  0.00    +0.062 C 
ATOM     22  C   UNL     1       0.390  -7.063   7.080  0.00  0.00    +0.062 C 
ENDBRANCH   5  19
TORSDOF 2
