REMARK  Name = ZINC51324684
REMARK  11 active torsions:
REMARK  status: ('A' for Active; 'I' for Inactive)
REMARK    1  A    between atoms: C_1  and  C_2
REMARK    2  A    between atoms: C_2  and  C_3
REMARK    3  A    between atoms: C_2  and  C_4
REMARK    4  A    between atoms: C_4  and  N_5
REMARK    5  A    between atoms: N_5  and  C_6
REMARK    6  A    between atoms: N_5  and  C_17
REMARK    7  A    between atoms: C_6  and  C_7
REMARK    8  A    between atoms: C_7  and  C_9
REMARK    9  A    between atoms: C_7  and  O_16
REMARK   10  A    between atoms: C_12  and  N_15
REMARK   11  A    between atoms: C_17  and  C_18
REMARK                            x       y       z     vdW  Elec       q    Type
REMARK                         _______ _______ _______ _____ _____    ______ ____
ROOT
ATOM      1  C   UNL     1      -3.447  -0.444  -0.808  0.00  0.00    -0.042 C 
ENDROOT
BRANCH   1   2
ATOM      2  N   UNL     1      -2.093  -0.133  -1.287  0.00  0.00    +0.387 N 
ATOM      3  H   UNL     1      -1.947  -0.566  -2.187  0.00  0.00    -0.081 HD
BRANCH   2   4
ATOM      4  C   UNL     1      -1.105  -0.647  -0.330  0.00  0.00    -0.075 C 
BRANCH   4   6
ATOM      5  C   UNL     1      -0.732  -2.717  -1.678  0.00  0.00    +0.005 C 
ATOM      6  C   UNL     1      -1.159  -2.176  -0.312  0.00  0.00    -0.034 C 
ATOM      7  C   UNL     1      -0.211  -2.707   0.765  0.00  0.00    +0.005 C 
ENDBRANCH   4   6
ENDBRANCH   2   4
BRANCH   2   8
ATOM      8  C   UNL     1      -1.941   1.323  -1.414  0.00  0.00    +0.018 C 
BRANCH   8   9
ATOM      9  C   UNL     1      -0.584   1.638  -1.988  0.00  0.00    +0.194 C 
ATOM     10  O   UNL     1       0.136   0.740  -2.372  0.00  0.00    -0.278 OA
ATOM     11  N   UNL     1      -0.170   2.918  -2.076  0.00  0.00    -0.331 N 
ATOM     12  H   UNL     1      -0.746   3.636  -1.769  0.00  0.00    +0.145 HD
ATOM     13  H   UNL     1       0.704   3.121  -2.445  0.00  0.00    +0.145 HD
ENDBRANCH   8   9
ENDBRANCH   2   8
ENDBRANCH   1   2
BRANCH   1  14
ATOM     14  C   UNL     1      -4.466  -0.089  -1.893  0.00  0.00    +0.128 C 
BRANCH  14  15
ATOM     15  C   UNL     1      -5.824  -0.604  -1.493  0.00  0.00    -0.021 A 
ATOM     16  C   UNL     1      -6.637   0.158  -0.673  0.00  0.00    +0.008 A 
ATOM     17  C   UNL     1      -7.883  -0.311  -0.305  0.00  0.00    +0.023 A 
ATOM     18  C   UNL     1      -8.319  -1.549  -0.760  0.00  0.00    +0.025 A 
ATOM     19  C   UNL     1      -7.501  -2.311  -1.583  0.00  0.00    +0.023 A 
ATOM     20  C   UNL     1      -6.258  -1.834  -1.952  0.00  0.00    +0.008 A 
BRANCH  18  21
ATOM     21  N   UNL     1      -9.579  -2.026  -0.389  0.00  0.00    -0.358 N 
ATOM     22  H   UNL     1     -10.149  -1.493   0.186  0.00  0.00    +0.142 HD
ATOM     23  H   UNL     1      -9.882  -2.891  -0.707  0.00  0.00    +0.142 HD
ENDBRANCH  18  21
ENDBRANCH  14  15
BRANCH  14  24
ATOM     24  O   UNL     1      -4.521   1.331  -2.048  0.00  0.00    -0.389 OA
ATOM     25  H   UNL     1      -4.781   1.804  -1.246  0.00  0.00    +0.210 HD
ENDBRANCH  14  24
ENDBRANCH   1  14
TORSDOF 9
