REMARK  Name = ZINC40372349
REMARK  7 active torsions:
REMARK  status: ('A' for Active; 'I' for Inactive)
REMARK    1  A    between atoms: C_1  and  C_2
REMARK    2  A    between atoms: C_2  and  O_3
REMARK    3  A    between atoms: O_3  and  C_4
REMARK    4  A    between atoms: C_4  and  C_5
REMARK    5  A    between atoms: N_7  and  C_8
REMARK    6  A    between atoms: C_8  and  C_14
REMARK    7  A    between atoms: N_15  and  O_16
REMARK                            x       y       z     vdW  Elec       q    Type
REMARK                         _______ _______ _______ _____ _____    ______ ____
ROOT
ATOM      1  C   UNL     1       2.411  -4.010  -4.053  0.00  0.00    +0.093 C 
ATOM      2  C   UNL     1       3.895  -3.637  -4.072  0.00  0.00    +0.033 C 
ATOM      3  C   UNL     1       4.577  -4.194  -2.821  0.00  0.00    +0.002 C 
ATOM      4  C   UNL     1       4.434  -5.717  -2.798  0.00  0.00    +0.000 C 
ATOM      5  C   UNL     1       2.950  -6.090  -2.778  0.00  0.00    +0.002 C 
ATOM      6  C   UNL     1       2.268  -5.533  -4.029  0.00  0.00    +0.033 C 
ENDROOT
BRANCH   1   7
ATOM      7  C   UNL     1       1.739  -3.462  -5.285  0.00  0.00    +0.155 C 
ATOM      8  N   UNL     1       1.181  -4.265  -6.129  0.00  0.00    -0.075 NA
ATOM      9  N   UNL     1       1.719  -2.103  -5.512  0.00  0.00    -0.342 N 
ATOM     10  H   UNL     1       2.062  -1.494  -4.839  0.00  0.00    +0.144 HD
ATOM     11  H   UNL     1       1.362  -1.756  -6.344  0.00  0.00    +0.144 HD
BRANCH   8  12
ATOM     12  O   UNL     1       0.550  -3.750  -7.287  0.00  0.00    -0.408 OA
ATOM     13  H   UNL     1       0.162  -4.427  -7.858  0.00  0.00    +0.328 HD
ENDBRANCH   8  12
ENDBRANCH   1   7
BRANCH   1  16
ATOM     14  C   UNL     1       0.459  -3.608  -2.651  0.00  0.00    +0.240 C 
ATOM     15  O   UNL     1      -0.224  -4.149  -3.494  0.00  0.00    -0.273 OA
ATOM     16  N   UNL     1       1.780  -3.442  -2.859  0.00  0.00    -0.301 N 
ATOM     17  H   UNL     1       2.313  -2.946  -2.218  0.00  0.00    +0.150 HD
BRANCH  14  18
ATOM     18  C   UNL     1      -0.169  -3.121  -1.370  0.00  0.00    +0.255 C 
BRANCH  18  19
ATOM     19  O   UNL     1      -1.569  -3.410  -1.386  0.00  0.00    -0.371 OA
BRANCH  19  21
ATOM     20  C   UNL     1      -3.745  -3.346  -0.338  0.00  0.00    +0.034 C 
ATOM     21  C   UNL     1      -2.263  -2.987  -0.211  0.00  0.00    +0.157 C 
ENDBRANCH  19  21
ENDBRANCH  18  19
ENDBRANCH  14  18
ENDBRANCH   1  16
TORSDOF 6
