REMARK  Name = ZINC66179318
REMARK  14 active torsions:
REMARK  status: ('A' for Active; 'I' for Inactive)
REMARK    1  A    between atoms: C_1  and  C_2
REMARK    2  A    between atoms: C_2  and  C_3
REMARK    3  A    between atoms: C_3  and  C_5
REMARK    4  A    between atoms: C_3  and  N_6
REMARK    5  A    between atoms: N_6  and  C_7
REMARK    6  A    between atoms: N_6  and  C_8
REMARK    7  A    between atoms: C_8  and  C_9
REMARK    8  A    between atoms: C_9  and  N_10
REMARK    9  A    between atoms: N_13  and  C_14
REMARK   10  A    between atoms: C_14  and  C_16
REMARK   11  A    between atoms: C_14  and  C_17
REMARK   12  A    between atoms: C_20  and  N_23
REMARK   13  A    between atoms: C_24  and  C_26
REMARK   14  A    between atoms: C_26  and  C_27
REMARK                            x       y       z     vdW  Elec       q    Type
REMARK                         _______ _______ _______ _____ _____    ______ ____
ROOT
ATOM      1  N   UNL     1       4.200   2.990   1.252  0.00  0.00    -0.301 N 
ATOM      2  C   UNL     1       5.439   3.510   1.150  0.00  0.00    +0.300 C 
ATOM      3  O   UNL     1       6.391   2.779   0.961  0.00  0.00    -0.253 OA
ATOM      4  N   UNL     1       5.622   4.841   1.258  0.00  0.00    -0.293 N 
ATOM      5  H   UNL     1       3.440   3.573   1.404  0.00  0.00    +0.150 HD
ATOM      6  H   UNL     1       4.862   5.425   1.409  0.00  0.00    +0.151 HD
ENDROOT
BRANCH   4   7
ATOM      7  C   UNL     1       6.969   5.407   1.147  0.00  0.00    +0.102 C 
ATOM      8  C   UNL     1       7.309   5.627  -0.329  0.00  0.00    +0.033 C 
BRANCH   7   9
ATOM      9  C   UNL     1       7.022   6.724   1.877  0.00  0.00    -0.027 A 
ATOM     10  C   UNL     1       5.954   7.598   1.802  0.00  0.00    +0.007 A 
ATOM     11  C   UNL     1       6.000   8.806   2.470  0.00  0.00    +0.023 A 
ATOM     12  C   UNL     1       7.121   9.142   3.218  0.00  0.00    +0.033 A 
ATOM     13  C   UNL     1       8.192   8.261   3.292  0.00  0.00    +0.023 A 
ATOM     14  C   UNL     1       8.138   7.053   2.625  0.00  0.00    +0.007 A 
BRANCH  12  15
ATOM     15  N   UNL     1       7.171  10.365   3.896  0.00  0.00    -0.286 N 
ATOM     16  C   UNL     1       6.046  10.891   4.420  0.00  0.00    +0.217 C 
ATOM     17  O   UNL     1       5.010  10.262   4.388  0.00  0.00    -0.275 OA
ATOM     18  H   UNL     1       8.015  10.834   3.989  0.00  0.00    +0.155 HD
BRANCH  16  19
ATOM     19  C   UNL     1       6.076  12.262   5.046  0.00  0.00    +0.093 C 
ATOM     20  C   UNL     1       4.680  12.619   5.560  0.00  0.00    +0.013 C 
ENDBRANCH  16  19
ENDBRANCH  12  15
ENDBRANCH   7   9
ENDBRANCH   4   7
BRANCH   1  21
ATOM     21  C   UNL     1       4.001   1.543   1.135  0.00  0.00    +0.087 C 
BRANCH  21  22
ATOM     22  C   UNL     1       2.513   1.219   1.288  0.00  0.00    -0.060 C 
BRANCH  22  23
ATOM     23  N   UNL     1       2.314  -0.232   1.170  0.00  0.00    +0.381 N 
ATOM     24  C   UNL     1       2.938  -0.906   2.316  0.00  0.00    -0.096 C 
ATOM     25  H   UNL     1       2.736  -0.561   0.315  0.00  0.00    -0.082 HD
BRANCH  23  26
ATOM     26  C   UNL     1       0.875  -0.528   1.152  0.00  0.00    -0.072 C 
ATOM     27  C   UNL     1       0.232  -0.016   2.442  0.00  0.00    -0.013 C 
BRANCH  26  29
ATOM     28  C   UNL     1       1.255  -2.543  -0.277  0.00  0.00    +0.002 C 
ATOM     29  C   UNL     1       0.667  -2.040   1.044  0.00  0.00    -0.019 C 
ENDBRANCH  26  29
ENDBRANCH  23  26
ENDBRANCH  22  23
ENDBRANCH  21  22
ENDBRANCH   1  21
TORSDOF 9
