REMARK  Name = ZINC62840274
REMARK  6 active torsions:
REMARK  status: ('A' for Active; 'I' for Inactive)
REMARK    1  A    between atoms: C_1  and  C_2
REMARK    2  A    between atoms: C_2  and  C_8
REMARK    3  A    between atoms: N_10  and  C_11
REMARK    4  A    between atoms: C_14  and  C_17
REMARK    5  A    between atoms: C_17  and  S_18
REMARK    6  A    between atoms: S_18  and  N_21
REMARK                            x       y       z     vdW  Elec       q    Type
REMARK                         _______ _______ _______ _____ _____    ______ ____
ROOT
ATOM      1  C   UNL     1       0.611  -0.632  -1.252  0.00  0.00    +0.223 C 
ATOM      2  O   UNL     1       1.512  -1.440  -1.175  0.00  0.00    -0.275 OA
ATOM      3  N   UNL     1       0.224  -0.167  -2.456  0.00  0.00    -0.285 N 
ATOM      4  H   UNL     1      -0.545   0.420  -2.525  0.00  0.00    +0.155 HD
ENDROOT
BRANCH   1   6
ATOM      5  C   UNL     1       0.089   1.368   0.119  0.00  0.00    +0.021 C 
ATOM      6  C   UNL     1      -0.076  -0.148  -0.001  0.00  0.00    +0.041 C 
ATOM      7  C   UNL     1      -1.565  -0.498  -0.065  0.00  0.00    -0.003 C 
ATOM      8  C   UNL     1      -1.725  -2.019  -0.105  0.00  0.00    -0.082 C 
ATOM      9  N   UNL     1      -1.134  -2.609   1.102  0.00  0.00    +0.379 N 
ATOM     10  C   UNL     1       0.308  -2.338   1.133  0.00  0.00    -0.082 C 
ATOM     11  C   UNL     1       0.547  -0.830   1.221  0.00  0.00    -0.003 C 
ATOM     12  H   UNL     1      -1.568  -2.206   1.919  0.00  0.00    -0.086 HD
ATOM     13  H   UNL     1      -1.288  -3.606   1.099  0.00  0.00    -0.086 HD
ENDBRANCH   1   6
BRANCH   3  14
ATOM     14  C   UNL     1       0.932  -0.530  -3.607  0.00  0.00    +0.033 A 
ATOM     15  C   UNL     1       0.265  -0.678  -4.816  0.00  0.00    +0.023 A 
ATOM     16  C   UNL     1       0.967  -1.037  -5.951  0.00  0.00    +0.007 A 
ATOM     17  C   UNL     1       2.332  -1.249  -5.883  0.00  0.00    -0.025 A 
ATOM     18  C   UNL     1       2.999  -1.103  -4.680  0.00  0.00    +0.007 A 
ATOM     19  C   UNL     1       2.304  -0.738  -3.544  0.00  0.00    +0.023 A 
BRANCH  17  20
ATOM     20  C   UNL     1       3.094  -1.640  -7.123  0.00  0.00    +0.219 C 
BRANCH  20  21
ATOM     21  S   UNL     1       3.674  -0.146  -7.973  0.00  0.00    +0.031 S 
ATOM     22  O   UNL     1       2.569   0.576  -8.500  0.00  0.00    -0.158 OA
ATOM     23  O   UNL     1       4.662   0.510  -7.191  0.00  0.00    -0.158 OA
BRANCH  21  24
ATOM     24  N   UNL     1       4.488  -0.703  -9.304  0.00  0.00    -0.208 NA
ATOM     25  H   UNL     1       4.558  -1.657  -9.465  0.00  0.00    +0.144 HD
ATOM     26  H   UNL     1       4.894  -0.075  -9.921  0.00  0.00    +0.144 HD
ENDBRANCH  21  24
ENDBRANCH  20  21
ENDBRANCH  17  20
ENDBRANCH   3  14
TORSDOF 5
