REMARK  Name = ZINC66671951
REMARK  10 active torsions:
REMARK  status: ('A' for Active; 'I' for Inactive)
REMARK    1  A    between atoms: C_1  and  C_2
REMARK    2  A    between atoms: C_2  and  C_3
REMARK    3  A    between atoms: C_2  and  C_4
REMARK    4  A    between atoms: C_2  and  C_5
REMARK    5  A    between atoms: C_7  and  N_14
REMARK    6  A    between atoms: N_8  and  C_10
REMARK    7  A    between atoms: C_10  and  C_11
REMARK    8  A    between atoms: C_10  and  C_12
REMARK    9  A    between atoms: C_10  and  C_13
REMARK   10  A    between atoms: C_15  and  C_17
REMARK                            x       y       z     vdW  Elec       q    Type
REMARK                         _______ _______ _______ _____ _____    ______ ____
ROOT
ATOM      1  C   UNL     1       0.707  -0.490  -1.238  0.00  0.00    +0.070 A 
ATOM      2  C   UNL     1       2.088  -0.472  -1.454  0.00  0.00    +0.069 A 
ATOM      3  C   UNL     1       2.323  -0.995  -2.689  0.00  0.00    +0.124 A 
ATOM      4  N   UNL     1       1.128  -1.329  -3.225  0.00  0.00    -0.245 N 
ATOM      5  N   UNL     1       0.133  -1.007  -2.294  0.00  0.00    -0.174 NA
ENDROOT
BRANCH   1   7
ATOM      6  C   UNL     1      -0.019   1.526   0.010  0.00  0.00    +0.017 C 
ATOM      7  C   UNL     1       0.002  -0.004   0.002  0.00  0.00    +0.006 C 
ATOM      8  C   UNL     1       0.742  -0.511   1.242  0.00  0.00    +0.017 C 
ATOM      9  C   UNL     1      -1.433  -0.534   0.013  0.00  0.00    +0.017 C 
ENDBRANCH   1   7
BRANCH   4  10
ATOM     10  C   UNL     1       0.912  -1.927  -4.545  0.00  0.00    +0.057 C 
ATOM     11  C   UNL     1       1.642  -3.269  -4.622  0.00  0.00    +0.036 C 
ATOM     12  C   UNL     1      -0.586  -2.147  -4.766  0.00  0.00    +0.036 C 
ATOM     13  C   UNL     1       1.454  -0.988  -5.625  0.00  0.00    +0.036 C 
ENDBRANCH   4  10
BRANCH   3  14
ATOM     14  N   UNL     1       3.571  -1.156  -3.291  0.00  0.00    -0.267 N 
ATOM     15  C   UNL     1       4.688  -0.778  -2.639  0.00  0.00    +0.259 C 
ATOM     16  O   UNL     1       4.609  -0.297  -1.528  0.00  0.00    -0.271 OA
ATOM     17  H   UNL     1       3.635  -1.541  -4.179  0.00  0.00    +0.156 HD
BRANCH  15  18
ATOM     18  C   UNL     1       6.036  -0.952  -3.290  0.00  0.00    +0.263 C 
ATOM     19  C   UNL     1       6.182  -0.012  -4.509  0.00  0.00    +0.093 C 
ATOM     20  C   UNL     1       6.845   1.204  -3.890  0.00  0.00    -0.002 A 
ATOM     21  C   UNL     1       7.009   2.496  -4.338  0.00  0.00    +0.007 A 
ATOM     22  C   UNL     1       7.663   3.424  -3.547  0.00  0.00    +0.000 A 
ATOM     23  C   UNL     1       8.148   3.049  -2.308  0.00  0.00    +0.004 A 
ATOM     24  C   UNL     1       7.988   1.754  -1.859  0.00  0.00    +0.046 A 
ATOM     25  C   UNL     1       7.334   0.813  -2.651  0.00  0.00    +0.125 A 
ATOM     26  O   UNL     1       7.086  -0.509  -2.413  0.00  0.00    -0.479 OA
ENDBRANCH  15  18
ENDBRANCH   3  14
TORSDOF 4
