REMARK  Name = ZINC51643151
REMARK  5 active torsions:
REMARK  status: ('A' for Active; 'I' for Inactive)
REMARK    1  A    between atoms: C_3  and  O_21
REMARK    2  A    between atoms: C_4  and  N_8
REMARK    3  A    between atoms: C_15  and  C_18
REMARK    4  A    between atoms: O_21  and  C_22
REMARK    5  A    between atoms: C_22  and  C_23
REMARK                            x       y       z     vdW  Elec       q    Type
REMARK                         _______ _______ _______ _____ _____    ______ ____
ROOT
ATOM      1  N   UNL     1       3.623  -0.659  -0.032  0.00  0.00    -0.266 N 
ATOM      2  C   UNL     1       3.644  -2.004   0.057  0.00  0.00    +0.307 C 
ATOM      3  O   UNL     1       2.601  -2.630   0.059  0.00  0.00    -0.252 OA
ATOM      4  N   UNL     1       4.821  -2.655   0.143  0.00  0.00    -0.280 N 
ATOM      5  C   UNL     1       6.089  -1.917   0.251  0.00  0.00    +0.137 C 
ATOM      6  C   UNL     1       7.058  -2.462  -0.804  0.00  0.00    +0.180 C 
ATOM      7  O   UNL     1       7.138  -3.884  -0.680  0.00  0.00    -0.364 OA
ATOM      8  C   UNL     1       5.903  -4.563  -0.919  0.00  0.00    +0.221 C 
ATOM      9  C   UNL     1       4.875  -4.126   0.137  0.00  0.00    +0.150 C 
ATOM     10  H   UNL     1       4.455  -0.163  -0.066  0.00  0.00    +0.156 HD
ENDROOT
BRANCH   1  14
ATOM     11  C   UNL     1      -0.022   1.367  -0.161  0.00  0.00    +0.024 A 
ATOM     12  C   UNL     1       1.125   2.039   0.220  0.00  0.00    +0.049 A 
ATOM     13  C   UNL     1       2.337   1.371   0.265  0.00  0.00    +0.142 A 
ATOM     14  C   UNL     1       2.398   0.021  -0.075  0.00  0.00    +0.078 A 
ATOM     15  C   UNL     1       1.245  -0.647  -0.456  0.00  0.00    +0.047 A 
ATOM     16  C   UNL     1       0.037   0.026  -0.499  0.00  0.00    +0.043 A 
ATOM     17 CL   UNL     1      -1.406  -0.811  -0.976  0.00  0.00    -0.083 Cl
BRANCH  13  18
ATOM     18  O   UNL     1       3.466   2.031   0.639  0.00  0.00    -0.488 OA
BRANCH  18  19
ATOM     19  C   UNL     1       3.328   3.414   0.973  0.00  0.00    +0.260 C 
BRANCH  19  20
ATOM     20  C   UNL     1       4.693   3.982   1.365  0.00  0.00    +0.156 C 
ATOM     21  C   UNL     1       4.535   5.442   1.843  0.00  0.00    +0.037 C 
ATOM     22  C   UNL     1       5.791   6.125   1.238  0.00  0.00    +0.031 C 
ATOM     23  C   UNL     1       5.941   5.340  -0.090  0.00  0.00    +0.160 C 
ATOM     24  O   UNL     1       5.562   3.990   0.227  0.00  0.00    -0.373 OA
ENDBRANCH  19  20
ENDBRANCH  18  19
ENDBRANCH  13  18
ENDBRANCH   1  14
BRANCH   8  25
ATOM     25  C   UNL     1       6.121  -6.051  -0.823  0.00  0.00    +0.241 C 
ATOM     26  O   UNL     1       7.201  -6.486  -0.485  0.00  0.00    -0.273 OA
ATOM     27  N   UNL     1       5.114  -6.899  -1.112  0.00  0.00    -0.327 N 
ATOM     28  H   UNL     1       4.249  -6.552  -1.382  0.00  0.00    +0.145 HD
ATOM     29  H   UNL     1       5.253  -7.857  -1.050  0.00  0.00    +0.145 HD
ENDBRANCH   8  25
TORSDOF 5
