REMARK  Name = ZINC19792727
REMARK  6 active torsions:
REMARK  status: ('A' for Active; 'I' for Inactive)
REMARK    1  A    between atoms: C_1  and  C_2
REMARK    2  A    between atoms: C_2  and  O_3
REMARK    3  A    between atoms: O_3  and  C_4
REMARK    4  A    between atoms: C_7  and  C_10
REMARK    5  A    between atoms: N_24  and  C_25
REMARK    6  A    between atoms: C_25  and  C_26
REMARK                            x       y       z     vdW  Elec       q    Type
REMARK                         _______ _______ _______ _____ _____    ______ ____
ROOT
ATOM      1  C   UNL     1       0.002  -0.004   0.002  0.00  0.00    +0.134 C 
ATOM      2  C   UNL     1      -0.018   1.506   0.010  0.00  0.00    +0.042 A 
ATOM      3  C   UNL     1       1.105   2.259   0.004  0.00  0.00    -0.016 A 
ATOM      4  C   UNL     1       0.692   3.644   0.018  0.00  0.00    +0.003 A 
ATOM      5  C   UNL     1       1.403   4.849   0.020  0.00  0.00    +0.010 A 
ATOM      6  C   UNL     1       0.663   6.006   0.036  0.00  0.00    +0.001 A 
ATOM      7  C   UNL     1      -0.722   5.995   0.049  0.00  0.00    +0.002 A 
ATOM      8  C   UNL     1      -1.450   4.818   0.047  0.00  0.00    +0.026 A 
ATOM      9  C   UNL     1      -0.727   3.627   0.031  0.00  0.00    +0.047 A 
ATOM     10  N   UNL     1      -1.119   2.319   0.031  0.00  0.00    -0.356 N 
ATOM     11  H   UNL     1      -2.127   1.879   0.044  0.00  0.00    +0.166 HD
ATOM     12  C   UNL     1       2.496   1.676  -0.016  0.00  0.00    +0.053 C 
ATOM     13  C   UNL     1       2.386   0.199  -0.421  0.00  0.00    +0.090 C 
ATOM     14  N   UNL     1       1.349  -0.454   0.389  0.00  0.00    -0.283 NA
ENDROOT
BRANCH   1  18
ATOM     15  C   UNL     1      -2.869  -1.495   2.794  0.00  0.00    +0.121 A 
ATOM     16  C   UNL     1      -3.172  -1.455   1.441  0.00  0.00    +0.046 A 
ATOM     17  C   UNL     1      -2.242  -0.972   0.540  0.00  0.00    +0.009 A 
ATOM     18  C   UNL     1      -1.010  -0.530   0.987  0.00  0.00    -0.024 A 
ATOM     19  C   UNL     1      -0.704  -0.574   2.334  0.00  0.00    +0.009 A 
ATOM     20  C   UNL     1      -1.632  -1.050   3.240  0.00  0.00    +0.046 A 
BRANCH  15  21
ATOM     21  O   UNL     1      -3.781  -1.970   3.682  0.00  0.00    -0.492 OA
BRANCH  21  23
ATOM     22  C   UNL     1      -4.548  -2.546   5.901  0.00  0.00    +0.048 C 
ATOM     23  C   UNL     1      -3.401  -1.982   5.060  0.00  0.00    +0.225 C 
ENDBRANCH  21  23
ENDBRANCH  15  21
ENDBRANCH   1  18
BRANCH  14  24
ATOM     24  C   UNL     1       1.459  -1.917   0.305  0.00  0.00    +0.157 C 
BRANCH  24  25
ATOM     25  C   UNL     1       2.754  -2.360   0.936  0.00  0.00    +0.099 A 
ATOM     26  N   UNL     1       2.906  -2.776   2.212  0.00  0.00    -0.349 N 
ATOM     27  H   UNL     1       2.038  -2.810   2.887  0.00  0.00    +0.166 HD
ATOM     28  C   UNL     1       4.229  -3.085   2.382  0.00  0.00    +0.101 A 
ATOM     29  C   UNL     1       4.839  -2.848   1.205  0.00  0.00    +0.101 A 
ATOM     30  N   UNL     1       3.913  -2.411   0.339  0.00  0.00    -0.349 N 
ATOM     31  H   UNL     1       4.001  -2.116  -0.717  0.00  0.00    +0.166 HD
ENDBRANCH  24  25
ENDBRANCH  14  24
TORSDOF 5
