REMARK  Name = ZINC12497141
REMARK  9 active torsions:
REMARK  status: ('A' for Active; 'I' for Inactive)
REMARK    1  A    between atoms: C_1  and  C_2
REMARK    2  A    between atoms: C_3  and  C_29
REMARK    3  A    between atoms: C_5  and  N_10
REMARK    4  A    between atoms: C_6  and  C_7
REMARK    5  A    between atoms: N_10  and  C_11
REMARK    6  A    between atoms: C_11  and  N_13
REMARK    7  A    between atoms: C_14  and  C_16
REMARK    8  A    between atoms: C_16  and  O_17
REMARK    9  A    between atoms: O_17  and  C_18
REMARK                            x       y       z     vdW  Elec       q    Type
REMARK                         _______ _______ _______ _____ _____    ______ ____
ROOT
ATOM      1  N   UNL     1       3.159  10.292   0.022  0.00  0.00    -0.265 N 
ATOM      2  C   UNL     1       2.100   9.458   0.028  0.00  0.00    +0.256 C 
ATOM      3  O   UNL     1       0.974   9.907   0.041  0.00  0.00    -0.272 OA
ATOM      4  H   UNL     1       4.060   9.932   0.011  0.00  0.00    +0.157 HD
ENDROOT
BRANCH   1   5
ATOM      5  C   UNL     1       2.966  11.626   0.030  0.00  0.00    +0.141 C 
ATOM      6  S   UNL     1       1.376  12.260   0.048  0.00  0.00    -0.018 S 
BRANCH   5   7
ATOM      7  N   UNL     1       4.024  12.460   0.024  0.00  0.00    -0.291 N 
ATOM      8  H   UNL     1       4.925  12.101   0.013  0.00  0.00    +0.154 HD
BRANCH   7  13
ATOM      9  C   UNL     1       5.229  17.376   0.035  0.00  0.00    +0.045 C 
ATOM     10  C   UNL     1       4.288  16.200   0.038  0.00  0.00    -0.027 A 
ATOM     11  C   UNL     1       2.954  16.369   0.051  0.00  0.00    -0.008 A 
ATOM     12  S   UNL     1       2.328  14.701   0.043  0.00  0.00    -0.078 S 
ATOM     13  C   UNL     1       3.825  13.831   0.032  0.00  0.00    +0.084 A 
ATOM     14  C   UNL     1       4.780  14.842   0.028  0.00  0.00    +0.068 A 
ATOM     15  C   UNL     1       2.175  17.659   0.063  0.00  0.00    +0.052 C 
BRANCH  14  16
ATOM     16  C   UNL     1       6.215  14.545   0.013  0.00  0.00    +0.244 C 
ATOM     17  O   UNL     1       6.802  14.426  -1.046  0.00  0.00    -0.270 OA
ATOM     18  N   UNL     1       6.885  14.403   1.174  0.00  0.00    -0.325 N 
ATOM     19  H   UNL     1       6.418  14.497   2.019  0.00  0.00    +0.145 HD
ATOM     20  H   UNL     1       7.835  14.206   1.165  0.00  0.00    +0.145 HD
ENDBRANCH  14  16
ENDBRANCH   7  13
ENDBRANCH   5   7
ENDBRANCH   1   5
BRANCH   2  21
ATOM     21  C   UNL     1       2.316   7.966   0.019  0.00  0.00    +0.325 C 
BRANCH  21  22
ATOM     22  O   UNL     1       1.051   7.302   0.028  0.00  0.00    -0.482 OA
BRANCH  22  23
ATOM     23  C   UNL     1       1.068   5.943   0.021  0.00  0.00    +0.136 A 
ATOM     24  C   UNL     1       2.293   5.268   0.006  0.00  0.00    +0.047 A 
ATOM     25  C   UNL     1       2.342   3.909  -0.000  0.00  0.00    +0.012 A 
ATOM     26  C   UNL     1       1.148   3.167   0.008  0.00  0.00    -0.017 A 
ATOM     27  C   UNL     1       1.163   1.762   0.000  0.00  0.00    +0.008 A 
ATOM     28  C   UNL     1      -0.013   1.076   0.008  0.00  0.00    +0.001 A 
ATOM     29  C   UNL     1      -1.235   1.746   0.017  0.00  0.00    +0.001 A 
ATOM     30  C   UNL     1      -1.288   3.106   0.030  0.00  0.00    +0.010 A 
ATOM     31  C   UNL     1      -0.095   3.849   0.023  0.00  0.00    -0.000 A 
ATOM     32  C   UNL     1      -0.112   5.254   0.029  0.00  0.00    +0.067 A 
ATOM     33 BR   UNL     1      -1.757   6.185   0.049  0.00  0.00    -0.046 Br
ENDBRANCH  22  23
ENDBRANCH  21  22
ENDBRANCH   2  21
TORSDOF 7
