REMARK  Name = ZINC37919740
REMARK  6 active torsions:
REMARK  status: ('A' for Active; 'I' for Inactive)
REMARK    1  A    between atoms: C_1  and  C_2
REMARK    2  A    between atoms: C_7  and  C_11
REMARK    3  A    between atoms: C_8  and  C_10
REMARK    4  A    between atoms: C_11  and  N_12
REMARK    5  A    between atoms: N_12  and  C_13
REMARK    6  A    between atoms: C_13  and  C_14
REMARK                            x       y       z     vdW  Elec       q    Type
REMARK                         _______ _______ _______ _____ _____    ______ ____
ROOT
ATOM      1  C   UNL     1       0.019   0.967   3.180  0.00  0.00    -0.025 C 
ENDROOT
BRANCH   1   8
ATOM      2  C   UNL     1      -0.018   1.503   0.010  0.00  0.00    +0.064 C 
ATOM      3  C   UNL     1       0.002  -0.004   0.002  0.00  0.00    +0.029 A 
ATOM      4  C   UNL     1       0.005  -0.656  -1.160  0.00  0.00    +0.070 A 
ATOM      5  S   UNL     1       0.032  -2.360  -0.627  0.00  0.00    -0.057 S 
ATOM      6  C   UNL     1       0.036  -2.059   1.125  0.00  0.00    +0.178 A 
ATOM      7  N   UNL     1       0.023  -0.691   1.196  0.00  0.00    -0.296 N 
ATOM      8  C   UNL     1       0.031  -0.406   2.559  0.00  0.00    +0.030 A 
ATOM      9  C   UNL     1       0.054  -1.575   3.221  0.00  0.00    +0.059 A 
ATOM     10  N   UNL     1       0.049  -2.571   2.322  0.00  0.00    -0.226 NA
ATOM     11  C   UNL     1       0.070  -1.739   4.719  0.00  0.00    +0.067 C 
ENDBRANCH   1   8
BRANCH   1  12
ATOM     12  N   UNL     1      -1.370   1.395   3.394  0.00  0.00    +0.387 N 
ATOM     13  H   UNL     1      -1.854   1.421   2.510  0.00  0.00    -0.085 HD
ATOM     14  H   UNL     1      -1.831   0.743   4.011  0.00  0.00    -0.085 HD
BRANCH  12  15
ATOM     15  C   UNL     1      -1.382   2.733   4.000  0.00  0.00    -0.003 C 
BRANCH  15  16
ATOM     16  C   UNL     1      -2.807   3.172   4.220  0.00  0.00    +0.134 A 
ATOM     17  N   UNL     1      -3.524   2.951   5.321  0.00  0.00    -0.222 NA
ATOM     18  H   UNL     1      -5.555   4.492   3.583  0.00  0.00    +0.190 HD
ATOM     19  C   UNL     1      -4.720   3.463   5.182  0.00  0.00    +0.216 A 
ATOM     20  N   UNL     1      -4.791   4.033   3.966  0.00  0.00    -0.265 N 
ATOM     21  N   UNL     1      -3.538   3.836   3.363  0.00  0.00    -0.160 NA
ENDBRANCH  15  16
ENDBRANCH  12  15
ENDBRANCH   1  12
TORSDOF 4
