REMARK  Name = ZINC36485119
REMARK  11 active torsions:
REMARK  status: ('A' for Active; 'I' for Inactive)
REMARK    1  A    between atoms: C_1  and  C_2
REMARK    2  A    between atoms: C_2  and  C_3
REMARK    3  A    between atoms: C_2  and  C_4
REMARK    4  A    between atoms: C_2  and  N_5
REMARK    5  A    between atoms: C_6  and  C_8
REMARK    6  A    between atoms: C_8  and  C_10
REMARK    7  A    between atoms: C_8  and  N_15
REMARK    8  A    between atoms: N_15  and  C_16
REMARK    9  A    between atoms: C_23  and  C_25
REMARK   10  A    between atoms: C_29  and  O_32
REMARK   11  A    between atoms: C_30  and  O_31
REMARK                            x       y       z     vdW  Elec       q    Type
REMARK                         _______ _______ _______ _____ _____    ______ ____
ROOT
ATOM      1  N   UNL     1       4.073  -0.126  -3.687  0.00  0.00    -0.248 N 
ATOM      2  C   UNL     1       5.073  -0.956  -4.045  0.00  0.00    +0.256 C 
ATOM      3  O   UNL     1       6.151  -0.502  -4.376  0.00  0.00    -0.269 OA
ENDROOT
BRANCH   1   4
ATOM      4  C   UNL     1       4.274   1.258  -3.700  0.00  0.00    +0.039 A 
ATOM      5  C   UNL     1       3.682   2.038  -4.686  0.00  0.00    +0.023 A 
ATOM      6  C   UNL     1       3.883   3.404  -4.696  0.00  0.00    +0.003 A 
ATOM      7  C   UNL     1       4.672   3.997  -3.728  0.00  0.00    +0.020 A 
ATOM      8  C   UNL     1       5.263   3.223  -2.744  0.00  0.00    +0.043 A 
ATOM      9  C   UNL     1       5.061   1.855  -2.725  0.00  0.00    +0.043 A 
ATOM     10 CL   UNL     1       6.253   3.971  -1.531  0.00  0.00    -0.083 Cl
ENDBRANCH   1   4
BRANCH   2  11
ATOM     11  C   UNL     1       4.860  -2.416  -4.033  0.00  0.00    +0.082 A 
ATOM     12  C   UNL     1       4.517  -3.067  -2.844  0.00  0.00    +0.017 A 
ATOM     13  C   UNL     1       4.319  -4.430  -2.838  0.00  0.00    +0.005 A 
ATOM     14  C   UNL     1       4.457  -5.163  -4.005  0.00  0.00    +0.049 A 
ATOM     15  C   UNL     1       4.796  -4.533  -5.190  0.00  0.00    +0.159 A 
ATOM     16  C   UNL     1       4.993  -3.155  -5.214  0.00  0.00    +0.171 A 
BRANCH  16  17
ATOM     17  O   UNL     1       5.320  -2.533  -6.376  0.00  0.00    -0.503 OA
ATOM     18  H   UNL     1       6.271  -2.477  -6.538  0.00  0.00    +0.292 HD
ENDBRANCH  16  17
BRANCH  15  19
ATOM     19  O   UNL     1       4.931  -5.259  -6.332  0.00  0.00    -0.503 OA
ATOM     20  H   UNL     1       4.113  -5.346  -6.842  0.00  0.00    +0.292 HD
ENDBRANCH  15  19
ENDBRANCH   2  11
BRANCH   1  21
ATOM     21  C   UNL     1       2.775  -0.674  -3.284  0.00  0.00    +0.233 C 
BRANCH  21  22
ATOM     22  C   UNL     1       2.180  -1.449  -4.431  0.00  0.00    +0.135 A 
ATOM     23  C   UNL     1       1.512  -2.613  -4.332  0.00  0.00    +0.047 A 
ATOM     24  C   UNL     1       1.134  -2.982  -5.643  0.00  0.00    +0.041 A 
ATOM     25  C   UNL     1       1.593  -2.022  -6.466  0.00  0.00    +0.195 A 
ATOM     26  O   UNL     1       2.220  -1.093  -5.726  0.00  0.00    -0.465 OA
ENDBRANCH  21  22
BRANCH  21  28
ATOM     27  N   UNL     1       0.592   0.186  -2.501  0.00  0.00    -0.309 N 
ATOM     28  C   UNL     1       1.849   0.454  -2.906  0.00  0.00    +0.242 C 
ATOM     29  O   UNL     1       2.236   1.602  -2.967  0.00  0.00    -0.273 OA
ATOM     30  H   UNL     1       0.283  -0.732  -2.452  0.00  0.00    +0.149 HD
BRANCH  27  32
ATOM     31  C   UNL     1      -0.496   2.212  -3.334  0.00  0.00    +0.031 C 
ATOM     32  C   UNL     1      -0.307   1.282  -2.133  0.00  0.00    +0.026 C 
ATOM     33  C   UNL     1       0.297   2.070  -0.969  0.00  0.00    +0.031 C 
ATOM     34  C   UNL     1      -1.663   0.711  -1.713  0.00  0.00    +0.031 C 
ENDBRANCH  27  32
ENDBRANCH  21  28
ENDBRANCH   1  21
TORSDOF 8
