REMARK  Name = ZINC48949366
REMARK  6 active torsions:
REMARK  status: ('A' for Active; 'I' for Inactive)
REMARK    1  A    between atoms: C_1  and  C_2
REMARK    2  A    between atoms: C_5  and  C_8
REMARK    3  A    between atoms: C_9  and  C_10
REMARK    4  A    between atoms: C_9  and  C_12
REMARK    5  A    between atoms: N_14  and  N_15
REMARK    6  A    between atoms: N_18  and  C_19
REMARK                            x       y       z     vdW  Elec       q    Type
REMARK                         _______ _______ _______ _____ _____    ______ ____
ROOT
ATOM      1  C   UNL     1       0.109  -4.238  -0.023  0.00  0.00    +0.032 C 
ATOM      2  C   UNL     1       0.177  -4.930   1.153  0.00  0.00    +0.115 C 
ENDROOT
BRANCH   1   7
ATOM      3  C   UNL     1       0.684   1.478  -0.031  0.00  0.00    +0.044 C 
ATOM      4  C   UNL     1       0.533  -0.021  -0.029  0.00  0.00    -0.050 A 
ATOM      5  C   UNL     1      -0.454  -0.615  -0.798  0.00  0.00    +0.004 A 
ATOM      6  C   UNL     1      -0.599  -1.985  -0.802  0.00  0.00    +0.008 A 
ATOM      7  C   UNL     1       0.256  -2.778  -0.025  0.00  0.00    -0.024 A 
ATOM      8  C   UNL     1       1.252  -2.170   0.749  0.00  0.00    +0.008 A 
ATOM      9  C   UNL     1       1.386  -0.798   0.737  0.00  0.00    +0.004 A 
ENDBRANCH   1   7
BRANCH   2  10
ATOM     10  C   UNL     1       0.174  -4.205   2.434  0.00  0.00    +0.270 C 
ATOM     11  O   UNL     1      -0.025  -3.005   2.454  0.00  0.00    -0.268 OA
ATOM     12  N   UNL     1       0.391  -4.870   3.586  0.00  0.00    -0.229 N 
ATOM     13  H   UNL     1       0.549  -5.827   3.570  0.00  0.00    +0.173 HD
BRANCH  12  14
ATOM     14  N   UNL     1       0.388  -4.181   4.805  0.00  0.00    -0.218 N 
ATOM     15  C   UNL     1       0.605  -4.846   5.957  0.00  0.00    +0.316 C 
ATOM     16  O   UNL     1       0.603  -4.248   7.015  0.00  0.00    -0.251 OA
ATOM     17  N   UNL     1       0.826  -6.176   5.935  0.00  0.00    -0.301 N 
ATOM     18  C   UNL     1       1.062  -6.900   7.187  0.00  0.00    +0.129 C 
ATOM     19  H   UNL     1       0.230  -3.224   4.821  0.00  0.00    +0.174 HD
ATOM     20  H   UNL     1       0.828  -6.654   5.091  0.00  0.00    +0.150 HD
ENDBRANCH  12  14
ENDBRANCH   2  10
BRANCH   2  21
ATOM     21  C   UNL     1       0.252  -6.360   1.139  0.00  0.00    +0.104 C 
ATOM     22  N   UNL     1       0.311  -7.494   1.129  0.00  0.00    -0.191 NA
ENDBRANCH   2  21
TORSDOF 4
