REMARK  Name = ZINC40708151
REMARK  5 active torsions:
REMARK  status: ('A' for Active; 'I' for Inactive)
REMARK    1  A    between atoms: C_1  and  C_2
REMARK    2  A    between atoms: C_2  and  C_3
REMARK    3  A    between atoms: C_2  and  N_4
REMARK    4  A    between atoms: C_6  and  N_19
REMARK    5  A    between atoms: C_7  and  N_11
REMARK                            x       y       z     vdW  Elec       q    Type
REMARK                         _______ _______ _______ _____ _____    ______ ____
ROOT
ATOM      1  N   UNL     1      -1.376  -0.503  -0.003  0.00  0.00    -0.325 N 
ATOM      2  C   UNL     1      -1.654  -1.767  -0.511  0.00  0.00    +0.145 A 
ATOM      3  C   UNL     1      -2.961  -2.260  -0.509  0.00  0.00    +0.105 A 
ATOM      4  C   UNL     1      -3.184  -3.534  -1.032  0.00  0.00    +0.150 A 
ATOM      5  N   UNL     1      -2.152  -4.226  -1.509  0.00  0.00    -0.219 NA
ATOM      6  C   UNL     1      -0.934  -3.724  -1.492  0.00  0.00    +0.225 A 
ATOM      7  N   UNL     1      -0.681  -2.523  -1.013  0.00  0.00    -0.219 NA
ATOM      8  H   UNL     1      -2.091   0.041   0.360  0.00  0.00    +0.148 HD
ENDROOT
BRANCH   4   9
ATOM      9  N   UNL     1      -4.467  -4.074  -1.053  0.00  0.00    -0.283 N 
ATOM     10  C   UNL     1      -4.696  -5.298  -1.675  0.00  0.00    +0.124 A 
ATOM     11  C   UNL     1      -5.996  -5.780  -1.787  0.00  0.00    +0.045 A 
ATOM     12  C   UNL     1      -6.211  -6.998  -2.408  0.00  0.00    +0.025 A 
ATOM     13  C   UNL     1      -5.113  -7.695  -2.896  0.00  0.00    +0.059 A 
ATOM     14  C   UNL     1      -3.849  -7.157  -2.749  0.00  0.00    +0.132 A 
ATOM     15  N   UNL     1      -3.676  -5.990  -2.157  0.00  0.00    -0.239 NA
ATOM     16 CL   UNL     1      -5.327  -9.228  -3.682  0.00  0.00    -0.082 Cl
ATOM     17  H   UNL     1      -5.200  -3.597  -0.635  0.00  0.00    +0.155 HD
ENDBRANCH   4   9
BRANCH   1  19
ATOM     18  C   UNL     1      -0.025   1.535  -0.014  0.00  0.00    +0.027 C 
ATOM     19  C   UNL     1      -0.002   0.005  -0.017  0.00  0.00    +0.066 C 
ATOM     20  C   UNL     1       0.740  -0.496   1.224  0.00  0.00    +0.027 C 
ENDBRANCH   1  19
BRANCH   3  21
ATOM     21  N   UNL     1      -4.020  -1.495   0.005  0.00  0.00    -0.353 N 
ATOM     22  H   UNL     1      -3.849  -0.611   0.366  0.00  0.00    +0.143 HD
ATOM     23  H   UNL     1      -4.922  -1.851   0.000  0.00  0.00    +0.143 HD
ENDBRANCH   3  21
TORSDOF 3
