REMARK  Name = ZINC04659801
REMARK  9 active torsions:
REMARK  status: ('A' for Active; 'I' for Inactive)
REMARK    1  A    between atoms: C_1  and  C_2
REMARK    2  A    between atoms: C_5  and  C_8
REMARK    3  A    between atoms: C_15  and  N_31
REMARK    4  A    between atoms: C_16  and  C_29
REMARK    5  A    between atoms: C_17  and  C_19
REMARK    6  A    between atoms: C_23  and  O_27
REMARK    7  A    between atoms: C_24  and  O_25
REMARK    8  A    between atoms: O_25  and  C_26
REMARK    9  A    between atoms: O_27  and  C_28
REMARK                            x       y       z     vdW  Elec       q    Type
REMARK                         _______ _______ _______ _____ _____    ______ ____
ROOT
ATOM      1  C   UNL     1       0.061  -4.256  -0.021  0.00  0.00    +0.100 A 
ATOM      2  C   UNL     1       0.720  -5.075   0.900  0.00  0.00    +0.054 A 
ATOM      3  C   UNL     1       0.494  -6.374   0.548  0.00  0.00    +0.223 A 
ATOM      4  N   UNL     1      -0.279  -6.372  -0.557  0.00  0.00    -0.246 N 
ATOM      5  H   UNL     1      -0.599  -7.155  -1.031  0.00  0.00    +0.192 HD
ATOM      6  N   UNL     1      -0.546  -5.036  -0.896  0.00  0.00    -0.171 NA
ATOM      7  O   UNL     1       0.999  -7.421   1.249  0.00  0.00    -0.423 OA
ATOM      8  C   UNL     1       1.510  -7.166   2.470  0.00  0.00    +0.200 C 
ATOM      9  C   UNL     1       1.788  -5.925   2.926  0.00  0.00    +0.098 C 
ATOM     10  C   UNL     1       1.553  -4.688   2.095  0.00  0.00    +0.105 C 
ENDROOT
BRANCH   1  15
ATOM     11  C   UNL     1      -0.018   1.503   0.010  0.00  0.00    +0.044 C 
ATOM     12  C   UNL     1       0.002  -0.004   0.002  0.00  0.00    -0.050 A 
ATOM     13  C   UNL     1       0.006  -0.686  -1.201  0.00  0.00    +0.004 A 
ATOM     14  C   UNL     1       0.025  -2.067  -1.214  0.00  0.00    +0.010 A 
ATOM     15  C   UNL     1       0.041  -2.772  -0.013  0.00  0.00    +0.003 A 
ATOM     16  C   UNL     1       0.037  -2.080   1.196  0.00  0.00    +0.010 A 
ATOM     17  C   UNL     1       0.023  -0.700   1.198  0.00  0.00    +0.004 A 
ENDBRANCH   1  15
BRANCH  10  18
ATOM     18  C   UNL     1       2.873  -4.126   1.633  0.00  0.00    +0.011 A 
ATOM     19  C   UNL     1       3.725  -4.902   0.868  0.00  0.00    +0.008 A 
ATOM     20  C   UNL     1       4.937  -4.390   0.444  0.00  0.00    +0.004 A 
ATOM     21  C   UNL     1       5.303  -3.100   0.783  0.00  0.00    +0.049 A 
ATOM     22  C   UNL     1       4.454  -2.318   1.549  0.00  0.00    +0.162 A 
ATOM     23  C   UNL     1       3.231  -2.832   1.971  0.00  0.00    +0.166 A 
BRANCH  23  24
ATOM     24  O   UNL     1       2.393  -2.066   2.719  0.00  0.00    -0.491 OA
ATOM     25  C   UNL     1       2.546  -2.131   4.138  0.00  0.00    +0.277 C 
ENDBRANCH  23  24
BRANCH  22  26
ATOM     26  O   UNL     1       4.813  -1.050   1.883  0.00  0.00    -0.491 OA
ATOM     27  C   UNL     1       6.080  -0.588   1.410  0.00  0.00    +0.277 C 
ENDBRANCH  22  26
ENDBRANCH  10  18
BRANCH   8  28
ATOM     28  N   UNL     1       1.763  -8.231   3.300  0.00  0.00    -0.328 N 
ATOM     29  H   UNL     1       1.573  -9.134   3.001  0.00  0.00    +0.145 HD
ATOM     30  H   UNL     1       2.130  -8.079   4.185  0.00  0.00    +0.145 HD
ENDBRANCH   8  28
BRANCH   9  31
ATOM     31  C   UNL     1       2.325  -5.777   4.245  0.00  0.00    +0.101 C 
ATOM     32  N   UNL     1       2.750  -5.661   5.292  0.00  0.00    -0.191 NA
ENDBRANCH   9  31
TORSDOF 6
