REMARK  Name = ZINC63062841
REMARK  7 active torsions:
REMARK  status: ('A' for Active; 'I' for Inactive)
REMARK    1  A    between atoms: C_1  and  C_2
REMARK    2  A    between atoms: C_4  and  C_16
REMARK    3  A    between atoms: C_7  and  O_8
REMARK    4  A    between atoms: O_8  and  C_9
REMARK    5  A    between atoms: C_9  and  C_10
REMARK    6  A    between atoms: C_17  and  C_18
REMARK    7  A    between atoms: C_18  and  O_19
REMARK                            x       y       z     vdW  Elec       q    Type
REMARK                         _______ _______ _______ _____ _____    ______ ____
ROOT
ATOM      1  C   UNL     1      -0.018   1.503   0.010  0.00  0.00    +0.047 C 
ATOM      2  C   UNL     1       0.002  -0.004   0.002  0.00  0.00    -0.008 A 
ATOM      3  C   UNL     1       0.006  -0.686  -1.196  0.00  0.00    +0.023 A 
ATOM      4  C   UNL     1       0.025  -2.081  -1.203  0.00  0.00    +0.025 A 
ATOM      5  C   UNL     1       0.041  -2.781   0.005  0.00  0.00    +0.020 A 
ATOM      6  C   UNL     1       0.037  -2.092   1.199  0.00  0.00    +0.047 A 
ATOM      7  C   UNL     1       0.023  -0.704   1.201  0.00  0.00    +0.123 A 
ENDROOT
BRANCH   4   8
ATOM      8  C   UNL     1       0.029  -2.793  -2.445  0.00  0.00    -0.064 C 
ATOM      9  C   UNL     1       0.031  -3.377  -3.464  0.00  0.00    -0.069 C 
BRANCH   9  10
ATOM     10  C   UNL     1       0.035  -4.109  -4.741  0.00  0.00    +0.244 C 
BRANCH  10  11
ATOM     11  O   UNL     1       0.056  -5.515  -4.484  0.00  0.00    -0.383 OA
ATOM     12  H   UNL     1       0.059  -6.060  -5.283  0.00  0.00    +0.211 HD
ENDBRANCH  10  11
ENDBRANCH   9  10
ENDBRANCH   4   8
BRANCH   7  13
ATOM     13  O   UNL     1       0.025  -0.028   2.380  0.00  0.00    -0.491 OA
BRANCH  13  14
ATOM     14  C   UNL     1       0.046  -0.810   3.576  0.00  0.00    +0.232 C 
BRANCH  14  15
ATOM     15  C   UNL     1       0.045   0.118   4.792  0.00  0.00    +0.031 C 
ATOM     16  C   UNL     1      -1.278   0.887   4.848  0.00  0.00    +0.035 C 
ATOM     17  C   UNL     1      -1.303   1.754   6.109  0.00  0.00    +0.160 C 
ATOM     18  O   UNL     1      -1.129   0.924   7.259  0.00  0.00    -0.380 OA
ATOM     19  C   UNL     1       0.112   0.216   7.285  0.00  0.00    +0.160 C 
ATOM     20  C   UNL     1       0.194  -0.712   6.071  0.00  0.00    +0.035 C 
ENDBRANCH  14  15
ENDBRANCH  13  14
ENDBRANCH   7  13
TORSDOF 6
