REMARK  Name = ZINC43218187
REMARK  14 active torsions:
REMARK  status: ('A' for Active; 'I' for Inactive)
REMARK    1  A    between atoms: C_1  and  C_2
REMARK    2  A    between atoms: C_2  and  C_4
REMARK    3  A    between atoms: C_2  and  O_33
REMARK    4  A    between atoms: C_4  and  C_6
REMARK    5  A    between atoms: C_4  and  N_32
REMARK    6  A    between atoms: C_8  and  C_11
REMARK    7  A    between atoms: N_13  and  C_14
REMARK    8  A    between atoms: C_14  and  C_16
REMARK    9  A    between atoms: C_14  and  C_20
REMARK   10  A    between atoms: C_16  and  C_17
REMARK   11  A    between atoms: C_17  and  C_18
REMARK   12  A    between atoms: C_17  and  C_19
REMARK   13  A    between atoms: N_22  and  C_23
REMARK   14  A    between atoms: C_26  and  N_29
REMARK                            x       y       z     vdW  Elec       q    Type
REMARK                         _______ _______ _______ _____ _____    ______ ____
ROOT
ATOM      1  C   UNL     1      -0.286  -5.275   2.305  0.00  0.00    +0.266 C 
ATOM      2  O   UNL     1       0.062  -6.384   1.949  0.00  0.00    -0.268 OA
ATOM      3  N   UNL     1      -1.225  -5.138   3.262  0.00  0.00    -0.299 N 
ATOM      4  H   UNL     1      -1.503  -4.253   3.546  0.00  0.00    +0.150 HD
ENDROOT
BRANCH   1   7
ATOM      5  C   UNL     1       0.764  -2.016   1.238  0.00  0.00    +0.184 A 
ATOM      6  N   UNL     1       0.029  -2.783   1.986  0.00  0.00    -0.210 NA
ATOM      7  C   UNL     1       0.319  -4.080   1.689  0.00  0.00    +0.163 A 
ATOM      8  C   UNL     1       1.272  -4.065   0.718  0.00  0.00    +0.230 A 
ATOM      9  O   UNL     1       1.534  -2.776   0.446  0.00  0.00    -0.449 OA
BRANCH   5  10
ATOM     10  C   UNL     1       0.749  -0.509   1.254  0.00  0.00    +0.042 C 
BRANCH  10  11
ATOM     11  N   UNL     1       2.129  -0.005   1.240  0.00  0.00    +0.387 N 
ATOM     12  H   UNL     1       2.619  -0.345   2.054  0.00  0.00    -0.089 HD
ATOM     13  H   UNL     1       2.597  -0.328   0.406  0.00  0.00    -0.089 HD
ATOM     14  H   UNL     1       2.119   1.004   1.250  0.00  0.00    -0.089 HD
ENDBRANCH  10  11
BRANCH  10  16
ATOM     15  C   UNL     1      -0.009   1.536   0.035  0.00  0.00    +0.036 C 
ATOM     16  C   UNL     1       0.006   0.006   0.019  0.00  0.00    +0.106 C 
BRANCH  16  17
ATOM     17  O   UNL     1      -1.336  -0.484   0.033  0.00  0.00    -0.393 OA
ATOM     18  H   UNL     1      -1.847  -0.211   0.808  0.00  0.00    +0.210 HD
ENDBRANCH  16  17
ENDBRANCH  10  16
ENDBRANCH   5  10
ENDBRANCH   1   7
BRANCH   3  19
ATOM     19  C   UNL     1      -1.826  -6.326   3.873  0.00  0.00    +0.160 C 
BRANCH  19  20
ATOM     20  C   UNL     1      -3.192  -5.979   4.408  0.00  0.00    +0.238 C 
ATOM     21  O   UNL     1      -3.621  -4.851   4.290  0.00  0.00    -0.273 OA
ATOM     22  N   UNL     1      -3.936  -6.923   5.017  0.00  0.00    -0.284 N 
ATOM     23  H   UNL     1      -3.623  -7.840   5.052  0.00  0.00    +0.155 HD
BRANCH  22  24
ATOM     24  C   UNL     1      -5.162  -6.580   5.599  0.00  0.00    +0.034 A 
ATOM     25  C   UNL     1      -5.578  -7.207   6.766  0.00  0.00    +0.025 A 
ATOM     26  C   UNL     1      -6.788  -6.865   7.338  0.00  0.00    +0.034 A 
ATOM     27  C   UNL     1      -7.585  -5.900   6.749  0.00  0.00    +0.126 A 
ATOM     28  C   UNL     1      -7.173  -5.274   5.587  0.00  0.00    +0.034 A 
ATOM     29  C   UNL     1      -5.962  -5.607   5.014  0.00  0.00    +0.025 A 
BRANCH  27  30
ATOM     30  N   UNL     1      -8.881  -5.537   7.365  0.00  0.00    +0.056 N 
ATOM     31  O   UNL     1      -9.242  -6.084   8.381  0.00  0.00    -0.126 OA
ATOM     32  O   UNL     1      -9.579  -4.694   6.852  0.00  0.00    -0.126 OA
ENDBRANCH  27  30
ENDBRANCH  22  24
ENDBRANCH  19  20
BRANCH  19  33
ATOM     33  C   UNL     1      -0.938  -6.814   5.020  0.00  0.00    +0.034 C 
BRANCH  33  34
ATOM     34  C   UNL     1       0.406  -7.283   4.460  0.00  0.00    -0.015 C 
ATOM     35  C   UNL     1       1.338  -7.654   5.615  0.00  0.00    +0.007 C 
ATOM     36  C   UNL     1       0.188  -8.507   3.568  0.00  0.00    +0.007 C 
ENDBRANCH  33  34
ENDBRANCH  19  33
ENDBRANCH   3  19
TORSDOF 11
