REMARK  Name = ZINC37538176
REMARK  10 active torsions:
REMARK  status: ('A' for Active; 'I' for Inactive)
REMARK    1  A    between atoms: C_1  and  C_2
REMARK    2  A    between atoms: C_2  and  C_4
REMARK    3  A    between atoms: C_2  and  C_28
REMARK    4  A    between atoms: C_9  and  C_25
REMARK    5  A    between atoms: C_9  and  C_26
REMARK    6  A    between atoms: C_13  and  C_18
REMARK    7  A    between atoms: C_18  and  C_19
REMARK    8  A    between atoms: C_26  and  O_27
REMARK    9  A    between atoms: C_28  and  C_30
REMARK   10  A    between atoms: C_28  and  N_31
REMARK                            x       y       z     vdW  Elec       q    Type
REMARK                         _______ _______ _______ _____ _____    ______ ____
ROOT
ATOM      1  C   UNL     1       0.830  -0.568  -1.090  0.00  0.00    +0.266 C 
ATOM      2  C   UNL     1       0.262  -0.078  -2.385  0.00  0.00    +0.255 C 
ATOM      3  O   UNL     1      -0.538   0.852  -2.346  0.00  0.00    -0.272 OA
ATOM      4  N   UNL     1       0.550  -0.569  -3.603  0.00  0.00    -0.297 N 
ATOM      5  C   UNL     1       1.751  -1.386  -3.878  0.00  0.00    +0.131 C 
ATOM      6  C   UNL     1       1.475  -2.800  -3.424  0.00  0.00    +0.239 C 
ATOM      7  O   UNL     1       0.398  -3.296  -3.762  0.00  0.00    -0.273 OA
ATOM      8  N   UNL     1       2.300  -3.551  -2.698  0.00  0.00    -0.300 N 
ATOM      9  C   UNL     1       2.909  -3.235  -1.418  0.00  0.00    +0.186 C 
ATOM     10  C   UNL     1       1.891  -2.596  -0.504  0.00  0.00    +0.329 C 
ATOM     11  O   UNL     1       2.041  -2.635   0.694  0.00  0.00    -0.249 OA
ATOM     12  O   UNL     1       0.823  -1.993  -1.044  0.00  0.00    -0.450 OA
ATOM     13  C   UNL     1       1.933  -1.417  -5.412  0.00  0.00    +0.044 C 
ATOM     14  H   UNL     1      -0.052  -0.374  -4.339  0.00  0.00    +0.150 HD
ATOM     15  H   UNL     1       2.526  -4.445  -3.075  0.00  0.00    +0.150 HD
ENDROOT
BRANCH   1  17
ATOM     16  C   UNL     1       0.510  -0.571   1.394  0.00  0.00    +0.013 C 
ATOM     17  C   UNL     1      -0.032  -0.037   0.066  0.00  0.00    +0.056 C 
BRANCH  17  18
ATOM     18  C   UNL     1      -1.477  -0.505  -0.119  0.00  0.00    +0.078 C 
ATOM     19  C   UNL     1      -1.543  -2.027   0.024  0.00  0.00    +0.028 C 
BRANCH  18  20
ATOM     20  N   UNL     1      -2.327   0.118   0.899  0.00  0.00    -0.297 N 
ATOM     21  C   UNL     1      -3.644   0.282   0.669  0.00  0.00    +0.297 C 
ATOM     22  O   UNL     1      -4.128  -0.086  -0.384  0.00  0.00    -0.253 OA
ATOM     23  N   UNL     1      -4.426   0.856   1.606  0.00  0.00    -0.313 N 
ATOM     24  H   UNL     1      -1.941   0.412   1.739  0.00  0.00    +0.151 HD
ATOM     25  H   UNL     1      -4.040   1.150   2.446  0.00  0.00    +0.146 HD
ATOM     26  H   UNL     1      -5.374   0.974   1.440  0.00  0.00    +0.146 HD
ENDBRANCH  18  20
ENDBRANCH  17  18
ENDBRANCH   1  17
BRANCH   9  27
ATOM     27  C   UNL     1       3.410  -4.529  -0.762  0.00  0.00    +0.069 C 
BRANCH  27  28
ATOM     28  C   UNL     1       4.516  -5.120  -1.597  0.00  0.00    -0.045 A 
ATOM     29  C   UNL     1       4.217  -6.015  -2.607  0.00  0.00    +0.004 A 
ATOM     30  C   UNL     1       5.232  -6.557  -3.373  0.00  0.00    +0.000 A 
ATOM     31  C   UNL     1       6.546  -6.204  -3.129  0.00  0.00    +0.000 A 
ATOM     32  C   UNL     1       6.845  -5.309  -2.119  0.00  0.00    +0.000 A 
ATOM     33  C   UNL     1       5.830  -4.763  -1.356  0.00  0.00    +0.004 A 
ENDBRANCH  27  28
ENDBRANCH   9  27
BRANCH   5  34
ATOM     34  C   UNL     1       2.995  -0.778  -3.267  0.00  0.00    +0.190 C 
BRANCH  34  35
ATOM     35  O   UNL     1       4.123  -1.604  -3.562  0.00  0.00    -0.392 OA
ATOM     36  H   UNL     1       4.957  -1.275  -3.200  0.00  0.00    +0.210 HD
ENDBRANCH  34  35
ENDBRANCH   5  34
TORSDOF 7
