REMARK  Name = ZINC67572425
REMARK  6 active torsions:
REMARK  status: ('A' for Active; 'I' for Inactive)
REMARK    1  A    between atoms: C_1  and  C_2
REMARK    2  A    between atoms: C_9  and  C_11
REMARK    3  A    between atoms: C_11  and  C_13
REMARK    4  A    between atoms: C_11  and  N_14
REMARK    5  A    between atoms: N_17  and  C_18
REMARK    6  A    between atoms: C_20  and  C_23
REMARK                            x       y       z     vdW  Elec       q    Type
REMARK                         _______ _______ _______ _____ _____    ______ ____
ROOT
ATOM      1  N   UNL     1       2.521   0.957   4.055  0.00  0.00    -0.288 N 
ATOM      2  C   UNL     1       2.883   0.679   5.323  0.00  0.00    +0.307 C 
ATOM      3  O   UNL     1       2.971  -0.476   5.691  0.00  0.00    -0.252 OA
ATOM      4  N   UNL     1       3.149   1.682   6.183  0.00  0.00    -0.238 N 
ATOM      5  H   UNL     1       2.451   1.879   3.761  0.00  0.00    +0.151 HD
ATOM      6  H   UNL     1       3.079   2.604   5.890  0.00  0.00    +0.159 HD
ENDROOT
BRANCH   4   7
ATOM      7  C   UNL     1       3.522   1.396   7.488  0.00  0.00    +0.226 A 
ATOM      8  C   UNL     1       3.811   2.305   8.455  0.00  0.00    +0.101 A 
ATOM      9  C   UNL     1       4.139   1.605   9.624  0.00  0.00    +0.188 A 
ATOM     10  N   UNL     1       4.052   0.328   9.373  0.00  0.00    -0.072 NA
ATOM     11  O   UNL     1       3.656   0.171   8.023  0.00  0.00    -0.339 OA
BRANCH   9  12
ATOM     12  C   UNL     1       4.527   2.221  10.944  0.00  0.00    +0.438 C 
ATOM     13  F   UNL     1       3.379   2.427  11.717  0.00  0.00    -0.164 F 
ATOM     14  F   UNL     1       5.398   1.363  11.622  0.00  0.00    -0.164 F 
ATOM     15  F   UNL     1       5.162   3.447  10.717  0.00  0.00    -0.164 F 
ENDBRANCH   9  12
ENDBRANCH   4   7
BRANCH   1  16
ATOM     16  C   UNL     1       2.232  -0.133   3.120  0.00  0.00    +0.157 C 
ATOM     17  C   UNL     1       3.537  -0.619   2.485  0.00  0.00    +0.038 C 
BRANCH  16  25
ATOM     18  C   UNL     1      -0.014   1.458  -0.029  0.00  0.00    +0.028 C 
ATOM     19  C   UNL     1      -0.184  -0.052   0.142  0.00  0.00    +0.073 C 
ATOM     20  C   UNL     1       0.260  -0.767  -1.138  0.00  0.00    +0.022 C 
ATOM     21  C   UNL     1       0.220  -2.280  -0.913  0.00  0.00    +0.003 C 
ATOM     22  C   UNL     1       1.188  -2.656   0.211  0.00  0.00    +0.019 C 
ATOM     23  C   UNL     1       0.755  -1.963   1.506  0.00  0.00    +0.108 C 
ATOM     24  N   UNL     1       0.648  -0.518   1.260  0.00  0.00    -0.297 N 
ATOM     25  C   UNL     1       1.303   0.362   2.042  0.00  0.00    +0.236 C 
ATOM     26  O   UNL     1       1.145   1.554   1.878  0.00  0.00    -0.274 OA
ENDBRANCH  16  25
ENDBRANCH   1  16
TORSDOF 4
