REMARK  Name = ZINC36367815
REMARK  5 active torsions:
REMARK  status: ('A' for Active; 'I' for Inactive)
REMARK    1  A    between atoms: C_1  and  C_2
REMARK    2  A    between atoms: C_7  and  C_8
REMARK    3  A    between atoms: C_21  and  C_24
REMARK    4  A    between atoms: C_24  and  O_26
REMARK    5  A    between atoms: O_26  and  C_27
REMARK                            x       y       z     vdW  Elec       q    Type
REMARK                         _______ _______ _______ _____ _____    ______ ____
ROOT
ATOM      1  C   UNL     1       0.070  -0.145   2.603  0.00  0.00    +0.132 C 
ATOM      2  C   UNL     1      -1.340  -0.001   3.124  0.00  0.00    +0.042 A 
ATOM      3  C   UNL     1      -1.865  -0.820   4.063  0.00  0.00    -0.015 A 
ATOM      4  C   UNL     1      -3.220  -0.378   4.306  0.00  0.00    +0.003 A 
ATOM      5  C   UNL     1      -4.231  -0.832   5.159  0.00  0.00    +0.010 A 
ATOM      6  C   UNL     1      -5.423  -0.152   5.127  0.00  0.00    +0.001 A 
ATOM      7  C   UNL     1      -5.629   0.935   4.293  0.00  0.00    +0.002 A 
ATOM      8  C   UNL     1      -4.647   1.406   3.440  0.00  0.00    +0.026 A 
ATOM      9  C   UNL     1      -3.426   0.736   3.450  0.00  0.00    +0.047 A 
ATOM     10  N   UNL     1      -2.269   0.932   2.752  0.00  0.00    -0.356 N 
ATOM     11  H   UNL     1      -2.127   1.628   2.091  0.00  0.00    +0.166 HD
ATOM     12  C   UNL     1      -1.107  -1.964   4.688  0.00  0.00    +0.067 C 
ATOM     13  C   UNL     1       0.124  -2.249   3.816  0.00  0.00    +0.169 C 
ATOM     14  N   UNL     1       0.834  -0.987   3.537  0.00  0.00    -0.292 NA
ATOM     15  H   UNL     1       1.765  -1.160   3.190  0.00  0.00    +0.124 HD
ENDROOT
BRANCH   1  22
ATOM     16  C   UNL     1       2.404  -0.029   0.903  0.00  0.00    +0.044 C 
ATOM     17  C   UNL     1       1.161  -0.737   0.429  0.00  0.00    -0.045 A 
ATOM     18  C   UNL     1       1.139  -1.336  -0.817  0.00  0.00    +0.004 A 
ATOM     19  C   UNL     1      -0.001  -1.985  -1.251  0.00  0.00    +0.000 A 
ATOM     20  C   UNL     1      -1.120  -2.036  -0.440  0.00  0.00    +0.000 A 
ATOM     21  C   UNL     1      -1.097  -1.438   0.806  0.00  0.00    +0.006 A 
ATOM     22  C   UNL     1       0.045  -0.792   1.242  0.00  0.00    -0.022 A 
ENDBRANCH   1  22
BRANCH  13  23
ATOM     23  C   UNL     1       1.048  -3.192   4.544  0.00  0.00    +0.324 C 
ATOM     24  O   UNL     1       2.019  -2.763   5.119  0.00  0.00    -0.249 OA
BRANCH  23  25
ATOM     25  O   UNL     1       0.790  -4.510   4.552  0.00  0.00    -0.467 OA
ATOM     26  C   UNL     1       1.708  -5.345   5.262  0.00  0.00    +0.280 C 
ENDBRANCH  23  25
ENDBRANCH  13  23
TORSDOF 3
