REMARK  Name = ZINC31413324
REMARK  8 active torsions:
REMARK  status: ('A' for Active; 'I' for Inactive)
REMARK    1  A    between atoms: C_1  and  N_2
REMARK    2  A    between atoms: N_2  and  S_3
REMARK    3  A    between atoms: S_3  and  C_6
REMARK    4  A    between atoms: C_8  and  C_12
REMARK    5  A    between atoms: N_9  and  C_11
REMARK    6  A    between atoms: N_14  and  C_15
REMARK    7  A    between atoms: C_15  and  C_16
REMARK    8  A    between atoms: N_18  and  C_19
REMARK                            x       y       z     vdW  Elec       q    Type
REMARK                         _______ _______ _______ _____ _____    ______ ____
ROOT
ATOM      1  C   UNL     1      -1.046  -1.023  -0.010  0.00  0.00    +0.261 C 
ATOM      2  O   UNL     1      -0.819  -2.216   0.058  0.00  0.00    -0.269 OA
ATOM      3  N   UNL     1      -2.318  -0.582  -0.086  0.00  0.00    -0.302 N 
ATOM      4  H   UNL     1      -2.521   0.489  -0.230  0.00  0.00    +0.150 HD
ENDROOT
BRANCH   1   7
ATOM      5  C   UNL     1       1.252   1.827   0.008  0.00  0.00    +0.123 A 
ATOM      6  C   UNL     1      -0.047   1.310   0.017  0.00  0.00    +0.061 A 
ATOM      7  C   UNL     1       0.063  -0.064  -0.008  0.00  0.00    +0.106 A 
ATOM      8  N   UNL     1       1.405  -0.372  -0.033  0.00  0.00    -0.344 N 
ATOM      9  C   UNL     1       2.115   0.783  -0.022  0.00  0.00    +0.114 A 
ATOM     10  C   UNL     1       1.971  -1.722  -0.059  0.00  0.00    +0.149 C 
BRANCH   5  11
ATOM     11  S   UNL     1       1.690   3.534   0.032  0.00  0.00    +0.060 S 
ATOM     12  O   UNL     1       2.989   3.628  -0.536  0.00  0.00    -0.153 OA
ATOM     13  O   UNL     1       0.577   4.246  -0.490  0.00  0.00    -0.153 OA
BRANCH  11  15
ATOM     14  C   UNL     1       2.887   3.393   2.453  0.00  0.00    +0.127 C 
ATOM     15  N   UNL     1       1.835   3.980   1.620  0.00  0.00    -0.193 NA
ATOM     16  H   UNL     1       1.042   4.587   2.082  0.00  0.00    +0.148 HD
ENDBRANCH  11  15
ENDBRANCH   5  11
ENDBRANCH   1   7
BRANCH   3  17
ATOM     17  C   UNL     1      -3.429  -1.530   0.024  0.00  0.00    +0.200 C 
BRANCH  17  18
ATOM     18  C   UNL     1      -4.736  -0.788  -0.093  0.00  0.00    +0.234 C 
ATOM     19  O   UNL     1      -4.738   0.415  -0.252  0.00  0.00    -0.274 OA
ATOM     20  N   UNL     1      -5.902  -1.460  -0.021  0.00  0.00    -0.284 N 
ATOM     21  H   UNL     1      -5.900  -2.558   0.048  0.00  0.00    +0.155 HD
BRANCH  20  22
ATOM     22  C   UNL     1      -7.115  -0.761  -0.032  0.00  0.00    +0.036 A 
ATOM     23  C   UNL     1      -8.191  -1.225   0.713  0.00  0.00    +0.026 A 
ATOM     24  C   UNL     1      -9.386  -0.531   0.706  0.00  0.00    +0.043 A 
ATOM     25  C   UNL     1      -9.515   0.619  -0.053  0.00  0.00    +0.159 A 
ATOM     26  C   UNL     1      -8.444   1.082  -0.803  0.00  0.00    +0.160 A 
ATOM     27  C   UNL     1      -7.245   0.393  -0.793  0.00  0.00    +0.064 A 
ATOM     28  F   UNL     1      -8.572   2.205  -1.542  0.00  0.00    -0.202 F 
ATOM     29  F   UNL     1     -10.687   1.293  -0.063  0.00  0.00    -0.202 F 
ENDBRANCH  20  22
ENDBRANCH  17  18
ENDBRANCH   3  17
TORSDOF 6
