REMARK  Name = ZINC39323369
REMARK  3 active torsions:
REMARK  status: ('A' for Active; 'I' for Inactive)
REMARK    1  A    between atoms: C_5  and  C_7
REMARK    2  A    between atoms: C_19  and  N_23
REMARK    3  A    between atoms: C_20  and  C_21
REMARK                            x       y       z     vdW  Elec       q    Type
REMARK                         _______ _______ _______ _____ _____    ______ ____
ROOT
ATOM      1  C   UNL     1       1.229  -2.186  -0.022  0.00  0.00    +0.086 C 
ATOM      2  C   UNL     1       0.524  -2.715   1.234  0.00  0.00    +0.171 C 
ATOM      3  C   UNL     1       0.953  -1.919   2.431  0.00  0.00    +0.233 C 
ATOM      4  O   UNL     1       2.128  -1.883   2.728  0.00  0.00    -0.274 OA
ATOM      5  N   UNL     1       0.067  -1.246   3.181  0.00  0.00    -0.238 N 
ATOM      6  C   UNL     1      -1.243  -1.248   2.887  0.00  0.00    +0.332 C 
ATOM      7  O   UNL     1      -2.015  -0.646   3.609  0.00  0.00    -0.250 OA
ATOM      8  N   UNL     1      -1.721  -1.898   1.815  0.00  0.00    -0.131 NA
ATOM      9  C   UNL     1      -0.964  -2.586   1.012  0.00  0.00    +0.204 C 
ATOM     10  O   UNL     1      -1.482  -3.206  -0.072  0.00  0.00    -0.428 OA
ATOM     11  C   UNL     1      -0.758  -3.146  -1.211  0.00  0.00    +0.200 C 
ATOM     12  C   UNL     1       0.513  -2.691  -1.246  0.00  0.00    +0.095 C 
ATOM     13  H   UNL     1       0.379  -0.747   3.953  0.00  0.00    +0.159 HD
ENDROOT
BRANCH   1  18
ATOM     14  C   UNL     1      -0.017   1.378   0.010  0.00  0.00    +0.000 A 
ATOM     15  C   UNL     1       1.171   2.086   0.002  0.00  0.00    +0.001 A 
ATOM     16  C   UNL     1       2.377   1.411  -0.013  0.00  0.00    +0.014 A 
ATOM     17  C   UNL     1       2.396   0.029  -0.021  0.00  0.00    +0.017 A 
ATOM     18  C   UNL     1       1.208  -0.679  -0.013  0.00  0.00    -0.025 A 
ATOM     19  C   UNL     1       0.002  -0.004   0.002  0.00  0.00    +0.005 A 
ATOM     20  I   UNL     1       4.225  -0.994  -0.044  0.00  0.00    -0.044 I 
ENDBRANCH   1  18
BRANCH  11  21
ATOM     21  N   UNL     1      -1.338  -3.567  -2.382  0.00  0.00    -0.328 N 
ATOM     22  H   UNL     1      -2.249  -3.898  -2.380  0.00  0.00    +0.145 HD
ATOM     23  H   UNL     1      -0.836  -3.533  -3.212  0.00  0.00    +0.145 HD
ENDBRANCH  11  21
BRANCH  12  24
ATOM     24  C   UNL     1       1.208  -2.687  -2.498  0.00  0.00    +0.100 C 
ATOM     25  N   UNL     1       1.760  -2.684  -3.491  0.00  0.00    -0.191 NA
ENDBRANCH  12  24
TORSDOF 3
