REMARK  Name = ZINC14548385
REMARK  4 active torsions:
REMARK  status: ('A' for Active; 'I' for Inactive)
REMARK    1  A    between atoms: C_3  and  C_6
REMARK    2  A    between atoms: C_17  and  S_22
REMARK    3  A    between atoms: S_22  and  N_25
REMARK    4  A    between atoms: N_25  and  C_26
REMARK                            x       y       z     vdW  Elec       q    Type
REMARK                         _______ _______ _______ _____ _____    ______ ____
ROOT
ATOM      1  C   UNL     1      -3.201   4.474   5.115  0.00  0.00    +0.111 C 
ATOM      2  C   UNL     1      -1.804   5.100   5.083  0.00  0.00    +0.029 C 
ATOM      3  C   UNL     1      -1.988   6.646   5.062  0.00  0.00    +0.033 C 
ATOM      4  C   UNL     1      -2.245   6.950   3.599  0.00  0.00    -0.030 C 
ATOM      5  C   UNL     1      -1.788   5.983   2.842  0.00  0.00    -0.023 C 
ATOM      6  C   UNL     1      -1.169   4.900   3.693  0.00  0.00    +0.049 C 
ATOM      7  C   UNL     1      -1.429   3.542   3.123  0.00  0.00    -0.018 A 
ATOM      8  C   UNL     1      -0.715   3.143   2.000  0.00  0.00    +0.034 A 
ATOM      9  C   UNL     1      -0.927   1.900   1.439  0.00  0.00    +0.106 A 
ATOM     10  C   UNL     1      -1.845   1.030   1.998  0.00  0.00    +0.030 A 
ATOM     11  C   UNL     1      -2.558   1.413   3.117  0.00  0.00    +0.025 A 
ATOM     12  C   UNL     1      -2.351   2.667   3.677  0.00  0.00    +0.031 A 
ATOM     13  N   UNL     1      -3.087   3.045   4.805  0.00  0.00    -0.336 N 
ATOM     14  H   UNL     1      -3.512   2.378   5.368  0.00  0.00    +0.147 HD
ENDROOT
BRANCH   1  17
ATOM     15  C   UNL     1      -5.704   6.583   3.167  0.00  0.00    +0.008 A 
ATOM     16  C   UNL     1      -5.011   6.112   4.266  0.00  0.00    +0.013 A 
ATOM     17  C   UNL     1      -4.079   5.144   4.090  0.00  0.00    +0.010 A 
ATOM     18  S   UNL     1      -4.155   4.875   2.326  0.00  0.00    -0.100 S 
ATOM     19  C   UNL     1      -5.431   6.064   1.945  0.00  0.00    +0.045 A 
ENDBRANCH   1  17
BRANCH   9  20
ATOM     20  S   UNL     1      -0.017   1.417   0.010  0.00  0.00    +0.059 S 
ATOM     21  O   UNL     1       0.002  -0.004   0.002  0.00  0.00    -0.153 OA
ATOM     22  O   UNL     1       1.172   2.195   0.003  0.00  0.00    -0.153 OA
BRANCH  20  23
ATOM     23  N   UNL     1      -0.897   1.885  -1.312  0.00  0.00    -0.187 NA
ATOM     24  H   UNL     1      -1.263   1.218  -1.913  0.00  0.00    +0.148 HD
BRANCH  23  25
ATOM     25  C   UNL     1      -1.125   3.309  -1.574  0.00  0.00    +0.077 C 
ATOM     26  C   UNL     1      -2.473   3.727  -0.984  0.00  0.00    +0.020 C 
ATOM     27  C   UNL     1      -2.710   5.213  -1.257  0.00  0.00    +0.002 C 
ATOM     28  C   UNL     1      -2.716   5.460  -2.767  0.00  0.00    +0.000 C 
ATOM     29  C   UNL     1      -1.368   5.042  -3.357  0.00  0.00    +0.002 C 
ATOM     30  C   UNL     1      -1.131   3.555  -3.084  0.00  0.00    +0.020 C 
ENDBRANCH  23  25
ENDBRANCH  20  23
ENDBRANCH   9  20
TORSDOF 4
