REMARK  Name = ZINC09454435
REMARK  7 active torsions:
REMARK  status: ('A' for Active; 'I' for Inactive)
REMARK    1  A    between atoms: C_1  and  C_2
REMARK    2  A    between atoms: C_7  and  C_12
REMARK    3  A    between atoms: C_12  and  C_13
REMARK    4  A    between atoms: C_14  and  C_29
REMARK    5  A    between atoms: N_16  and  C_21
REMARK    6  A    between atoms: C_21  and  C_22
REMARK    7  A    between atoms: C_22  and  C_23
REMARK                            x       y       z     vdW  Elec       q    Type
REMARK                         _______ _______ _______ _____ _____    ______ ____
ROOT
ATOM      1  C   UNL     1      -2.144  -6.418   3.345  0.00  0.00    +0.077 C 
ATOM      2  C   UNL     1      -0.751  -6.335   3.924  0.00  0.00    +0.151 C 
ATOM      3  N   UNL     1      -0.496  -7.631   4.564  0.00  0.00    -0.283 N 
ATOM      4  C   UNL     1      -1.588  -8.397   4.395  0.00  0.00    +0.288 C 
ATOM      5  O   UNL     1      -1.712  -9.535   4.804  0.00  0.00    -0.266 OA
ATOM      6  C   UNL     1      -2.619  -7.649   3.645  0.00  0.00    +0.249 C 
ATOM      7  O   UNL     1      -3.841  -8.121   3.308  0.00  0.00    -0.282 OA
ENDROOT
BRANCH   2   8
ATOM      8  C   UNL     1      -0.679  -5.229   4.946  0.00  0.00    +0.015 A 
ATOM      9  C   UNL     1      -0.051  -4.031   4.865  0.00  0.00    +0.013 A 
ATOM     10  C   UNL     1      -0.121  -3.163   5.939  0.00  0.00    +0.008 A 
ATOM     11  C   UNL     1      -0.816  -3.536   7.041  0.00  0.00    +0.045 A 
ATOM     12  S   UNL     1      -1.407  -5.156   6.575  0.00  0.00    -0.099 S 
ENDBRANCH   2   8
BRANCH   1  13
ATOM     13  C   UNL     1      -2.849  -5.365   2.607  0.00  0.00    +0.195 C 
ATOM     14  O   UNL     1      -3.841  -4.846   3.085  0.00  0.00    -0.287 OA
BRANCH  13  20
ATOM     15  C   UNL     1      -1.968  -1.724  -3.781  0.00  0.00    +0.052 C 
ATOM     16  C   UNL     1      -2.315  -2.971  -2.965  0.00  0.00    +0.175 C 
ATOM     17  C   UNL     1      -3.123  -2.592  -1.701  0.00  0.00    +0.083 C 
ATOM     18  C   UNL     1      -2.591  -3.581  -0.682  0.00  0.00    -0.002 A 
ATOM     19  C   UNL     1      -3.059  -3.976   0.547  0.00  0.00    +0.019 A 
ATOM     20  C   UNL     1      -2.354  -4.933   1.285  0.00  0.00    +0.023 A 
ATOM     21  C   UNL     1      -1.178  -5.477   0.760  0.00  0.00    +0.015 A 
ATOM     22  C   UNL     1      -0.717  -5.072  -0.469  0.00  0.00    +0.046 A 
ATOM     23  C   UNL     1      -1.417  -4.114  -1.206  0.00  0.00    +0.124 A 
ATOM     24  O   UNL     1      -1.127  -3.571  -2.421  0.00  0.00    -0.488 OA
ENDBRANCH  13  20
ENDBRANCH   1  13
BRANCH   3  25
ATOM     25  C   UNL     1       0.732  -8.021   5.262  0.00  0.00    +0.114 C 
BRANCH  25  26
ATOM     26  C   UNL     1       0.615  -7.653   6.743  0.00  0.00    +0.054 C 
BRANCH  26  27
ATOM     27  C   UNL     1       1.878  -8.054   7.461  0.00  0.00    -0.046 A 
ATOM     28  C   UNL     1       1.986  -9.316   8.015  0.00  0.00    +0.004 A 
ATOM     29  C   UNL     1       3.145  -9.684   8.674  0.00  0.00    +0.000 A 
ATOM     30  C   UNL     1       4.194  -8.790   8.778  0.00  0.00    +0.000 A 
ATOM     31  C   UNL     1       4.086  -7.529   8.223  0.00  0.00    +0.000 A 
ATOM     32  C   UNL     1       2.929  -7.162   7.560  0.00  0.00    +0.004 A 
ENDBRANCH  26  27
ENDBRANCH  25  26
ENDBRANCH   3  25
TORSDOF 6
