REMARK  Name = ZINC36531284
REMARK  15 active torsions:
REMARK  status: ('A' for Active; 'I' for Inactive)
REMARK    1  A    between atoms: C_1  and  C_2
REMARK    2  A    between atoms: C_2  and  C_3
REMARK    3  A    between atoms: C_2  and  C_4
REMARK    4  A    between atoms: C_2  and  C_5
REMARK    5  A    between atoms: C_5  and  C_6
REMARK    6  A    between atoms: C_6  and  C_7
REMARK    7  A    between atoms: C_6  and  C_8
REMARK    8  A    between atoms: C_6  and  N_9
REMARK    9  A    between atoms: C_10  and  C_12
REMARK   10  A    between atoms: C_12  and  C_14
REMARK   11  A    between atoms: C_12  and  N_28
REMARK   12  A    between atoms: N_28  and  C_29
REMARK   13  A    between atoms: C_30  and  C_32
REMARK   14  A    between atoms: C_36  and  O_39
REMARK   15  A    between atoms: C_37  and  O_38
REMARK                            x       y       z     vdW  Elec       q    Type
REMARK                         _______ _______ _______ _____ _____    ______ ____
ROOT
ATOM      1  C   UNL     1       5.379  -0.576  -4.308  0.00  0.00    +0.193 C 
ENDROOT
BRANCH   1   2
ATOM      2  C   UNL     1       4.805   0.411  -5.292  0.00  0.00    -0.010 A 
ATOM      3  C   UNL     1       4.082   1.454  -4.835  0.00  0.00    +0.015 A 
ATOM      4  C   UNL     1       3.523   2.406  -5.718  0.00  0.00    -0.017 A 
ATOM      5  C   UNL     1       2.773   3.488  -5.233  0.00  0.00    +0.008 A 
ATOM      6  C   UNL     1       2.246   4.392  -6.107  0.00  0.00    +0.001 A 
ATOM      7  C   UNL     1       2.439   4.258  -7.477  0.00  0.00    +0.001 A 
ATOM      8  C   UNL     1       3.164   3.216  -7.981  0.00  0.00    +0.009 A 
ATOM      9  C   UNL     1       3.718   2.274  -7.111  0.00  0.00    -0.010 A 
ATOM     10  C   UNL     1       4.502   1.140  -7.608  0.00  0.00    -0.010 A 
ATOM     11  C   UNL     1       5.040   0.226  -6.674  0.00  0.00    -0.012 A 
ATOM     12  C   UNL     1       5.797  -0.859  -7.138  0.00  0.00    +0.009 A 
ATOM     13  C   UNL     1       6.008  -1.013  -8.477  0.00  0.00    +0.001 A 
ATOM     14  C   UNL     1       5.483  -0.108  -9.392  0.00  0.00    +0.001 A 
ATOM     15  C   UNL     1       4.731   0.952  -8.972  0.00  0.00    +0.009 A 
ENDBRANCH   1   2
BRANCH   1  17
ATOM     16  N   UNL     1       3.314  -1.188  -3.091  0.00  0.00    -0.308 N 
ATOM     17  C   UNL     1       4.526  -0.600  -3.065  0.00  0.00    +0.239 C 
ATOM     18  O   UNL     1       4.931  -0.089  -2.042  0.00  0.00    -0.273 OA
ATOM     19  H   UNL     1       3.016  -1.650  -3.890  0.00  0.00    +0.149 HD
BRANCH  16  20
ATOM     20  C   UNL     1       2.446  -1.129  -1.912  0.00  0.00    +0.030 C 
ATOM     21  C   UNL     1       2.276   0.327  -1.476  0.00  0.00    +0.031 C 
ATOM     22  C   UNL     1       3.078  -1.932  -0.773  0.00  0.00    +0.031 C 
BRANCH  20  23
ATOM     23  C   UNL     1       1.078  -1.722  -2.256  0.00  0.00    +0.031 C 
BRANCH  23  25
ATOM     24  C   UNL     1       1.316  -2.023  -4.725  0.00  0.00    +0.010 C 
ATOM     25  C   UNL     1       0.630  -1.209  -3.626  0.00  0.00    -0.036 C 
ATOM     26  C   UNL     1       1.012   0.265  -3.769  0.00  0.00    +0.010 C 
ATOM     27  C   UNL     1      -0.888  -1.357  -3.754  0.00  0.00    +0.010 C 
ENDBRANCH  23  25
ENDBRANCH  20  23
ENDBRANCH  16  20
ENDBRANCH   1  17
BRANCH   1  28
ATOM     28  N   UNL     1       6.744  -0.176  -3.956  0.00  0.00    -0.285 N 
ATOM     29  C   UNL     1       6.989   1.130  -3.340  0.00  0.00    +0.133 C 
ATOM     30  C   UNL     1       7.774  -1.011  -4.199  0.00  0.00    +0.251 C 
ATOM     31  O   UNL     1       7.583  -2.055  -4.792  0.00  0.00    -0.270 OA
BRANCH  30  32
ATOM     32  C   UNL     1       9.133  -0.657  -3.746  0.00  0.00    +0.082 A 
ATOM     33  C   UNL     1       9.360  -0.309  -2.412  0.00  0.00    +0.017 A 
ATOM     34  C   UNL     1      10.630   0.021  -1.992  0.00  0.00    +0.005 A 
ATOM     35  C   UNL     1      11.687   0.009  -2.888  0.00  0.00    +0.049 A 
ATOM     36  C   UNL     1      11.478  -0.333  -4.213  0.00  0.00    +0.159 A 
ATOM     37  C   UNL     1      10.202  -0.674  -4.650  0.00  0.00    +0.171 A 
BRANCH  37  38
ATOM     38  O   UNL     1       9.993  -1.016  -5.947  0.00  0.00    -0.503 OA
ATOM     39  H   UNL     1       9.779  -0.268  -6.521  0.00  0.00    +0.292 HD
ENDBRANCH  37  38
BRANCH  36  40
ATOM     40  O   UNL     1      12.521  -0.341  -5.085  0.00  0.00    -0.503 OA
ATOM     41  H   UNL     1      12.978  -1.191  -5.144  0.00  0.00    +0.292 HD
ENDBRANCH  36  40
ENDBRANCH  30  32
ENDBRANCH   1  28
TORSDOF 9
