REMARK  Name = ZINC58306593
REMARK  8 active torsions:
REMARK  status: ('A' for Active; 'I' for Inactive)
REMARK    1  A    between atoms: C_1  and  C_2
REMARK    2  A    between atoms: C_2  and  C_4
REMARK    3  A    between atoms: C_2  and  S_11
REMARK    4  A    between atoms: N_6  and  C_7
REMARK    5  A    between atoms: C_7  and  C_8
REMARK    6  A    between atoms: C_8  and  C_9
REMARK    7  A    between atoms: C_8  and  C_10
REMARK    8  A    between atoms: S_11  and  C_12
REMARK                            x       y       z     vdW  Elec       q    Type
REMARK                         _______ _______ _______ _____ _____    ______ ____
ROOT
ATOM      1  C   UNL     1      -2.365  -0.093  -1.525  0.00  0.00    +0.193 A 
ATOM      2  N   UNL     1      -1.584   0.603  -2.349  0.00  0.00    -0.183 NA
ATOM      3  C   UNL     1      -2.025   1.034  -3.518  0.00  0.00    +0.282 A 
ATOM      4  O   UNL     1      -1.220   1.740  -4.345  0.00  0.00    -0.265 OA
ATOM      5  C   UNL     1      -3.360   0.738  -3.884  0.00  0.00    +0.069 A 
ATOM      6  C   UNL     1      -3.905   1.157  -5.104  0.00  0.00    +0.053 A 
ATOM      7  C   UNL     1      -5.199   0.843  -5.405  0.00  0.00    +0.124 A 
ATOM      8  C   UNL     1      -5.984   0.111  -4.514  0.00  0.00    +0.040 A 
ATOM      9  C   UNL     1      -5.481  -0.310  -3.319  0.00  0.00    +0.031 A 
ATOM     10  C   UNL     1      -4.156  -0.005  -2.978  0.00  0.00    +0.079 A 
ATOM     11  N   UNL     1      -3.614  -0.401  -1.817  0.00  0.00    -0.222 NA
ATOM     12  F   UNL     1      -5.727   1.246  -6.581  0.00  0.00    -0.205 F 
ENDROOT
BRANCH   1  13
ATOM     13  S   UNL     1      -1.700  -0.632   0.015  0.00  0.00    -0.073 S 
BRANCH  13  15
ATOM     14  C   UNL     1      -0.019   1.526   0.010  0.00  0.00    +0.029 C 
ATOM     15  C   UNL     1       0.002  -0.004   0.002  0.00  0.00    +0.137 C 
BRANCH  15  16
ATOM     16  C   UNL     1       0.731  -0.503   1.223  0.00  0.00    +0.226 C 
ATOM     17  O   UNL     1       0.105  -0.891   2.187  0.00  0.00    -0.275 OA
ATOM     18  N   UNL     1       2.079  -0.519   1.244  0.00  0.00    -0.314 N 
ATOM     19  H   UNL     1       2.579  -0.208   0.473  0.00  0.00    +0.149 HD
BRANCH  18  20
ATOM     20  C   UNL     1       2.787  -1.004   2.431  0.00  0.00    +0.107 C 
BRANCH  20  21
ATOM     21  C   UNL     1       4.296  -0.916   2.195  0.00  0.00    -0.000 C 
ATOM     22  C   UNL     1       5.036  -1.304   3.477  0.00  0.00    +0.009 C 
ATOM     23  C   UNL     1       4.693  -1.871   1.068  0.00  0.00    +0.009 C 
ENDBRANCH  20  21
ENDBRANCH  18  20
ENDBRANCH  15  16
ENDBRANCH  13  15
ENDBRANCH   1  13
TORSDOF 5
