REMARK  Name = ZINC56147334
REMARK  5 active torsions:
REMARK  status: ('A' for Active; 'I' for Inactive)
REMARK    1  A    between atoms: C_3  and  N_19
REMARK    2  A    between atoms: C_6  and  C_7
REMARK    3  A    between atoms: C_7  and  C_8
REMARK    4  A    between atoms: C_8  and  N_9
REMARK    5  A    between atoms: C_10  and  C_12
REMARK                            x       y       z     vdW  Elec       q    Type
REMARK                         _______ _______ _______ _____ _____    ______ ____
ROOT
ATOM      1  C   UNL     1      -1.779  -0.973  -1.427  0.00  0.00    +0.109 C 
ENDROOT
BRANCH   1   2
ATOM      2  N   UNL     1      -2.953  -1.849  -1.438  0.00  0.00    -0.312 N 
ATOM      3  C   UNL     1      -3.678  -1.990  -2.565  0.00  0.00    +0.237 C 
ATOM      4  O   UNL     1      -3.358  -1.389  -3.573  0.00  0.00    -0.271 OA
ATOM      5  H   UNL     1      -3.208  -2.329  -0.634  0.00  0.00    +0.149 HD
BRANCH   3   6
ATOM      6  C   UNL     1      -4.857  -2.869  -2.577  0.00  0.00    +0.066 C 
ATOM      7  C   UNL     1      -5.490  -3.117  -3.720  0.00  0.00    -0.065 C 
ATOM      8  C   UNL     1      -4.872  -2.739  -5.047  0.00  0.00    +0.031 C 
ATOM      9  C   UNL     1      -4.897  -3.967  -5.964  0.00  0.00    +0.004 C 
ATOM     10  C   UNL     1      -6.329  -4.497  -6.064  0.00  0.00    +0.001 C 
ATOM     11  C   UNL     1      -6.801  -4.975  -4.690  0.00  0.00    +0.004 C 
ATOM     12  C   UNL     1      -6.845  -3.790  -3.725  0.00  0.00    +0.031 C 
ENDBRANCH   3   6
ENDBRANCH   1   2
BRANCH   1  13
ATOM     13  C   UNL     1      -1.142  -0.993  -0.036  0.00  0.00    +0.054 C 
BRANCH  13  19
ATOM     14  C   UNL     1      -0.071   1.243   0.311  0.00  0.00    +0.006 A 
ATOM     15  C   UNL     1       1.037   2.070   0.322  0.00  0.00    +0.033 A 
ATOM     16  C   UNL     1       2.281   1.563  -0.002  0.00  0.00    +0.126 A 
ATOM     17  C   UNL     1       2.418   0.229  -0.337  0.00  0.00    +0.033 A 
ATOM     18  C   UNL     1       1.310  -0.598  -0.347  0.00  0.00    +0.006 A 
ATOM     19  C   UNL     1       0.066  -0.091  -0.024  0.00  0.00    -0.046 A 
BRANCH  16  20
ATOM     20  N   UNL     1       3.467   2.449   0.009  0.00  0.00    +0.056 N 
ATOM     21  O   UNL     1       3.347   3.616   0.301  0.00  0.00    -0.126 OA
ATOM     22  O   UNL     1       4.555   2.005  -0.275  0.00  0.00    -0.126 OA
ENDBRANCH  16  20
ENDBRANCH  13  19
ENDBRANCH   1  13
TORSDOF 5
