REMARK  Name = ZINC16889071
REMARK  9 active torsions:
REMARK  status: ('A' for Active; 'I' for Inactive)
REMARK    1  A    between atoms: C_1  and  C_2
REMARK    2  A    between atoms: C_2  and  C_3
REMARK    3  A    between atoms: C_3  and  C_4
REMARK    4  A    between atoms: C_8  and  C_23
REMARK    5  A    between atoms: C_14  and  C_16
REMARK    6  A    between atoms: C_21  and  O_22
REMARK    7  A    between atoms: C_23  and  C_24
REMARK    8  A    between atoms: C_25  and  C_27
REMARK    9  A    between atoms: C_32  and  O_33
REMARK                            x       y       z     vdW  Elec       q    Type
REMARK                         _______ _______ _______ _____ _____    ______ ____
ROOT
ATOM      1  C   UNL     1      -2.508  -2.767   0.446  0.00  0.00    +0.061 C 
ATOM      2  C   UNL     1      -2.943  -2.300  -0.952  0.00  0.00    +0.124 C 
ATOM      3  N   UNL     1      -2.958  -0.832  -0.975  0.00  0.00    -0.295 N 
ATOM      4  C   UNL     1      -1.721  -0.088  -0.631  0.00  0.00    +0.124 C 
ATOM      5  C   UNL     1      -1.287  -0.520   0.778  0.00  0.00    +0.061 C 
ATOM      6  C   UNL     1      -1.217  -2.039   0.786  0.00  0.00    +0.152 C 
ATOM      7  O   UNL     1      -0.197  -2.632   1.047  0.00  0.00    -0.296 OA
ATOM      8  C   UNL     1      -2.369  -0.105   1.787  0.00  0.00    +0.124 C 
ATOM      9  N   UNL     1      -3.598  -0.865   1.520  0.00  0.00    -0.295 N 
ATOM     10  C   UNL     1      -3.565  -2.332   1.472  0.00  0.00    +0.124 C 
ATOM     11  C   UNL     1      -4.751  -0.205   1.292  0.00  0.00    +0.250 C 
ATOM     12  O   UNL     1      -5.730  -0.810   0.899  0.00  0.00    -0.270 OA
ATOM     13  C   UNL     1      -4.082  -0.171  -1.314  0.00  0.00    +0.250 C 
ATOM     14  O   UNL     1      -5.127  -0.777  -1.447  0.00  0.00    -0.270 OA
ENDROOT
BRANCH  11  15
ATOM     15  C   UNL     1      -4.826   1.250   1.520  0.00  0.00    +0.078 A 
ATOM     16  C   UNL     1      -3.818   2.089   1.039  0.00  0.00    +0.017 A 
ATOM     17  C   UNL     1      -3.893   3.448   1.254  0.00  0.00    +0.001 A 
ATOM     18  C   UNL     1      -4.966   3.987   1.946  0.00  0.00    +0.004 A 
ATOM     19  C   UNL     1      -5.969   3.170   2.427  0.00  0.00    +0.046 A 
ATOM     20  C   UNL     1      -5.912   1.800   2.215  0.00  0.00    +0.129 A 
BRANCH  20  21
ATOM     21  O   UNL     1      -6.900   0.996   2.681  0.00  0.00    -0.506 OA
ATOM     22  H   UNL     1      -6.748   0.666   3.578  0.00  0.00    +0.292 HD
ENDBRANCH  20  21
ENDBRANCH  11  15
BRANCH  13  23
ATOM     23  C   UNL     1      -4.044   1.289  -1.524  0.00  0.00    +0.078 A 
ATOM     24  C   UNL     1      -2.874   1.904  -1.977  0.00  0.00    +0.017 A 
ATOM     25  C   UNL     1      -2.845   3.268  -2.171  0.00  0.00    +0.001 A 
ATOM     26  C   UNL     1      -3.972   4.033  -1.919  0.00  0.00    +0.004 A 
ATOM     27  C   UNL     1      -5.135   3.439  -1.471  0.00  0.00    +0.046 A 
ATOM     28  C   UNL     1      -5.183   2.067  -1.275  0.00  0.00    +0.129 A 
BRANCH  28  29
ATOM     29  O   UNL     1      -6.326   1.480  -0.840  0.00  0.00    -0.506 OA
ATOM     30  H   UNL     1      -6.437   1.498   0.120  0.00  0.00    +0.292 HD
ENDBRANCH  28  29
ENDBRANCH  13  23
BRANCH   5  31
ATOM     31  C   UNL     1       0.067   0.092   1.145  0.00  0.00    +0.014 C 
ATOM     32  C   UNL     1      -0.042   1.618   1.126  0.00  0.00    +0.005 C 
ENDBRANCH   5  31
BRANCH   1  33
ATOM     33  C   UNL     1      -2.306  -4.283   0.477  0.00  0.00    +0.017 C 
BRANCH  33  35
ATOM     34  C   UNL     1      -3.422  -6.497   0.162  0.00  0.00    +0.004 C 
ATOM     35  C   UNL     1      -3.623  -4.980   0.131  0.00  0.00    -0.002 C 
ENDBRANCH  33  35
ENDBRANCH   1  33
TORSDOF 7
