REMARK  Name = ZINC65789523
REMARK  7 active torsions:
REMARK  status: ('A' for Active; 'I' for Inactive)
REMARK    1  A    between atoms: C_1  and  N_2
REMARK    2  A    between atoms: N_2  and  C_3
REMARK    3  A    between atoms: C_6  and  C_10
REMARK    4  A    between atoms: C_10  and  N_11
REMARK    5  A    between atoms: N_14  and  C_15
REMARK    6  A    between atoms: C_17  and  C_27
REMARK    7  A    between atoms: C_20  and  N_21
REMARK                            x       y       z     vdW  Elec       q    Type
REMARK                         _______ _______ _______ _____ _____    ______ ____
ROOT
ATOM      1  N   UNL     1      -1.797  -4.777   1.538  0.00  0.00    -0.295 N 
ATOM      2  C   UNL     1      -1.797  -6.102   1.788  0.00  0.00    +0.304 C 
ATOM      3  O   UNL     1      -1.273  -6.869   1.003  0.00  0.00    -0.252 OA
ATOM      4  N   UNL     1      -2.378  -6.576   2.908  0.00  0.00    -0.268 N 
ATOM      5  H   UNL     1      -2.215  -4.165   2.163  0.00  0.00    +0.151 HD
ATOM      6  H   UNL     1      -2.724  -5.960   3.572  0.00  0.00    +0.156 HD
ENDROOT
BRANCH   4   7
ATOM      7  C   UNL     1      -2.483  -7.959   3.111  0.00  0.00    +0.057 A 
ATOM      8  C   UNL     1      -2.486  -8.819   2.029  0.00  0.00    +0.038 A 
ATOM      9  C   UNL     1      -2.591 -10.197   2.236  0.00  0.00    +0.038 A 
ATOM     10  C   UNL     1      -2.693 -10.701   3.536  0.00  0.00    +0.015 A 
ATOM     11  C   UNL     1      -2.690  -9.841   4.611  0.00  0.00    +0.026 A 
ATOM     12  C   UNL     1      -2.579  -8.470   4.408  0.00  0.00    +0.051 A 
BRANCH  12  13
ATOM     13  N   UNL     1      -2.571  -7.604   5.499  0.00  0.00    -0.328 N 
ATOM     14  C   UNL     1      -3.826  -7.056   6.030  0.00  0.00    +0.105 C 
ATOM     15  C   UNL     1      -3.897  -7.351   7.531  0.00  0.00    +0.019 C 
ATOM     16  C   UNL     1      -2.637  -6.812   8.213  0.00  0.00    +0.003 C 
ATOM     17  C   UNL     1      -1.404  -7.514   7.640  0.00  0.00    +0.019 C 
ATOM     18  C   UNL     1      -1.306  -7.225   6.144  0.00  0.00    +0.105 C 
ENDBRANCH  12  13
BRANCH   9  19
ATOM     19  C   UNL     1      -2.595 -11.119   1.084  0.00  0.00    +0.242 C 
ATOM     20  O   UNL     1      -2.508 -10.680  -0.046  0.00  0.00    -0.270 OA
ATOM     21  N   UNL     1      -2.697 -12.448   1.285  0.00  0.00    -0.325 N 
ATOM     22  H   UNL     1      -2.767 -12.798   2.187  0.00  0.00    +0.145 HD
ATOM     23  H   UNL     1      -2.699 -13.054   0.528  0.00  0.00    +0.145 HD
ENDBRANCH   9  19
ENDBRANCH   4   7
BRANCH   1  24
ATOM     24  C   UNL     1      -1.165  -4.262   0.321  0.00  0.00    +0.141 C 
BRANCH  24  30
ATOM     25  C   UNL     1       0.302   1.717   1.296  0.00  0.00    +0.130 C 
ATOM     26  N   UNL     1       0.467   0.263   1.347  0.00  0.00    -0.323 N 
ATOM     27  C   UNL     1       1.649  -0.318   1.990  0.00  0.00    +0.130 C 
ATOM     28  C   UNL     1      -0.496  -0.567   0.786  0.00  0.00    +0.098 A 
ATOM     29  C   UNL     1      -0.335  -1.948   0.843  0.00  0.00    +0.047 A 
ATOM     30  C   UNL     1      -1.302  -2.761   0.280  0.00  0.00    -0.026 A 
ATOM     31  C   UNL     1      -2.401  -2.165  -0.323  0.00  0.00    +0.023 A 
ATOM     32  C   UNL     1      -2.497  -0.788  -0.344  0.00  0.00    +0.084 A 
ATOM     33  N   UNL     1      -1.562  -0.036   0.206  0.00  0.00    -0.350 N 
ATOM     34  H   UNL     1      -1.655   0.929   0.181  0.00  0.00    +0.166 HD
ENDBRANCH  24  30
ENDBRANCH   1  24
TORSDOF 5
