REMARK  Name = ZINC09507732
REMARK  6 active torsions:
REMARK  status: ('A' for Active; 'I' for Inactive)
REMARK    1  A    between atoms: C_1  and  N_2
REMARK    2  A    between atoms: C_3  and  N_29
REMARK    3  A    between atoms: C_4  and  C_11
REMARK    4  A    between atoms: C_11  and  C_13
REMARK    5  A    between atoms: C_17  and  S_19
REMARK    6  A    between atoms: S_19  and  N_22
REMARK                            x       y       z     vdW  Elec       q    Type
REMARK                         _______ _______ _______ _____ _____    ______ ____
ROOT
ATOM      1  C   UNL     1       5.915  -0.998  -1.642  0.00  0.00    +0.024 A 
ATOM      2  C   UNL     1       5.160  -1.699  -2.583  0.00  0.00    +0.013 A 
ATOM      3  C   UNL     1       3.882  -2.111  -2.269  0.00  0.00    +0.022 A 
ATOM      4  C   UNL     1       3.348  -1.831  -1.022  0.00  0.00    +0.067 A 
ATOM      5  C   UNL     1       4.093  -1.136  -0.084  0.00  0.00    +0.124 A 
ATOM      6  C   UNL     1       5.370  -0.714  -0.389  0.00  0.00    +0.041 A 
ATOM      7 CL   UNL     1       1.739  -2.354  -0.633  0.00  0.00    -0.082 Cl
ENDROOT
BRANCH   5   8
ATOM      8  S   UNL     1       3.405  -0.783   1.500  0.00  0.00    +0.062 S 
ATOM      9  O   UNL     1       2.092  -0.290   1.271  0.00  0.00    -0.153 OA
ATOM     10  O   UNL     1       4.385  -0.040   2.212  0.00  0.00    -0.153 OA
BRANCH   8  11
ATOM     11  N   UNL     1       3.237  -2.227   2.293  0.00  0.00    -0.177 NA
ATOM     12  C   UNL     1       4.377  -2.833   2.994  0.00  0.00    +0.109 C 
ATOM     13  C   UNL     1       4.559  -4.269   2.491  0.00  0.00    +0.017 C 
ATOM     14  C   UNL     1       3.243  -5.033   2.653  0.00  0.00    +0.003 C 
ATOM     15  C   UNL     1       2.154  -4.361   1.813  0.00  0.00    +0.017 C 
ATOM     16  C   UNL     1       1.945  -2.926   2.309  0.00  0.00    +0.109 C 
ENDBRANCH   8  11
ENDBRANCH   5   8
BRANCH   1  17
ATOM     17  C   UNL     1       7.287  -0.553  -1.973  0.00  0.00    +0.202 C 
ATOM     18  O   UNL     1       7.972  -0.012  -1.125  0.00  0.00    -0.286 OA
BRANCH  17  22
ATOM     19  C   UNL     1       8.893   1.199  -6.303  0.00  0.00    +0.155 C 
ATOM     20  N   UNL     1       8.596   0.074  -5.413  0.00  0.00    -0.285 N 
ATOM     21  C   UNL     1       8.100   0.320  -4.164  0.00  0.00    +0.116 A 
ATOM     22  C   UNL     1       7.819  -0.764  -3.319  0.00  0.00    +0.124 A 
ATOM     23  C   UNL     1       8.082  -2.116  -3.826  0.00  0.00    +0.267 A 
ATOM     24  O   UNL     1       7.861  -3.092  -3.133  0.00  0.00    -0.267 OA
ATOM     25  N   UNL     1       8.566  -2.255  -5.077  0.00  0.00    -0.274 N 
ATOM     26  H   UNL     1       8.741  -3.170  -5.440  0.00  0.00    +0.173 HD
ATOM     27  C   UNL     1       8.817  -1.179  -5.841  0.00  0.00    +0.330 A 
ATOM     28  O   UNL     1       9.259  -1.347  -6.961  0.00  0.00    -0.246 OA
BRANCH  21  29
ATOM     29  N   UNL     1       7.881   1.597  -3.746  0.00  0.00    -0.344 N 
ATOM     30  H   UNL     1       7.596   1.767  -2.835  0.00  0.00    +0.144 HD
ATOM     31  H   UNL     1       8.011   2.337  -4.360  0.00  0.00    +0.144 HD
ENDBRANCH  21  29
ENDBRANCH  17  22
ENDBRANCH   1  17
TORSDOF 5
