REMARK  Name = ZINC53006171
REMARK  6 active torsions:
REMARK  status: ('A' for Active; 'I' for Inactive)
REMARK    1  A    between atoms: C_1  and  C_2
REMARK    2  A    between atoms: C_5  and  N_19
REMARK    3  A    between atoms: C_6  and  C_8
REMARK    4  A    between atoms: N_10  and  C_11
REMARK    5  A    between atoms: C_14  and  C_18
REMARK    6  A    between atoms: N_19  and  N_20
REMARK                            x       y       z     vdW  Elec       q    Type
REMARK                         _______ _______ _______ _____ _____    ______ ____
ROOT
ATOM      1  C   UNL     1       0.178   1.436  -0.201  0.00  0.00    +0.044 C 
ATOM      2  C   UNL     1       0.007  -0.060  -0.130  0.00  0.00    -0.050 A 
ATOM      3  C   UNL     1      -0.182  -0.788  -1.295  0.00  0.00    +0.005 A 
ATOM      4  C   UNL     1      -0.339  -2.158  -1.245  0.00  0.00    +0.025 A 
ATOM      5  C   UNL     1      -0.309  -2.817  -0.022  0.00  0.00    +0.053 A 
ATOM      6  C   UNL     1      -0.117  -2.083   1.159  0.00  0.00    +0.059 A 
ATOM      7  C   UNL     1       0.046  -0.697   1.090  0.00  0.00    +0.018 A 
ENDROOT
BRANCH   6   8
ATOM      8  C   UNL     1      -0.084  -2.771   2.462  0.00  0.00    +0.250 C 
ATOM      9  O   UNL     1      -0.120  -3.986   2.510  0.00  0.00    -0.270 OA
ATOM     10  N   UNL     1      -0.012  -2.054   3.601  0.00  0.00    -0.281 N 
ATOM     11  H   UNL     1      -0.059  -1.085   3.568  0.00  0.00    +0.155 HD
BRANCH  10  12
ATOM     12  C   UNL     1       0.129  -2.705   4.830  0.00  0.00    +0.035 A 
ATOM     13  C   UNL     1      -0.460  -2.174   5.971  0.00  0.00    +0.023 A 
ATOM     14  C   UNL     1      -0.320  -2.820   7.184  0.00  0.00    +0.006 A 
ATOM     15  C   UNL     1       0.407  -3.993   7.264  0.00  0.00    -0.032 A 
ATOM     16  C   UNL     1       0.995  -4.525   6.130  0.00  0.00    +0.046 A 
ATOM     17  C   UNL     1       0.853  -3.887   4.912  0.00  0.00    +0.043 A 
ATOM     18 CL   UNL     1       1.906  -5.999   6.236  0.00  0.00    -0.083 Cl
ATOM     19  C   UNL     1       0.559  -4.694   8.589  0.00  0.00    +0.045 C 
ENDBRANCH  10  12
ENDBRANCH   6   8
BRANCH   5  20
ATOM     20  N   UNL     1      -0.468  -4.196   0.031  0.00  0.00    -0.282 N 
ATOM     21  H   UNL     1      -0.370  -4.663   0.875  0.00  0.00    +0.166 HD
BRANCH  20  22
ATOM     22  N   UNL     1      -0.763  -4.894  -1.106  0.00  0.00    -0.256 NA
ATOM     23  H   UNL     1      -0.074  -4.724  -1.823  0.00  0.00    +0.140 HD
ATOM     24  H   UNL     1      -0.848  -5.880  -0.913  0.00  0.00    +0.140 HD
ENDBRANCH  20  22
ENDBRANCH   5  20
TORSDOF 4
