REMARK  Name = ZINC12870791
REMARK  6 active torsions:
REMARK  status: ('A' for Active; 'I' for Inactive)
REMARK    1  A    between atoms: C_1  and  C_2
REMARK    2  A    between atoms: C_13  and  C_33
REMARK    3  A    between atoms: N_20  and  C_23
REMARK    4  A    between atoms: C_23  and  C_24
REMARK    5  A    between atoms: C_24  and  C_26
REMARK    6  A    between atoms: C_24  and  O_32
REMARK                            x       y       z     vdW  Elec       q    Type
REMARK                         _______ _______ _______ _____ _____    ______ ____
ROOT
ATOM      1  C   UNL     1      -3.009   6.855  -1.332  0.00  0.00    +0.048 C 
ATOM      2  C   UNL     1      -2.399   6.625   0.052  0.00  0.00    +0.151 C 
ATOM      3  C   UNL     1      -1.653   5.311   0.045  0.00  0.00    +0.054 A 
ATOM      4  C   UNL     1      -0.304   5.227   0.034  0.00  0.00    -0.008 A 
ATOM      5  C   UNL     1       0.031   3.818   0.022  0.00  0.00    +0.004 A 
ATOM      6  C   UNL     1       1.250   3.133   0.007  0.00  0.00    +0.010 A 
ATOM      7  C   UNL     1       1.191   1.761   0.000  0.00  0.00    +0.001 A 
ATOM      8  C   UNL     1      -0.013   1.076   0.008  0.00  0.00    +0.002 A 
ATOM      9  C   UNL     1      -1.233   1.728   0.017  0.00  0.00    +0.026 A 
ATOM     10  C   UNL     1      -1.205   3.121   0.030  0.00  0.00    +0.047 A 
ATOM     11  N   UNL     1      -2.199   4.056   0.044  0.00  0.00    -0.356 N 
ATOM     12  H   UNL     1      -3.149   3.861   0.051  0.00  0.00    +0.166 HD
ATOM     13  C   UNL     1       0.628   6.411   0.041  0.00  0.00    +0.070 C 
ATOM     14  C   UNL     1      -0.146   7.663  -0.385  0.00  0.00    +0.122 C 
ATOM     15  N   UNL     1      -1.437   7.691   0.329  0.00  0.00    -0.280 N 
ATOM     16  C   UNL     1      -1.675   8.668   1.208  0.00  0.00    +0.234 C 
ATOM     17  O   UNL     1      -0.881   9.583   1.269  0.00  0.00    -0.274 OA
ATOM     18  C   UNL     1      -2.857   8.707   2.122  0.00  0.00    +0.203 C 
ATOM     19  N   UNL     1      -3.702   7.533   1.976  0.00  0.00    -0.288 N 
ATOM     20  C   UNL     1      -3.506   6.591   1.053  0.00  0.00    +0.245 C 
ATOM     21  O   UNL     1      -4.273   5.652   1.025  0.00  0.00    -0.273 OA
ENDROOT
BRANCH  13  22
ATOM     22  C   UNL     1       1.182   6.609   1.428  0.00  0.00    -0.020 A 
ATOM     23  C   UNL     1       0.326   6.853   2.486  0.00  0.00    +0.006 A 
ATOM     24  C   UNL     1       0.834   7.035   3.759  0.00  0.00    +0.000 A 
ATOM     25  C   UNL     1       2.198   6.971   3.975  0.00  0.00    +0.001 A 
ATOM     26  C   UNL     1       3.055   6.726   2.919  0.00  0.00    +0.020 A 
ATOM     27  C   UNL     1       2.547   6.540   1.645  0.00  0.00    +0.045 A 
ATOM     28 CL   UNL     1       3.622   6.225   0.319  0.00  0.00    -0.083 Cl
ENDBRANCH  13  22
BRANCH  19  29
ATOM     29  C   UNL     1      -4.832   7.376   2.895  0.00  0.00    +0.144 C 
BRANCH  29  30
ATOM     30  C   UNL     1      -6.072   8.044   2.298  0.00  0.00    +0.162 C 
BRANCH  30  31
ATOM     31  C   UNL     1      -7.234   7.883   3.243  0.00  0.00    -0.018 A 
ATOM     32  C   UNL     1      -7.409   8.777   4.282  0.00  0.00    +0.006 A 
ATOM     33  C   UNL     1      -8.478   8.631   5.147  0.00  0.00    +0.000 A 
ATOM     34  C   UNL     1      -9.367   7.586   4.978  0.00  0.00    +0.000 A 
ATOM     35  C   UNL     1      -9.188   6.689   3.942  0.00  0.00    +0.000 A 
ATOM     36  C   UNL     1      -8.122   6.837   3.074  0.00  0.00    +0.006 A 
ENDBRANCH  30  31
BRANCH  30  37
ATOM     37  O   UNL     1      -5.813   9.435   2.095  0.00  0.00    -0.386 OA
ATOM     38  H   UNL     1      -5.591   9.916   2.904  0.00  0.00    +0.210 HD
ENDBRANCH  30  37
ENDBRANCH  29  30
ENDBRANCH  19  29
TORSDOF 5
