REMARK  Name = ZINC00735055
REMARK  10 active torsions:
REMARK  status: ('A' for Active; 'I' for Inactive)
REMARK    1  A    between atoms: C_1  and  C_2
REMARK    2  A    between atoms: C_5  and  N_9
REMARK    3  A    between atoms: C_6  and  C_8
REMARK    4  A    between atoms: C_10  and  C_19
REMARK    5  A    between atoms: C_12  and  C_14
REMARK    6  A    between atoms: N_21  and  C_22
REMARK    7  A    between atoms: C_22  and  C_24
REMARK    8  A    between atoms: C_22  and  C_25
REMARK    9  A    between atoms: C_25  and  C_26
REMARK   10  A    between atoms: C_25  and  C_27
REMARK                            x       y       z     vdW  Elec       q    Type
REMARK                         _______ _______ _______ _____ _____    ______ ____
ROOT
ATOM      1  N   UNL     1       0.768   3.122  -0.231  0.00  0.00    -0.227 N 
ATOM      2  C   UNL     1       1.196   1.868   0.116  0.00  0.00    +0.130 A 
ATOM      3  C   UNL     1       0.080   1.067   0.216  0.00  0.00    +0.066 A 
ATOM      4  C   UNL     1      -1.040   1.859  -0.084  0.00  0.00    +0.129 A 
ATOM      5  N   UNL     1      -0.627   3.085  -0.345  0.00  0.00    -0.163 NA
ENDROOT
BRANCH   1  10
ATOM      6  C   UNL     1       4.066   7.662  -1.065  0.00  0.00    +0.044 C 
ATOM      7  C   UNL     1       3.189   6.456  -0.844  0.00  0.00    -0.050 A 
ATOM      8  C   UNL     1       3.380   5.317  -1.604  0.00  0.00    +0.005 A 
ATOM      9  C   UNL     1       2.582   4.208  -1.400  0.00  0.00    +0.028 A 
ATOM     10  C   UNL     1       1.581   4.242  -0.437  0.00  0.00    +0.069 A 
ATOM     11  C   UNL     1       1.393   5.388   0.324  0.00  0.00    -0.025 A 
ATOM     12  C   UNL     1       2.198   6.492   0.119  0.00  0.00    +0.008 A 
ATOM     13  C   UNL     1       0.313   5.427   1.375  0.00  0.00    +0.046 C 
ENDBRANCH   1  10
BRANCH   4  14
ATOM     14  C   UNL     1      -2.445   1.399  -0.100  0.00  0.00    +0.155 A 
ATOM     15  C   UNL     1      -3.532   2.164  -0.384  0.00  0.00    +0.051 A 
ATOM     16  C   UNL     1      -4.658   1.322  -0.285  0.00  0.00    +0.042 A 
ATOM     17  C   UNL     1      -4.208   0.100   0.059  0.00  0.00    +0.196 A 
ATOM     18  O   UNL     1      -2.871   0.150   0.170  0.00  0.00    -0.461 OA
ENDBRANCH   4  14
BRANCH   2  19
ATOM     19  C   UNL     1       2.590   1.453   0.340  0.00  0.00    +0.263 C 
ATOM     20  O   UNL     1       2.853   0.280   0.527  0.00  0.00    -0.269 OA
ATOM     21  N   UNL     1       3.575   2.373   0.339  0.00  0.00    -0.307 N 
ATOM     22  H   UNL     1       3.359   3.315   0.253  0.00  0.00    +0.149 HD
BRANCH  21  23
ATOM     23  C   UNL     1       4.972   1.951   0.469  0.00  0.00    +0.073 C 
ATOM     24  C   UNL     1       5.529   1.602  -0.913  0.00  0.00    +0.028 C 
BRANCH  23  25
ATOM     25  C   UNL     1       5.795   3.088   1.078  0.00  0.00    +0.003 C 
ATOM     26  C   UNL     1       5.178   3.503   2.415  0.00  0.00    +0.009 C 
ATOM     27  C   UNL     1       7.231   2.614   1.304  0.00  0.00    +0.009 C 
ENDBRANCH  23  25
ENDBRANCH  21  23
ENDBRANCH   2  19
TORSDOF 5
