REMARK  Name = ZINC36534233
REMARK  15 active torsions:
REMARK  status: ('A' for Active; 'I' for Inactive)
REMARK    1  A    between atoms: C_1  and  C_2
REMARK    2  A    between atoms: C_5  and  S_8
REMARK    3  A    between atoms: S_8  and  C_11
REMARK    4  A    between atoms: C_11  and  N_12
REMARK    5  A    between atoms: C_13  and  C_15
REMARK    6  A    between atoms: C_15  and  C_17
REMARK    7  A    between atoms: C_15  and  N_26
REMARK    8  A    between atoms: C_20  and  O_25
REMARK    9  A    between atoms: C_21  and  O_23
REMARK   10  A    between atoms: O_23  and  C_24
REMARK   11  A    between atoms: N_26  and  C_27
REMARK   12  A    between atoms: C_28  and  C_30
REMARK   13  A    between atoms: C_30  and  C_31
REMARK   14  A    between atoms: C_31  and  C_33
REMARK   15  A    between atoms: C_31  and  C_34
REMARK                            x       y       z     vdW  Elec       q    Type
REMARK                         _______ _______ _______ _____ _____    ______ ____
ROOT
ATOM      1  C   UNL     1       3.215  -4.926   3.538  0.00  0.00    +0.192 C 
ENDROOT
BRANCH   1   2
ATOM      2  C   UNL     1       2.468  -3.764   4.139  0.00  0.00    -0.015 A 
ATOM      3  C   UNL     1       1.125  -3.588   3.861  0.00  0.00    +0.010 A 
ATOM      4  C   UNL     1       0.435  -2.523   4.410  0.00  0.00    +0.049 A 
ATOM      5  C   UNL     1       1.089  -1.629   5.242  0.00  0.00    +0.158 A 
ATOM      6  C   UNL     1       2.440  -1.806   5.523  0.00  0.00    +0.162 A 
ATOM      7  C   UNL     1       3.125  -2.878   4.973  0.00  0.00    +0.055 A 
BRANCH   6   8
ATOM      8  O   UNL     1       3.087  -0.931   6.339  0.00  0.00    -0.491 OA
ATOM      9  C   UNL     1       4.473  -1.175   6.583  0.00  0.00    +0.277 C 
ENDBRANCH   6   8
BRANCH   5  10
ATOM     10  O   UNL     1       0.412  -0.581   5.783  0.00  0.00    -0.503 OA
ATOM     11  H   UNL     1       0.005  -0.775   6.638  0.00  0.00    +0.292 HD
ENDBRANCH   5  10
ENDBRANCH   1   2
BRANCH   1  13
ATOM     12  N   UNL     1       3.225  -3.969   1.257  0.00  0.00    -0.294 N 
ATOM     13  C   UNL     1       2.918  -5.005   2.063  0.00  0.00    +0.239 C 
ATOM     14  O   UNL     1       2.403  -6.001   1.600  0.00  0.00    -0.273 OA
ATOM     15  H   UNL     1       3.637  -3.172   1.627  0.00  0.00    +0.150 HD
BRANCH  12  16
ATOM     16  C   UNL     1       2.936  -4.046  -0.177  0.00  0.00    +0.278 C 
BRANCH  16  17
ATOM     17  S   UNL     1       1.331  -3.270  -0.513  0.00  0.00    +0.013 S 
ATOM     18  O   UNL     1       0.359  -3.736   0.413  0.00  0.00    -0.168 OA
ATOM     19  O   UNL     1       1.065  -3.280  -1.909  0.00  0.00    -0.168 OA
BRANCH  17  24
ATOM     20  C   UNL     1       2.100   2.554   0.865  0.00  0.00    +0.044 C 
ATOM     21  C   UNL     1       1.908   1.099   0.520  0.00  0.00    -0.050 A 
ATOM     22  C   UNL     1       2.163   0.653  -0.763  0.00  0.00    +0.005 A 
ATOM     23  C   UNL     1       1.987  -0.682  -1.078  0.00  0.00    +0.027 A 
ATOM     24  C   UNL     1       1.556  -1.570  -0.111  0.00  0.00    +0.090 A 
ATOM     25  C   UNL     1       1.302  -1.124   1.173  0.00  0.00    +0.027 A 
ATOM     26  C   UNL     1       1.482   0.210   1.490  0.00  0.00    +0.005 A 
ENDBRANCH  17  24
ENDBRANCH  16  17
ENDBRANCH  12  16
ENDBRANCH   1  13
BRANCH   1  27
ATOM     27  N   UNL     1       2.791  -6.168   4.189  0.00  0.00    -0.289 N 
ATOM     28  C   UNL     1       1.417  -6.650   4.023  0.00  0.00    +0.133 C 
ATOM     29  C   UNL     1       3.664  -6.868   4.940  0.00  0.00    +0.217 C 
ATOM     30  O   UNL     1       4.801  -6.469   5.077  0.00  0.00    -0.276 OA
BRANCH  29  31
ATOM     31  C   UNL     1       3.228  -8.146   5.609  0.00  0.00    +0.104 C 
BRANCH  31  32
ATOM     32  C   UNL     1       4.401  -8.736   6.394  0.00  0.00    +0.025 C 
ATOM     33  C   UNL     1       4.779  -7.790   7.536  0.00  0.00    +0.013 C 
BRANCH  32  34
ATOM     34  C   UNL     1       4.003 -10.074   6.962  0.00  0.00    -0.044 A 
ATOM     35  C   UNL     1       2.933 -10.165   7.832  0.00  0.00    +0.004 A 
ATOM     36  C   UNL     1       2.567 -11.392   8.353  0.00  0.00    +0.000 A 
ATOM     37  C   UNL     1       3.271 -12.529   8.003  0.00  0.00    +0.000 A 
ATOM     38  C   UNL     1       4.341 -12.438   7.132  0.00  0.00    +0.000 A 
ATOM     39  C   UNL     1       4.704 -11.212   6.608  0.00  0.00    +0.004 A 
ENDBRANCH  32  34
ENDBRANCH  31  32
ENDBRANCH  29  31
ENDBRANCH   1  27
TORSDOF 11
