REMARK  Name = ZINC57663903
REMARK  11 active torsions:
REMARK  status: ('A' for Active; 'I' for Inactive)
REMARK    1  A    between atoms: C_1  and  C_2
REMARK    2  A    between atoms: C_2  and  O_3
REMARK    3  A    between atoms: O_3  and  C_4
REMARK    4  A    between atoms: C_7  and  C_11
REMARK    5  A    between atoms: C_9  and  N_10
REMARK    6  A    between atoms: C_11  and  C_13
REMARK    7  A    between atoms: C_13  and  C_14
REMARK    8  A    between atoms: C_14  and  N_15
REMARK    9  A    between atoms: C_20  and  C_22
REMARK   10  A    between atoms: C_22  and  C_23
REMARK   11  A    between atoms: C_23  and  O_24
REMARK                            x       y       z     vdW  Elec       q    Type
REMARK                         _______ _______ _______ _____ _____    ______ ____
ROOT
ATOM      1  C   UNL     1       1.037  -6.095   2.007  0.00  0.00    +0.161 C 
ATOM      2  O   UNL     1       1.692  -6.591   2.900  0.00  0.00    -0.292 OA
ENDROOT
BRANCH   1   6
ATOM      3  C   UNL     1       0.423  -1.897   1.896  0.00  0.00    +0.141 A 
ATOM      4  C   UNL     1      -0.126  -2.705   0.909  0.00  0.00    +0.048 A 
ATOM      5  C   UNL     1       0.071  -4.068   0.941  0.00  0.00    +0.015 A 
ATOM      6  C   UNL     1       0.826  -4.642   1.971  0.00  0.00    +0.019 A 
ATOM      7  C   UNL     1       1.380  -3.827   2.966  0.00  0.00    +0.037 A 
ATOM      8  C   UNL     1       1.182  -2.460   2.923  0.00  0.00    +0.067 A 
BRANCH   8   9
ATOM      9  N   UNL     1       1.738  -1.641   3.912  0.00  0.00    -0.355 N 
ATOM     10  H   UNL     1       1.596  -0.682   3.884  0.00  0.00    +0.142 HD
ATOM     11  H   UNL     1       2.266  -2.032   4.626  0.00  0.00    +0.142 HD
ENDBRANCH   8   9
BRANCH   3  12
ATOM     12  O   UNL     1       0.224  -0.554   1.858  0.00  0.00    -0.490 OA
BRANCH  12  14
ATOM     13  C   UNL     1      -0.675   1.476   0.905  0.00  0.00    +0.048 C 
ATOM     14  C   UNL     1      -0.562  -0.044   0.780  0.00  0.00    +0.226 C 
ENDBRANCH  12  14
ENDBRANCH   3  12
ENDBRANCH   1   6
BRANCH   1  15
ATOM     15  C   UNL     1       0.440  -6.970   0.936  0.00  0.00    +0.061 C 
BRANCH  15  16
ATOM     16  C   UNL     1       0.807  -8.431   1.207  0.00  0.00    -0.071 C 
BRANCH  16  17
ATOM     17  N   UNL     1       0.225  -9.284   0.162  0.00  0.00    +0.382 N 
ATOM     18  C   UNL     1      -1.240  -9.218   0.238  0.00  0.00    -0.078 C 
ATOM     19  C   UNL     1      -1.851 -10.040  -0.899  0.00  0.00    -0.019 C 
ATOM     20  C   UNL     1      -1.397 -11.497  -0.769  0.00  0.00    -0.003 C 
ATOM     21  C   UNL     1       0.134 -11.546  -0.775  0.00  0.00    -0.015 C 
ATOM     22  C   UNL     1       0.672 -10.668   0.357  0.00  0.00    -0.066 C 
ATOM     23  H   UNL     1       0.527  -8.958  -0.744  0.00  0.00    -0.081 HD
BRANCH  22  24
ATOM     24  C   UNL     1       2.201 -10.715   0.356  0.00  0.00    +0.012 C 
BRANCH  24  25
ATOM     25  C   UNL     1       2.668 -12.148   0.616  0.00  0.00    +0.154 C 
BRANCH  25  26
ATOM     26  O   UNL     1       4.091 -12.171   0.738  0.00  0.00    -0.395 OA
ATOM     27  H   UNL     1       4.458 -13.050   0.905  0.00  0.00    +0.209 HD
ENDBRANCH  25  26
ENDBRANCH  24  25
ENDBRANCH  22  24
ENDBRANCH  16  17
ENDBRANCH  15  16
ENDBRANCH   1  15
TORSDOF 10
