REMARK  Name = ZINC39689463
REMARK  6 active torsions:
REMARK  status: ('A' for Active; 'I' for Inactive)
REMARK    1  A    between atoms: C_1  and  C_2
REMARK    2  A    between atoms: C_6  and  C_8
REMARK    3  A    between atoms: C_8  and  C_9
REMARK    4  A    between atoms: C_9  and  N_10
REMARK    5  A    between atoms: C_11  and  C_13
REMARK    6  A    between atoms: C_24  and  C_26
REMARK                            x       y       z     vdW  Elec       q    Type
REMARK                         _______ _______ _______ _____ _____    ______ ____
ROOT
ATOM      1  C   UNL     1       2.681  -4.939   6.133  0.00  0.00    +0.100 C 
ATOM      2  C   UNL     1       1.935  -6.278   5.942  0.00  0.00    +0.121 C 
ATOM      3  N   UNL     1       3.002  -7.259   5.630  0.00  0.00    -0.297 N 
ATOM      4  C   UNL     1       4.125  -6.878   6.519  0.00  0.00    +0.115 C 
ATOM      5  C   UNL     1       4.117  -5.337   6.515  0.00  0.00    -0.004 C 
ATOM      6  C   UNL     1       5.105  -4.808   5.479  0.00  0.00    -0.010 C 
ATOM      7  C   UNL     1       6.530  -5.168   5.911  0.00  0.00    -0.082 C 
ATOM      8  N   UNL     1       6.808  -4.580   7.227  0.00  0.00    +0.379 N 
ATOM      9  C   UNL     1       5.913  -5.162   8.235  0.00  0.00    -0.082 C 
ATOM     10  C   UNL     1       4.463  -4.803   7.901  0.00  0.00    -0.010 C 
ATOM     11  C   UNL     1       2.959  -8.270   4.739  0.00  0.00    +0.260 C 
ATOM     12  O   UNL     1       1.998  -8.396   4.010  0.00  0.00    -0.271 OA
ATOM     13  H   UNL     1       7.766  -4.766   7.481  0.00  0.00    -0.086 HD
ATOM     14  H   UNL     1       6.661  -3.582   7.186  0.00  0.00    -0.086 HD
ENDROOT
BRANCH  11  15
ATOM     15  C   UNL     1       4.107  -9.242   4.648  0.00  0.00    +0.296 C 
ATOM     16  C   UNL     1       4.154 -10.107   5.915  0.00  0.00    +0.283 C 
ATOM     17  O   UNL     1       5.244 -11.027   5.789  0.00  0.00    -0.484 OA
ATOM     18  C   UNL     1       5.356 -11.683   4.602  0.00  0.00    +0.162 A 
ATOM     19  C   UNL     1       6.139 -12.826   4.527  0.00  0.00    +0.049 A 
ATOM     20  C   UNL     1       6.266 -13.501   3.328  0.00  0.00    +0.004 A 
ATOM     21  C   UNL     1       5.614 -13.039   2.200  0.00  0.00    +0.004 A 
ATOM     22  C   UNL     1       4.832 -11.902   2.268  0.00  0.00    +0.049 A 
ATOM     23  C   UNL     1       4.699 -11.220   3.468  0.00  0.00    +0.163 A 
ATOM     24  O   UNL     1       3.919 -10.106   3.521  0.00  0.00    -0.473 OA
ENDBRANCH  11  15
BRANCH   1  26
ATOM     25  N   UNL     1       2.700  -2.803   4.886  0.00  0.00    -0.315 N 
ATOM     26  C   UNL     1       2.680  -4.150   4.849  0.00  0.00    +0.218 C 
ATOM     27  O   UNL     1       2.659  -4.727   3.782  0.00  0.00    -0.275 OA
ATOM     28  H   UNL     1       2.716  -2.341   5.738  0.00  0.00    +0.149 HD
BRANCH  25  29
ATOM     29  C   UNL     1       2.699  -2.036   3.637  0.00  0.00    +0.109 C 
BRANCH  29  30
ATOM     30  C   UNL     1       2.724  -0.540   3.958  0.00  0.00    +0.054 C 
BRANCH  30  36
ATOM     31  C   UNL     1       5.221   1.694   0.240  0.00  0.00    +0.044 C 
ATOM     32  C   UNL     1       3.917   1.318   0.895  0.00  0.00    -0.050 A 
ATOM     33  C   UNL     1       2.720   1.697   0.319  0.00  0.00    +0.003 A 
ATOM     34  C   UNL     1       1.524   1.353   0.920  0.00  0.00    +0.001 A 
ATOM     35  C   UNL     1       1.525   0.629   2.098  0.00  0.00    +0.004 A 
ATOM     36  C   UNL     1       2.723   0.249   2.674  0.00  0.00    -0.046 A 
ATOM     37  C   UNL     1       3.919   0.590   2.070  0.00  0.00    +0.007 A 
ENDBRANCH  30  36
ENDBRANCH  29  30
ENDBRANCH  25  29
ENDBRANCH   1  26
TORSDOF 5
