REMARK  Name = ZINC38734921
REMARK  3 active torsions:
REMARK  status: ('A' for Active; 'I' for Inactive)
REMARK    1  A    between atoms: C_3  and  C_17
REMARK    2  A    between atoms: C_5  and  N_7
REMARK    3  A    between atoms: C_8  and  C_10
REMARK                            x       y       z     vdW  Elec       q    Type
REMARK                         _______ _______ _______ _____ _____    ______ ____
ROOT
ATOM      1  C   UNL     1       0.075   1.393  -0.552  0.00  0.00    +0.002 A 
ATOM      2  C   UNL     1       1.220   2.070  -0.183  0.00  0.00    +0.010 A 
ATOM      3  C   UNL     1       2.369   1.361   0.164  0.00  0.00    +0.004 A 
ATOM      4  C   UNL     1       2.358  -0.032   0.136  0.00  0.00    +0.033 A 
ATOM      5  C   UNL     1       1.204  -0.705  -0.237  0.00  0.00    +0.034 A 
ATOM      6  C   UNL     1       0.063   0.011  -0.581  0.00  0.00    +0.023 A 
ENDROOT
BRANCH   3   7
ATOM      7  C   UNL     1       3.600   2.087   0.560  0.00  0.00    +0.090 A 
ATOM      8  C   UNL     1       3.715   3.427   0.726  0.00  0.00    +0.121 A 
ATOM      9  N   UNL     1       5.028   3.694   1.099  0.00  0.00    -0.300 N 
ATOM     10  C   UNL     1       5.802   4.790   1.413  0.00  0.00    +0.100 A 
ATOM     11  C   UNL     1       7.086   4.648   1.736  0.00  0.00    +0.067 A 
ATOM     12  S   UNL     1       7.304   2.879   1.616  0.00  0.00    -0.058 S 
ATOM     13  C   UNL     1       5.642   2.469   1.137  0.00  0.00    +0.178 A 
ATOM     14  N   UNL     1       4.799   1.528   0.826  0.00  0.00    -0.221 NA
ENDBRANCH   3   7
BRANCH   5  15
ATOM     15  N   UNL     1       1.188  -2.103  -0.267  0.00  0.00    -0.281 N 
ATOM     16  C   UNL     1       0.073  -2.772   0.088  0.00  0.00    +0.253 C 
ATOM     17  O   UNL     1      -0.953  -2.162   0.324  0.00  0.00    -0.270 OA
ATOM     18  H   UNL     1       1.980  -2.591  -0.542  0.00  0.00    +0.155 HD
BRANCH  16  19
ATOM     19  C   UNL     1       0.097  -4.238   0.191  0.00  0.00    +0.101 A 
ATOM     20  C   UNL     1      -1.090  -4.968   0.200  0.00  0.00    +0.020 A 
ATOM     21  C   UNL     1      -1.027  -6.358   0.298  0.00  0.00    +0.018 A 
ATOM     22  C   UNL     1       0.175  -6.982   0.384  0.00  0.00    +0.086 A 
ATOM     23  N   UNL     1       1.333  -6.279   0.376  0.00  0.00    -0.328 N 
ATOM     24  C   UNL     1       1.330  -4.936   0.277  0.00  0.00    +0.261 A 
ATOM     25  O   UNL     1       2.382  -4.322   0.267  0.00  0.00    -0.267 OA
ATOM     26  H   UNL     1       2.178  -6.751   0.439  0.00  0.00    +0.168 HD
ENDBRANCH  16  19
ENDBRANCH   5  15
TORSDOF 3
