REMARK  Name = ZINC09739408
REMARK  2 active torsions:
REMARK  status: ('A' for Active; 'I' for Inactive)
REMARK    1  A    between atoms: C_8  and  C_12
REMARK    2  A    between atoms: C_12  and  N_13
REMARK                            x       y       z     vdW  Elec       q    Type
REMARK                         _______ _______ _______ _____ _____    ______ ____
ROOT
ATOM      1  N   UNL     1      -0.785   3.059   0.030  0.00  0.00    -0.218 N 
ATOM      2  C   UNL     1       0.551   3.247   0.017  0.00  0.00    +0.247 C 
ATOM      3  O   UNL     1       1.144   4.304   0.018  0.00  0.00    -0.273 OA
ATOM      4  C   UNL     1       1.152   1.861   0.001  0.00  0.00    +0.113 C 
ATOM      5  C   UNL     1       2.023   1.642  -1.203  0.00  0.00    +0.035 C 
ATOM      6  C   UNL     1       1.925   0.198  -1.741  0.00  0.00    +0.003 C 
ATOM      7  C   UNL     1       1.904  -0.856  -0.616  0.00  0.00    +0.000 C 
ATOM      8  C   UNL     1       2.881  -0.545   0.485  0.00  0.00    +0.000 C 
ATOM      9  C   UNL     1       2.138   0.228   1.593  0.00  0.00    +0.003 C 
ATOM     10  C   UNL     1       1.985   1.642   1.279  0.00  0.00    +0.035 C 
ATOM     11  N   UNL     1      -0.011   0.966   0.007  0.00  0.00    -0.285 N 
ATOM     12  C   UNL     1      -1.101   1.758   0.016  0.00  0.00    +0.310 C 
ATOM     13  O   UNL     1      -2.241   1.339   0.015  0.00  0.00    -0.252 OA
ATOM     14  H   UNL     1       0.002  -0.004   0.002  0.00  0.00    +0.151 HD
ENDROOT
BRANCH   1  15
ATOM     15  C   UNL     1      -1.769   4.145   0.051  0.00  0.00    +0.173 C 
BRANCH  15  23
ATOM     16  C   UNL     1      -0.766   6.329  -5.496  0.00  0.00    +0.005 A 
ATOM     17  C   UNL     1      -2.063   6.134  -5.992  0.00  0.00    +0.018 A 
ATOM     18  C   UNL     1      -3.018   5.594  -5.202  0.00  0.00    +0.096 A 
ATOM     19  N   UNL     1      -2.738   5.233  -3.919  0.00  0.00    -0.268 N 
ATOM     20  C   UNL     1      -1.483   5.411  -3.407  0.00  0.00    +0.141 A 
ATOM     21  C   UNL     1      -0.476   5.971  -4.213  0.00  0.00    +0.047 A 
ATOM     22  N   UNL     1      -1.203   5.065  -2.152  0.00  0.00    -0.232 NA
ATOM     23  C   UNL     1      -2.122   4.530  -1.363  0.00  0.00    +0.067 A 
ATOM     24  C   UNL     1      -3.405   4.330  -1.833  0.00  0.00    +0.095 A 
ATOM     25  C   UNL     1      -3.709   4.696  -3.149  0.00  0.00    +0.259 A 
ATOM     26  O   UNL     1      -4.834   4.531  -3.595  0.00  0.00    -0.267 OA
ENDBRANCH  15  23
ENDBRANCH   1  15
TORSDOF 2
