REMARK  Name = ZINC62001290
REMARK  11 active torsions:
REMARK  status: ('A' for Active; 'I' for Inactive)
REMARK    1  A    between atoms: C_1  and  C_2
REMARK    2  A    between atoms: N_4  and  C_5
REMARK    3  A    between atoms: C_7  and  O_36
REMARK    4  A    between atoms: C_9  and  O_35
REMARK    5  A    between atoms: C_11  and  C_33
REMARK    6  A    between atoms: C_14  and  O_16
REMARK    7  A    between atoms: O_16  and  C_17
REMARK    8  A    between atoms: C_20  and  C_23
REMARK    9  A    between atoms: C_23  and  C_25
REMARK   10  A    between atoms: C_26  and  C_27
REMARK   11  A    between atoms: C_33  and  O_34
REMARK                            x       y       z     vdW  Elec       q    Type
REMARK                         _______ _______ _______ _____ _____    ______ ____
ROOT
ATOM      1  C   UNL     1      -1.136  -2.159   0.001  0.00  0.00    +0.173 C 
ATOM      2  C   UNL     1      -2.444  -2.685  -0.596  0.00  0.00    +0.172 C 
ATOM      3  C   UNL     1      -2.445  -4.215  -0.528  0.00  0.00    +0.176 C 
ATOM      4  C   UNL     1      -2.253  -4.653   0.926  0.00  0.00    +0.179 C 
ATOM      5  O   UNL     1      -1.033  -4.105   1.430  0.00  0.00    -0.332 OA
ATOM      6  C   UNL     1      -0.993  -2.676   1.435  0.00  0.00    +0.331 C 
ENDROOT
BRANCH   1  10
ATOM      7  C   UNL     1      -0.018   1.503   0.010  0.00  0.00    +0.109 C 
ATOM      8  C   UNL     1       0.002  -0.004   0.002  0.00  0.00    +0.210 C 
ATOM      9  O   UNL     1       1.060  -0.596  -0.011  0.00  0.00    -0.276 OA
ATOM     10  N   UNL     1      -1.156  -0.694   0.009  0.00  0.00    -0.304 N 
ATOM     11  H   UNL     1      -2.002  -0.220   0.020  0.00  0.00    +0.149 HD
ENDBRANCH   1  10
BRANCH   3  12
ATOM     12  O   UNL     1      -3.691  -4.715  -1.018  0.00  0.00    -0.387 OA
ATOM     13  H   UNL     1      -3.761  -5.679  -1.004  0.00  0.00    +0.210 HD
ENDBRANCH   3  12
BRANCH   2  14
ATOM     14  O   UNL     1      -2.551  -2.265  -1.958  0.00  0.00    -0.387 OA
ATOM     15  H   UNL     1      -3.357  -2.564  -2.400  0.00  0.00    +0.210 HD
ENDBRANCH   2  14
BRANCH   6  16
ATOM     16  O   UNL     1       0.253  -2.235   1.978  0.00  0.00    -0.462 OA
BRANCH  16  17
ATOM     17  C   UNL     1       0.492  -2.521   3.284  0.00  0.00    +0.124 A 
ATOM     18  C   UNL     1      -0.455  -3.219   4.024  0.00  0.00    +0.046 A 
ATOM     19  C   UNL     1      -0.217  -3.511   5.349  0.00  0.00    +0.015 A 
ATOM     20  C   UNL     1       0.979  -3.105   5.948  0.00  0.00    +0.022 A 
ATOM     21  C   UNL     1       1.928  -2.404   5.199  0.00  0.00    +0.015 A 
ATOM     22  C   UNL     1       1.685  -2.121   3.874  0.00  0.00    +0.046 A 
BRANCH  20  23
ATOM     23  C   UNL     1       1.238  -3.416   7.368  0.00  0.00    +0.186 C 
ATOM     24  O   UNL     1       0.410  -4.027   8.019  0.00  0.00    -0.287 OA
BRANCH  23  25
ATOM     25  C   UNL     1       2.490  -2.990   7.993  0.00  0.00    +0.052 C 
ATOM     26  C   UNL     1       2.727  -3.275   9.292  0.00  0.00    +0.011 C 
BRANCH  26  27
ATOM     27  C   UNL     1       3.987  -2.846   9.921  0.00  0.00    -0.025 A 
ATOM     28  C   UNL     1       4.938  -2.139   9.178  0.00  0.00    +0.008 A 
ATOM     29  C   UNL     1       6.116  -1.741   9.775  0.00  0.00    +0.001 A 
ATOM     30  C   UNL     1       6.357  -2.039  11.104  0.00  0.00    +0.000 A 
ATOM     31  C   UNL     1       5.421  -2.739  11.846  0.00  0.00    +0.001 A 
ATOM     32  C   UNL     1       4.236  -3.139  11.265  0.00  0.00    +0.008 A 
ENDBRANCH  26  27
ENDBRANCH  23  25
ENDBRANCH  20  23
ENDBRANCH  16  17
ENDBRANCH   6  16
BRANCH   4  33
ATOM     33  C   UNL     1      -2.192  -6.181   0.995  0.00  0.00    +0.190 C 
BRANCH  33  34
ATOM     34  O   UNL     1      -2.130  -6.594   2.362  0.00  0.00    -0.392 OA
ATOM     35  H   UNL     1      -2.089  -7.552   2.482  0.00  0.00    +0.210 HD
ENDBRANCH  33  34
ENDBRANCH   4  33
TORSDOF 10
