REMARK  Name = ZINC00481573
REMARK  5 active torsions:
REMARK  status: ('A' for Active; 'I' for Inactive)
REMARK    1  A    between atoms: C_1  and  C_2
REMARK    2  A    between atoms: C_10  and  O_17
REMARK    3  A    between atoms: C_11  and  C_14
REMARK    4  A    between atoms: C_12  and  O_13
REMARK    5  A    between atoms: C_14  and  C_15
REMARK                            x       y       z     vdW  Elec       q    Type
REMARK                         _______ _______ _______ _____ _____    ______ ____
ROOT
ATOM      1  C   UNL     1      -0.018   1.503   0.010  0.00  0.00    +0.086 C 
ATOM      2  C   UNL     1       0.002  -0.004   0.002  0.00  0.00    +0.106 A 
ATOM      3  C   UNL     1       0.022  -0.653   1.179  0.00  0.00    +0.093 A 
ATOM      4  C   UNL     1       0.041  -2.075   1.196  0.00  0.00    +0.196 A 
ATOM      5  O   UNL     1       0.060  -2.697   2.246  0.00  0.00    -0.287 OA
ATOM      6  C   UNL     1       0.038  -2.765  -0.103  0.00  0.00    +0.106 A 
ATOM      7  C   UNL     1       0.016  -1.984  -1.273  0.00  0.00    +0.146 A 
ATOM      8  O   UNL     1      -0.006  -0.638  -1.176  0.00  0.00    -0.459 OA
ATOM      9  C   UNL     1       0.012  -2.609  -2.509  0.00  0.00    +0.092 A 
ATOM     10  C   UNL     1       0.030  -3.993  -2.586  0.00  0.00    +0.127 A 
ATOM     11  C   UNL     1       0.052  -4.768  -1.432  0.00  0.00    +0.040 A 
ATOM     12  C   UNL     1       0.055  -4.162  -0.189  0.00  0.00    +0.138 A 
ENDROOT
BRANCH  12  13
ATOM     13  O   UNL     1       0.076  -4.916   0.940  0.00  0.00    -0.506 OA
ATOM     14  H   UNL     1      -0.801  -5.146   1.276  0.00  0.00    +0.292 HD
ENDBRANCH  12  13
BRANCH  10  15
ATOM     15  O   UNL     1       0.027  -4.599  -3.801  0.00  0.00    -0.506 OA
ATOM     16  H   UNL     1       0.909  -4.762  -4.162  0.00  0.00    +0.292 HD
ENDBRANCH  10  15
BRANCH  11  17
ATOM     17  C   UNL     1       0.072  -6.271  -1.535  0.00  0.00    +0.069 C 
BRANCH  17  18
ATOM     18  C   UNL     1       1.499  -6.753  -1.583  0.00  0.00    -0.030 C 
ATOM     19  C   UNL     1       1.921  -7.641  -0.718  0.00  0.00    +0.004 C 
ENDBRANCH  17  18
ENDBRANCH  11  17
TORSDOF 4
