REMARK  Name = ZINC24853122
REMARK  9 active torsions:
REMARK  status: ('A' for Active; 'I' for Inactive)
REMARK    1  A    between atoms: C_1  and  C_2
REMARK    2  A    between atoms: C_2  and  C_3
REMARK    3  A    between atoms: C_2  and  N_4
REMARK    4  A    between atoms: C_14  and  S_15
REMARK    5  A    between atoms: S_15  and  C_16
REMARK    6  A    between atoms: C_16  and  C_17
REMARK    7  A    between atoms: N_19  and  N_20
REMARK    8  A    between atoms: C_23  and  C_27
REMARK    9  A    between atoms: C_23  and  C_28
REMARK                            x       y       z     vdW  Elec       q    Type
REMARK                         _______ _______ _______ _____ _____    ______ ____
ROOT
ATOM      1  C   UNL     1      -5.290   3.253   0.070  0.00  0.00    +0.240 C 
ATOM      2  O   UNL     1      -5.538   4.440   0.079  0.00  0.00    -0.273 OA
ATOM      3  N   UNL     1      -6.295   2.355   0.074  0.00  0.00    -0.223 N 
ATOM      4  H   UNL     1      -6.071   1.278   0.066  0.00  0.00    +0.174 HD
ENDROOT
BRANCH   3   5
ATOM      5  N   UNL     1      -7.626   2.793   0.089  0.00  0.00    -0.137 N 
ATOM      6  C   UNL     1      -8.445   2.761  -0.981  0.00  0.00    +0.267 C 
ATOM      7  O   UNL     1      -8.180   2.365  -2.095  0.00  0.00    -0.271 OA
ATOM      8  C   UNL     1      -9.768   3.325  -0.500  0.00  0.00    +0.137 C 
ATOM      9  N   UNL     1      -9.516   3.639   0.917  0.00  0.00    -0.280 N 
ATOM     10  C   UNL     1      -8.242   3.288   1.168  0.00  0.00    +0.327 C 
ATOM     11  O   UNL     1      -7.709   3.412   2.253  0.00  0.00    -0.251 OA
ATOM     12  C   UNL     1     -10.127   4.593  -1.279  0.00  0.00    +0.047 C 
ATOM     13  H   UNL     1     -10.316   4.074   1.534  0.00  0.00    +0.152 HD
BRANCH   8  14
ATOM     14  C   UNL     1     -10.861   2.297  -0.630  0.00  0.00    -0.015 A 
ATOM     15  C   UNL     1     -10.800   1.346  -1.631  0.00  0.00    +0.006 A 
ATOM     16  C   UNL     1     -11.801   0.399  -1.748  0.00  0.00    +0.000 A 
ATOM     17  C   UNL     1     -12.868   0.410  -0.869  0.00  0.00    +0.000 A 
ATOM     18  C   UNL     1     -12.932   1.365   0.129  0.00  0.00    +0.000 A 
ATOM     19  C   UNL     1     -11.929   2.308   0.248  0.00  0.00    +0.006 A 
ENDBRANCH   8  14
ENDBRANCH   3   5
BRANCH   1  20
ATOM     20  C   UNL     1      -3.859   2.781   0.054  0.00  0.00    +0.174 C 
BRANCH  20  21
ATOM     21  S   UNL     1      -2.752   4.214   0.051  0.00  0.00    -0.078 S 
BRANCH  21  32
ATOM     22  N   UNL     1      -0.058   4.156   0.026  0.00  0.00    -0.285 N 
ATOM     23  C   UNL     1       1.162   3.569   0.011  0.00  0.00    +0.263 A 
ATOM     24  O   UNL     1       2.182   4.232   0.005  0.00  0.00    -0.267 OA
ATOM     25  C   UNL     1       1.208   2.100   0.002  0.00  0.00    +0.065 A 
ATOM     26  C   UNL     1       2.414   1.401  -0.013  0.00  0.00    +0.015 A 
ATOM     27  C   UNL     1       2.400   0.034  -0.021  0.00  0.00    +0.001 A 
ATOM     28  C   UNL     1       1.198  -0.664  -0.013  0.00  0.00    +0.002 A 
ATOM     29  C   UNL     1       0.002  -0.004   0.002  0.00  0.00    +0.028 A 
ATOM     30  C   UNL     1      -0.017   1.394   0.010  0.00  0.00    +0.079 A 
ATOM     31  N   UNL     1      -1.174   2.085   0.030  0.00  0.00    -0.223 NA
ATOM     32  C   UNL     1      -1.192   3.395   0.032  0.00  0.00    +0.173 A 
BRANCH  22  34
ATOM     33  C   UNL     1       0.534   6.170   1.281  0.00  0.00    +0.031 C 
ATOM     34  C   UNL     1      -0.162   5.617   0.035  0.00  0.00    +0.087 C 
ATOM     35  C   UNL     1       0.509   6.184  -1.217  0.00  0.00    +0.031 C 
ENDBRANCH  22  34
ENDBRANCH  21  32
ENDBRANCH  20  21
ENDBRANCH   1  20
TORSDOF 6
