REMARK  Name = ZINC23485799
REMARK  9 active torsions:
REMARK  status: ('A' for Active; 'I' for Inactive)
REMARK    1  A    between atoms: C_1  and  C_2
REMARK    2  A    between atoms: C_2  and  N_3
REMARK    3  A    between atoms: C_4  and  C_23
REMARK    4  A    between atoms: C_7  and  S_8
REMARK    5  A    between atoms: S_8  and  C_9
REMARK    6  A    between atoms: C_9  and  C_10
REMARK    7  A    between atoms: C_16  and  C_22
REMARK    8  A    between atoms: C_17  and  C_21
REMARK    9  A    between atoms: C_23  and  N_24
REMARK                            x       y       z     vdW  Elec       q    Type
REMARK                         _______ _______ _______ _____ _____    ______ ____
ROOT
ATOM      1  N   UNL     1       1.062  -0.523   1.538  0.00  0.00    -0.305 N 
ATOM      2  C   UNL     1       2.388  -0.736   1.284  0.00  0.00    +0.152 A 
ATOM      3  N   UNL     1       2.895  -1.322   2.332  0.00  0.00    -0.132 NA
ATOM      4  N   UNL     1       1.987  -1.492   3.225  0.00  0.00    -0.122 NA
ATOM      5  C   UNL     1       0.842  -1.016   2.793  0.00  0.00    +0.192 A 
ENDROOT
BRANCH   1   7
ATOM      6  C   UNL     1       0.144   1.627   0.821  0.00  0.00    +0.027 C 
ATOM      7  C   UNL     1       0.081   0.108   0.652  0.00  0.00    +0.122 C 
ENDBRANCH   1   7
BRANCH   5   8
ATOM      8  S   UNL     1      -0.688  -1.016   3.666  0.00  0.00    -0.078 S 
BRANCH   8   9
ATOM      9  C   UNL     1      -0.291  -1.806   5.249  0.00  0.00    +0.151 C 
BRANCH   9  10
ATOM     10  C   UNL     1      -1.530  -1.870   6.104  0.00  0.00    +0.121 A 
ATOM     11  N   UNL     1      -1.458  -2.422   7.343  0.00  0.00    -0.310 N 
ATOM     12  H   UNL     1      -0.610  -2.767   7.660  0.00  0.00    +0.170 HD
ATOM     13  C   UNL     1      -2.541  -2.499   8.139  0.00  0.00    +0.260 A 
ATOM     14  O   UNL     1      -2.460  -2.997   9.248  0.00  0.00    -0.267 OA
ATOM     15  C   UNL     1      -3.791  -1.986   7.661  0.00  0.00    +0.075 A 
ATOM     16  C   UNL     1      -5.084  -1.951   8.319  0.00  0.00    -0.026 A 
ATOM     17  C   UNL     1      -6.133  -1.415   7.675  0.00  0.00    -0.008 A 
ATOM     18  S   UNL     1      -5.443  -0.911   6.110  0.00  0.00    -0.073 S 
ATOM     19  C   UNL     1      -3.767  -1.434   6.367  0.00  0.00    +0.116 A 
ATOM     20  N   UNL     1      -2.653  -1.389   5.642  0.00  0.00    -0.226 NA
ATOM     21  C   UNL     1      -7.553  -1.274   8.158  0.00  0.00    +0.052 C 
ATOM     22  C   UNL     1      -5.247  -2.510   9.709  0.00  0.00    +0.045 C 
ENDBRANCH   9  10
ENDBRANCH   8   9
ENDBRANCH   5   8
BRANCH   2  23
ATOM     23  C   UNL     1       3.127  -0.363   0.024  0.00  0.00    +0.184 C 
BRANCH  23  24
ATOM     24  N   UNL     1       3.200  -1.528  -0.862  0.00  0.00    -0.294 N 
ATOM     25  C   UNL     1       4.265  -2.526  -0.670  0.00  0.00    +0.108 C 
ATOM     26  C   UNL     1       3.643  -3.800  -0.094  0.00  0.00    +0.019 C 
ATOM     27  C   UNL     1       3.124  -4.698  -1.202  0.00  0.00    +0.002 C 
ATOM     28  C   UNL     1       1.944  -4.118  -1.959  0.00  0.00    +0.009 C 
ATOM     29  C   UNL     1       2.365  -2.879  -2.754  0.00  0.00    +0.096 C 
ATOM     30  C   UNL     1       2.299  -1.679  -1.833  0.00  0.00    +0.216 C 
ATOM     31  O   UNL     1       1.427  -0.850  -1.983  0.00  0.00    -0.276 OA
ENDBRANCH  23  24
ENDBRANCH   2  23
TORSDOF 6
